BEGIN Configuration File: /tmp/bs2_new_jmUx.cfg
topology = mesh;
k = 4;
n = 2;
routing_function = gnn_port_score_route_4x4_v4;
num_vcs = 4;
vc_buf_size = 4;
wait_for_tail_credit = 1;
vc_allocator = islip;
sw_allocator = islip;
alloc_iters = 1;
credit_delay = 2;
routing_delay = 1;
vc_alloc_delay = 1;
sw_alloc_delay = 1;
input_speedup = 2;
output_speedup = 1;
internal_speedup = 1.0;
traffic = uniform;
packet_size = 1;
sim_type = latency;
injection_rate = 0.05;
warmup_periods = 3;
sample_period = 1000;
sim_count = 100;
link_failures = 0;
fail_seed = 0;
seed = 0;

END Configuration File: /tmp/bs2_new_jmUx.cfg
Class 0:
Packet latency average = 19.9196
	minimum = 7
	maximum = 48
Network latency average = 19.9196
	minimum = 7
	maximum = 48
Slowest packet = 254
Flit latency average = 19.9196
	minimum = 7
	maximum = 48
Slowest flit = 254
Fragmentation average = 0
	minimum = 0
	maximum = 0
Injected packet rate average = 0.048875
	minimum = 0.041 (at node 5)
	maximum = 0.054 (at node 1)
Accepted packet rate average = 0.0481875
	minimum = 0.038 (at node 11)
	maximum = 0.054 (at node 0)
Injected flit rate average = 0.048875
	minimum = 0.041 (at node 5)
	maximum = 0.054 (at node 1)
Accepted flit rate average= 0.0481875
	minimum = 0.038 (at node 11)
	maximum = 0.054 (at node 0)
Injected packet length average = 1
Accepted packet length average = 1
Total in-flight flits = 11 (0 measured)
latency change    = 1
throughput change = 1
Class 0:
Packet latency average = 20.0494
	minimum = 7
	maximum = 53
Network latency average = 20.0494
	minimum = 7
	maximum = 53
Slowest packet = 1458
Flit latency average = 20.0494
	minimum = 7
	maximum = 53
Slowest flit = 1458
Fragmentation average = 0
	minimum = 0
	maximum = 0
Injected packet rate average = 0.049125
	minimum = 0.0395 (at node 8)
	maximum = 0.057 (at node 12)
Accepted packet rate average = 0.04875
	minimum = 0.0415 (at node 14)
	maximum = 0.055 (at node 12)
Injected flit rate average = 0.049125
	minimum = 0.0395 (at node 8)
	maximum = 0.057 (at node 12)
Accepted flit rate average= 0.04875
	minimum = 0.0415 (at node 14)
	maximum = 0.055 (at node 12)
Injected packet length average = 1
Accepted packet length average = 1
Total in-flight flits = 12 (0 measured)
latency change    = 0.00647273
throughput change = 0.0115385
Class 0:
Packet latency average = 20.0525
	minimum = 7
	maximum = 46
Network latency average = 20.0525
	minimum = 7
	maximum = 46
Slowest packet = 1733
Flit latency average = 20.0525
	minimum = 7
	maximum = 46
Slowest flit = 1733
Fragmentation average = 0
	minimum = 0
	maximum = 0
Injected packet rate average = 0.0518125
	minimum = 0.045 (at node 4)
	maximum = 0.059 (at node 1)
Accepted packet rate average = 0.0511875
	minimum = 0.041 (at node 4)
	maximum = 0.062 (at node 15)
Injected flit rate average = 0.0518125
	minimum = 0.045 (at node 4)
	maximum = 0.059 (at node 1)
Accepted flit rate average= 0.0511875
	minimum = 0.041 (at node 4)
	maximum = 0.062 (at node 15)
Injected packet length average = 1
Accepted packet length average = 1
Total in-flight flits = 22 (0 measured)
latency change    = 0.000156792
throughput change = 0.047619
Warmed up ...Time used is 3000 cycles
Class 0:
Packet latency average = 20.3476
	minimum = 7
	maximum = 47
Network latency average = 20.3476
	minimum = 7
	maximum = 47
Slowest packet = 2679
Flit latency average = 20.4636
	minimum = 7
	maximum = 47
Slowest flit = 2679
Fragmentation average = 0
	minimum = 0
	maximum = 0
Injected packet rate average = 0.0480625
	minimum = 0.035 (at node 0)
	maximum = 0.057 (at node 9)
Accepted packet rate average = 0.048125
	minimum = 0.037 (at node 15)
	maximum = 0.06 (at node 6)
Injected flit rate average = 0.0480625
	minimum = 0.035 (at node 0)
	maximum = 0.057 (at node 9)
Accepted flit rate average= 0.048125
	minimum = 0.037 (at node 15)
	maximum = 0.06 (at node 6)
Injected packet length average = 1
Accepted packet length average = 1
Total in-flight flits = 21 (21 measured)
latency change    = 0.0145025
throughput change = 0.0636364
Class 0:
Packet latency average = 20.1612
	minimum = 7
	maximum = 47
Network latency average = 20.1612
	minimum = 7
	maximum = 47
Slowest packet = 2679
Flit latency average = 20.222
	minimum = 7
	maximum = 47
Slowest flit = 2679
Fragmentation average = 0
	minimum = 0
	maximum = 0
Injected packet rate average = 0.0476875
	minimum = 0.0365 (at node 0)
	maximum = 0.0575 (at node 9)
Accepted packet rate average = 0.048
	minimum = 0.039 (at node 15)
	maximum = 0.061 (at node 6)
Injected flit rate average = 0.0476875
	minimum = 0.0365 (at node 0)
	maximum = 0.0575 (at node 9)
Accepted flit rate average= 0.048
	minimum = 0.039 (at node 15)
	maximum = 0.061 (at node 6)
Injected packet length average = 1
Accepted packet length average = 1
Total in-flight flits = 12 (12 measured)
latency change    = 0.00924704
throughput change = 0.00260417
Class 0:
Packet latency average = 20.2427
	minimum = 7
	maximum = 47
Network latency average = 20.2427
	minimum = 7
	maximum = 47
Slowest packet = 2679
Flit latency average = 20.2822
	minimum = 7
	maximum = 47
Slowest flit = 2679
Fragmentation average = 0
	minimum = 0
	maximum = 0
Injected packet rate average = 0.0481667
	minimum = 0.041 (at node 0)
	maximum = 0.057 (at node 15)
Accepted packet rate average = 0.0483542
	minimum = 0.0413333 (at node 4)
	maximum = 0.0573333 (at node 6)
Injected flit rate average = 0.0481667
	minimum = 0.041 (at node 0)
	maximum = 0.057 (at node 15)
Accepted flit rate average= 0.0483542
	minimum = 0.0413333 (at node 4)
	maximum = 0.0573333 (at node 6)
Injected packet length average = 1
Accepted packet length average = 1
Total in-flight flits = 13 (13 measured)
latency change    = 0.0040287
throughput change = 0.00732443
Class 0:
Packet latency average = 20.2211
	minimum = 7
	maximum = 50
Network latency average = 20.2211
	minimum = 7
	maximum = 50
Slowest packet = 5259
Flit latency average = 20.2505
	minimum = 7
	maximum = 50
Slowest flit = 5259
Fragmentation average = 0
	minimum = 0
	maximum = 0
Injected packet rate average = 0.0488906
	minimum = 0.04275 (at node 0)
	maximum = 0.054 (at node 15)
Accepted packet rate average = 0.0489687
	minimum = 0.04275 (at node 4)
	maximum = 0.0535 (at node 7)
Injected flit rate average = 0.0488906
	minimum = 0.04275 (at node 0)
	maximum = 0.054 (at node 15)
Accepted flit rate average= 0.0489687
	minimum = 0.04275 (at node 4)
	maximum = 0.0535 (at node 7)
Injected packet length average = 1
Accepted packet length average = 1
Total in-flight flits = 17 (17 measured)
latency change    = 0.0010699
throughput change = 0.0125505
Draining all recorded packets ...
Draining remaining packets ...
Time taken is 7061 cycles
Class 0:
Packet latency average = 19.9464
	minimum = 7
	maximum = 49
Network latency average = 19.9464
	minimum = 7
	maximum = 49
Slowest packet = 6224
Flit latency average = 19.9464
	minimum = 7
	maximum = 49
Slowest flit = 6224
Fragmentation average = 0
	minimum = 0
	maximum = 0
Injected packet rate average = 0.0503125
	minimum = 0.04 (at node 12)
	maximum = 0.06 (at node 6)
Accepted packet rate average = 0.049
	minimum = 0.034 (at node 13)
	maximum = 0.061 (at node 8)
Injected flit rate average = 0.0503125
	minimum = 0.04 (at node 12)
	maximum = 0.06 (at node 6)
Accepted flit rate average= 0.049
	minimum = 0.034 (at node 13)
	maximum = 0.061 (at node 8)
Injected packet length average = 1
Accepted packet length average = 1
Total in-flight flits = 21 (0 measured)
latency change    = 1
throughput change = 1
Class 0:
Packet latency average = 20.0804
	minimum = 7
	maximum = 49
Network latency average = 20.0804
	minimum = 7
	maximum = 49
Slowest packet = 6224
Flit latency average = 20.0804
	minimum = 7
	maximum = 49
Slowest flit = 6224
Fragmentation average = 0
	minimum = 0
	maximum = 0
Injected packet rate average = 0.051125
	minimum = 0.045 (at node 7)
	maximum = 0.0625 (at node 6)
Accepted packet rate average = 0.0505
	minimum = 0.0425 (at node 14)
	maximum = 0.063 (at node 8)
Injected flit rate average = 0.051125
	minimum = 0.045 (at node 7)
	maximum = 0.0625 (at node 6)
Accepted flit rate average= 0.0505
	minimum = 0.0425 (at node 14)
	maximum = 0.063 (at node 8)
Injected packet length average = 1
Accepted packet length average = 1
Total in-flight flits = 20 (0 measured)
latency change    = 0.006674
throughput change = 0.029703
Class 0:
Packet latency average = 20.067
	minimum = 7
	maximum = 47
Network latency average = 20.067
	minimum = 7
	maximum = 47
Slowest packet = 7172
Flit latency average = 20.067
	minimum = 7
	maximum = 47
Slowest flit = 7172
Fragmentation average = 0
	minimum = 0
	maximum = 0
Injected packet rate average = 0.0464375
	minimum = 0.035 (at node 4)
	maximum = 0.057 (at node 10)
Accepted packet rate average = 0.046625
	minimum = 0.033 (at node 5)
	maximum = 0.059 (at node 12)
Injected flit rate average = 0.0464375
	minimum = 0.035 (at node 4)
	maximum = 0.057 (at node 10)
Accepted flit rate average= 0.046625
	minimum = 0.033 (at node 5)
	maximum = 0.059 (at node 12)
Injected packet length average = 1
Accepted packet length average = 1
Total in-flight flits = 17 (0 measured)
latency change    = 0.000668829
throughput change = 0.0831099
Warmed up ...Time used is 3000 cycles
Class 0:
Packet latency average = 19.3085
	minimum = 7
	maximum = 49
Network latency average = 19.3085
	minimum = 7
	maximum = 49
Slowest packet = 7991
Flit latency average = 19.4282
	minimum = 7
	maximum = 49
Slowest flit = 7991
Fragmentation average = 0
	minimum = 0
	maximum = 0
Injected packet rate average = 0.050125
	minimum = 0.039 (at node 2)
	maximum = 0.059 (at node 11)
Accepted packet rate average = 0.0505
	minimum = 0.036 (at node 4)
	maximum = 0.06 (at node 0)
Injected flit rate average = 0.050125
	minimum = 0.039 (at node 2)
	maximum = 0.059 (at node 11)
Accepted flit rate average= 0.0505
	minimum = 0.036 (at node 4)
	maximum = 0.06 (at node 0)
Injected packet length average = 1
Accepted packet length average = 1
Total in-flight flits = 11 (11 measured)
latency change    = 0.0392861
throughput change = 0.0767327
Class 0:
Packet latency average = 20.0261
	minimum = 7
	maximum = 49
Network latency average = 20.0261
	minimum = 7
	maximum = 49
Slowest packet = 7991
Flit latency average = 20.0782
	minimum = 7
	maximum = 49
Slowest flit = 7991
Fragmentation average = 0
	minimum = 0
	maximum = 0
Injected packet rate average = 0.0509375
	minimum = 0.042 (at node 3)
	maximum = 0.063 (at node 12)
Accepted packet rate average = 0.05075
	minimum = 0.0425 (at node 4)
	maximum = 0.0605 (at node 0)
Injected flit rate average = 0.0509375
	minimum = 0.042 (at node 3)
	maximum = 0.063 (at node 12)
Accepted flit rate average= 0.05075
	minimum = 0.0425 (at node 4)
	maximum = 0.0605 (at node 0)
Injected packet length average = 1
Accepted packet length average = 1
Total in-flight flits = 23 (23 measured)
latency change    = 0.0358364
throughput change = 0.00492611
Class 0:
Packet latency average = 20.098
	minimum = 7
	maximum = 51
Network latency average = 20.098
	minimum = 7
	maximum = 51
Slowest packet = 9541
Flit latency average = 20.1318
	minimum = 7
	maximum = 51
Slowest flit = 9541
Fragmentation average = 0
	minimum = 0
	maximum = 0
Injected packet rate average = 0.0513125
	minimum = 0.0443333 (at node 14)
	maximum = 0.058 (at node 0)
Accepted packet rate average = 0.051375
	minimum = 0.045 (at node 4)
	maximum = 0.0573333 (at node 0)
Injected flit rate average = 0.0513125
	minimum = 0.0443333 (at node 14)
	maximum = 0.058 (at node 0)
Accepted flit rate average= 0.051375
	minimum = 0.045 (at node 4)
	maximum = 0.0573333 (at node 0)
Injected packet length average = 1
Accepted packet length average = 1
Total in-flight flits = 14 (14 measured)
latency change    = 0.00357566
throughput change = 0.0121655
Class 0:
Packet latency average = 20.0393
	minimum = 7
	maximum = 51
Network latency average = 20.0393
	minimum = 7
	maximum = 51
Slowest packet = 9541
Flit latency average = 20.0647
	minimum = 7
	maximum = 51
Slowest flit = 9541
Fragmentation average = 0
	minimum = 0
	maximum = 0
Injected packet rate average = 0.0519063
	minimum = 0.04575 (at node 1)
	maximum = 0.05925 (at node 12)
Accepted packet rate average = 0.0518906
	minimum = 0.04575 (at node 9)
	maximum = 0.056 (at node 3)
Injected flit rate average = 0.0519063
	minimum = 0.04575 (at node 1)
	maximum = 0.05925 (at node 12)
Accepted flit rate average= 0.0518906
	minimum = 0.04575 (at node 9)
	maximum = 0.056 (at node 3)
Injected packet length average = 1
Accepted packet length average = 1
Total in-flight flits = 18 (18 measured)
latency change    = 0.00292689
throughput change = 0.00993677
Draining all recorded packets ...
Draining remaining packets ...
Time taken is 7060 cycles
Class 0:
Packet latency average = 20.1948
	minimum = 7
	maximum = 58
Network latency average = 20.1948
	minimum = 7
	maximum = 58
Slowest packet = 11355
Flit latency average = 20.1948
	minimum = 7
	maximum = 58
Slowest flit = 11355
Fragmentation average = 0
	minimum = 0
	maximum = 0
Injected packet rate average = 0.049
	minimum = 0.038 (at node 6)
	maximum = 0.063 (at node 2)
Accepted packet rate average = 0.048125
	minimum = 0.03 (at node 7)
	maximum = 0.06 (at node 6)
Injected flit rate average = 0.049
	minimum = 0.038 (at node 6)
	maximum = 0.063 (at node 2)
Accepted flit rate average= 0.048125
	minimum = 0.03 (at node 7)
	maximum = 0.06 (at node 6)
Injected packet length average = 1
Accepted packet length average = 1
Total in-flight flits = 14 (0 measured)
latency change    = 1
throughput change = 1
Class 0:
Packet latency average = 20.0449
	minimum = 7
	maximum = 58
Network latency average = 20.0449
	minimum = 7
	maximum = 58
Slowest packet = 11355
Flit latency average = 20.0449
	minimum = 7
	maximum = 58
Slowest flit = 11355
Fragmentation average = 0
	minimum = 0
	maximum = 0
Injected packet rate average = 0.0493437
	minimum = 0.0395 (at node 0)
	maximum = 0.0575 (at node 10)
Accepted packet rate average = 0.04875
	minimum = 0.034 (at node 4)
	maximum = 0.0635 (at node 9)
Injected flit rate average = 0.0493437
	minimum = 0.0395 (at node 0)
	maximum = 0.0575 (at node 10)
Accepted flit rate average= 0.04875
	minimum = 0.034 (at node 4)
	maximum = 0.0635 (at node 9)
Injected packet length average = 1
Accepted packet length average = 1
Total in-flight flits = 19 (0 measured)
latency change    = 0.00747989
throughput change = 0.0128205
Class 0:
Packet latency average = 19.5967
	minimum = 7
	maximum = 55
Network latency average = 19.5967
	minimum = 7
	maximum = 55
Slowest packet = 13279
Flit latency average = 19.5967
	minimum = 7
	maximum = 55
Slowest flit = 13279
Fragmentation average = 0
	minimum = 0
	maximum = 0
Injected packet rate average = 0.0493125
	minimum = 0.039 (at node 2)
	maximum = 0.06 (at node 5)
Accepted packet rate average = 0.0494375
	minimum = 0.035 (at node 15)
	maximum = 0.062 (at node 10)
Injected flit rate average = 0.0493125
	minimum = 0.039 (at node 2)
	maximum = 0.06 (at node 5)
Accepted flit rate average= 0.0494375
	minimum = 0.035 (at node 15)
	maximum = 0.062 (at node 10)
Injected packet length average = 1
Accepted packet length average = 1
Total in-flight flits = 17 (0 measured)
latency change    = 0.0228691
throughput change = 0.0139064
Warmed up ...Time used is 3000 cycles
Class 0:
Packet latency average = 20.1901
	minimum = 7
	maximum = 45
Network latency average = 20.1901
	minimum = 7
	maximum = 45
Slowest packet = 13958
Flit latency average = 20.1859
	minimum = 7
	maximum = 45
Slowest flit = 13958
Fragmentation average = 0
	minimum = 0
	maximum = 0
Injected packet rate average = 0.0475
	minimum = 0.039 (at node 5)
	maximum = 0.063 (at node 12)
Accepted packet rate average = 0.04775
	minimum = 0.03 (at node 14)
	maximum = 0.063 (at node 13)
Injected flit rate average = 0.0475
	minimum = 0.039 (at node 5)
	maximum = 0.063 (at node 12)
Accepted flit rate average= 0.04775
	minimum = 0.03 (at node 14)
	maximum = 0.063 (at node 13)
Injected packet length average = 1
Accepted packet length average = 1
Total in-flight flits = 13 (13 measured)
latency change    = 0.0293897
throughput change = 0.0353403
Class 0:
Packet latency average = 20.1917
	minimum = 7
	maximum = 52
Network latency average = 20.1917
	minimum = 7
	maximum = 52
Slowest packet = 14756
Flit latency average = 20.1896
	minimum = 7
	maximum = 52
Slowest flit = 14756
Fragmentation average = 0
	minimum = 0
	maximum = 0
Injected packet rate average = 0.0501875
	minimum = 0.0425 (at node 5)
	maximum = 0.0585 (at node 12)
Accepted packet rate average = 0.0500937
	minimum = 0.038 (at node 14)
	maximum = 0.06 (at node 13)
Injected flit rate average = 0.0501875
	minimum = 0.0425 (at node 5)
	maximum = 0.0585 (at node 12)
Accepted flit rate average= 0.0500937
	minimum = 0.038 (at node 14)
	maximum = 0.06 (at node 13)
Injected packet length average = 1
Accepted packet length average = 1
Total in-flight flits = 20 (20 measured)
latency change    = 7.84218e-05
throughput change = 0.0467873
Class 0:
Packet latency average = 20.19
	minimum = 7
	maximum = 52
Network latency average = 20.19
	minimum = 7
	maximum = 52
Slowest packet = 14756
Flit latency average = 20.1886
	minimum = 7
	maximum = 52
Slowest flit = 14756
Fragmentation average = 0
	minimum = 0
	maximum = 0
Injected packet rate average = 0.050125
	minimum = 0.044 (at node 15)
	maximum = 0.057 (at node 7)
Accepted packet rate average = 0.0501458
	minimum = 0.0433333 (at node 14)
	maximum = 0.0596667 (at node 13)
Injected flit rate average = 0.050125
	minimum = 0.044 (at node 15)
	maximum = 0.057 (at node 7)
Accepted flit rate average= 0.0501458
	minimum = 0.0433333 (at node 14)
	maximum = 0.0596667 (at node 13)
Injected packet length average = 1
Accepted packet length average = 1
Total in-flight flits = 16 (16 measured)
latency change    = 8.51421e-05
throughput change = 0.00103864
Draining all recorded packets ...
Draining remaining packets ...
Time taken is 6051 cycles
Class 0:
Packet latency average = 20.5985
	minimum = 7
	maximum = 53
Network latency average = 20.5985
	minimum = 7
	maximum = 53
Slowest packet = 16625
Flit latency average = 20.5985
	minimum = 7
	maximum = 53
Slowest flit = 16625
Fragmentation average = 0
	minimum = 0
	maximum = 0
Injected packet rate average = 0.052625
	minimum = 0.038 (at node 5)
	maximum = 0.067 (at node 9)
Accepted packet rate average = 0.0516875
	minimum = 0.037 (at node 4)
	maximum = 0.07 (at node 12)
Injected flit rate average = 0.052625
	minimum = 0.038 (at node 5)
	maximum = 0.067 (at node 9)
Accepted flit rate average= 0.0516875
	minimum = 0.037 (at node 4)
	maximum = 0.07 (at node 12)
Injected packet length average = 1
Accepted packet length average = 1
Total in-flight flits = 15 (0 measured)
latency change    = 1
throughput change = 1
Class 0:
Packet latency average = 20.5212
	minimum = 7
	maximum = 64
Network latency average = 20.5212
	minimum = 7
	maximum = 64
Slowest packet = 17546
Flit latency average = 20.5212
	minimum = 7
	maximum = 64
Slowest flit = 17546
Fragmentation average = 0
	minimum = 0
	maximum = 0
Injected packet rate average = 0.0520938
	minimum = 0.041 (at node 11)
	maximum = 0.0615 (at node 9)
Accepted packet rate average = 0.0515625
	minimum = 0.042 (at node 9)
	maximum = 0.0635 (at node 12)
Injected flit rate average = 0.0520938
	minimum = 0.041 (at node 11)
	maximum = 0.0615 (at node 9)
Accepted flit rate average= 0.0515625
	minimum = 0.042 (at node 9)
	maximum = 0.0635 (at node 12)
Injected packet length average = 1
Accepted packet length average = 1
Total in-flight flits = 17 (0 measured)
latency change    = 0.00376863
throughput change = 0.00242424
Class 0:
Packet latency average = 20.4919
	minimum = 7
	maximum = 49
Network latency average = 20.4919
	minimum = 7
	maximum = 49
Slowest packet = 18355
Flit latency average = 20.4919
	minimum = 7
	maximum = 49
Slowest flit = 18355
Fragmentation average = 0
	minimum = 0
	maximum = 0
Injected packet rate average = 0.0496875
	minimum = 0.034 (at node 1)
	maximum = 0.065 (at node 0)
Accepted packet rate average = 0.0499375
	minimum = 0.038 (at node 13)
	maximum = 0.059 (at node 3)
Injected flit rate average = 0.0496875
	minimum = 0.034 (at node 1)
	maximum = 0.065 (at node 0)
Accepted flit rate average= 0.0499375
	minimum = 0.038 (at node 13)
	maximum = 0.059 (at node 3)
Injected packet length average = 1
Accepted packet length average = 1
Total in-flight flits = 13 (0 measured)
latency change    = 0.00143214
throughput change = 0.0325407
Warmed up ...Time used is 3000 cycles
Class 0:
Packet latency average = 20.0975
	minimum = 7
	maximum = 47
Network latency average = 20.0975
	minimum = 7
	maximum = 47
Slowest packet = 18991
Flit latency average = 20.1417
	minimum = 7
	maximum = 47
Slowest flit = 18991
Fragmentation average = 0
	minimum = 0
	maximum = 0
Injected packet rate average = 0.047625
	minimum = 0.038 (at node 7)
	maximum = 0.062 (at node 10)
Accepted packet rate average = 0.047625
	minimum = 0.035 (at node 0)
	maximum = 0.066 (at node 11)
Injected flit rate average = 0.047625
	minimum = 0.038 (at node 7)
	maximum = 0.062 (at node 10)
Accepted flit rate average= 0.047625
	minimum = 0.035 (at node 0)
	maximum = 0.066 (at node 11)
Injected packet length average = 1
Accepted packet length average = 1
Total in-flight flits = 13 (13 measured)
latency change    = 0.0196244
throughput change = 0.0485564
Class 0:
Packet latency average = 19.8025
	minimum = 7
	maximum = 47
Network latency average = 19.8025
	minimum = 7
	maximum = 47
Slowest packet = 18991
Flit latency average = 19.8261
	minimum = 7
	maximum = 47
Slowest flit = 18991
Fragmentation average = 0
	minimum = 0
	maximum = 0
Injected packet rate average = 0.04975
	minimum = 0.038 (at node 15)
	maximum = 0.06 (at node 12)
Accepted packet rate average = 0.0497812
	minimum = 0.042 (at node 0)
	maximum = 0.0605 (at node 4)
Injected flit rate average = 0.04975
	minimum = 0.038 (at node 15)
	maximum = 0.06 (at node 12)
Accepted flit rate average= 0.0497812
	minimum = 0.042 (at node 0)
	maximum = 0.0605 (at node 4)
Injected packet length average = 1
Accepted packet length average = 1
Total in-flight flits = 12 (12 measured)
latency change    = 0.0148936
throughput change = 0.0433145
Class 0:
Packet latency average = 19.8455
	minimum = 7
	maximum = 50
Network latency average = 19.8455
	minimum = 7
	maximum = 50
Slowest packet = 20377
Flit latency average = 19.8613
	minimum = 7
	maximum = 50
Slowest flit = 20377
Fragmentation average = 0
	minimum = 0
	maximum = 0
Injected packet rate average = 0.0488958
	minimum = 0.0366667 (at node 15)
	maximum = 0.0566667 (at node 13)
Accepted packet rate average = 0.0486667
	minimum = 0.042 (at node 0)
	maximum = 0.0586667 (at node 4)
Injected flit rate average = 0.0488958
	minimum = 0.0366667 (at node 15)
	maximum = 0.0566667 (at node 13)
Accepted flit rate average= 0.0486667
	minimum = 0.042 (at node 0)
	maximum = 0.0586667 (at node 4)
Injected packet length average = 1
Accepted packet length average = 1
Total in-flight flits = 24 (24 measured)
latency change    = 0.00216305
throughput change = 0.0229024
Draining all recorded packets ...
Draining remaining packets ...
Time taken is 6054 cycles
Class 0:
Packet latency average = 20.5361
	minimum = 7
	maximum = 46
Network latency average = 20.5361
	minimum = 7
	maximum = 46
Slowest packet = 21514
Flit latency average = 20.5361
	minimum = 7
	maximum = 46
Slowest flit = 21514
Fragmentation average = 0
	minimum = 0
	maximum = 0
Injected packet rate average = 0.04825
	minimum = 0.034 (at node 5)
	maximum = 0.061 (at node 7)
Accepted packet rate average = 0.0475625
	minimum = 0.034 (at node 0)
	maximum = 0.059 (at node 2)
Injected flit rate average = 0.04825
	minimum = 0.034 (at node 5)
	maximum = 0.061 (at node 7)
Accepted flit rate average= 0.0475625
	minimum = 0.034 (at node 0)
	maximum = 0.059 (at node 2)
Injected packet length average = 1
Accepted packet length average = 1
Total in-flight flits = 11 (0 measured)
latency change    = 1
throughput change = 1
Class 0:
Packet latency average = 20.2232
	minimum = 7
	maximum = 46
Network latency average = 20.2232
	minimum = 7
	maximum = 46
Slowest packet = 21514
Flit latency average = 20.2232
	minimum = 7
	maximum = 46
Slowest flit = 21514
Fragmentation average = 0
	minimum = 0
	maximum = 0
Injected packet rate average = 0.0484687
	minimum = 0.041 (at node 6)
	maximum = 0.0575 (at node 12)
Accepted packet rate average = 0.0480312
	minimum = 0.038 (at node 0)
	maximum = 0.0545 (at node 4)
Injected flit rate average = 0.0484687
	minimum = 0.041 (at node 6)
	maximum = 0.0575 (at node 12)
Accepted flit rate average= 0.0480312
	minimum = 0.038 (at node 0)
	maximum = 0.0545 (at node 4)
Injected packet length average = 1
Accepted packet length average = 1
Total in-flight flits = 14 (0 measured)
latency change    = 0.015476
throughput change = 0.00975927
Class 0:
Packet latency average = 19.6106
	minimum = 7
	maximum = 50
Network latency average = 19.6106
	minimum = 7
	maximum = 50
Slowest packet = 22510
Flit latency average = 19.6106
	minimum = 7
	maximum = 50
Slowest flit = 22510
Fragmentation average = 0
	minimum = 0
	maximum = 0
Injected packet rate average = 0.0490625
	minimum = 0.032 (at node 2)
	maximum = 0.06 (at node 9)
Accepted packet rate average = 0.0494375
	minimum = 0.029 (at node 12)
	maximum = 0.067 (at node 9)
Injected flit rate average = 0.0490625
	minimum = 0.032 (at node 2)
	maximum = 0.06 (at node 9)
Accepted flit rate average= 0.0494375
	minimum = 0.029 (at node 12)
	maximum = 0.067 (at node 9)
Injected packet length average = 1
Accepted packet length average = 1
Total in-flight flits = 8 (0 measured)
latency change    = 0.0312352
throughput change = 0.028445
Warmed up ...Time used is 3000 cycles
Class 0:
Packet latency average = 20.3155
	minimum = 7
	maximum = 53
Network latency average = 20.3103
	minimum = 7
	maximum = 53
Slowest packet = 23551
Flit latency average = 20.3484
	minimum = 7
	maximum = 53
Slowest flit = 23551
Fragmentation average = 0
	minimum = 0
	maximum = 0
Injected packet rate average = 0.04875
	minimum = 0.04 (at node 6)
	maximum = 0.057 (at node 1)
Accepted packet rate average = 0.0484375
	minimum = 0.037 (at node 4)
	maximum = 0.061 (at node 10)
Injected flit rate average = 0.04875
	minimum = 0.04 (at node 6)
	maximum = 0.057 (at node 1)
Accepted flit rate average= 0.0484375
	minimum = 0.037 (at node 4)
	maximum = 0.061 (at node 10)
Injected packet length average = 1
Accepted packet length average = 1
Total in-flight flits = 13 (13 measured)
latency change    = 0.0346974
throughput change = 0.0206452
Class 0:
Packet latency average = 20.6514
	minimum = 7
	maximum = 53
Network latency average = 20.6489
	minimum = 7
	maximum = 53
Slowest packet = 23551
Flit latency average = 20.6658
	minimum = 7
	maximum = 53
Slowest flit = 23551
Fragmentation average = 0
	minimum = 0
	maximum = 0
Injected packet rate average = 0.0495
	minimum = 0.04 (at node 6)
	maximum = 0.0575 (at node 14)
Accepted packet rate average = 0.049375
	minimum = 0.04 (at node 5)
	maximum = 0.06 (at node 10)
Injected flit rate average = 0.0495
	minimum = 0.04 (at node 6)
	maximum = 0.0575 (at node 14)
Accepted flit rate average= 0.049375
	minimum = 0.04 (at node 5)
	maximum = 0.06 (at node 10)
Injected packet length average = 1
Accepted packet length average = 1
Total in-flight flits = 12 (12 measured)
latency change    = 0.0162645
throughput change = 0.0189873
Class 0:
Packet latency average = 20.4718
	minimum = 7
	maximum = 55
Network latency average = 20.4701
	minimum = 7
	maximum = 55
Slowest packet = 25264
Flit latency average = 20.4818
	minimum = 7
	maximum = 55
Slowest flit = 25264
Fragmentation average = 0
	minimum = 0
	maximum = 0
Injected packet rate average = 0.050375
	minimum = 0.0466667 (at node 6)
	maximum = 0.0576667 (at node 14)
Accepted packet rate average = 0.0503333
	minimum = 0.0443333 (at node 5)
	maximum = 0.0606667 (at node 10)
Injected flit rate average = 0.050375
	minimum = 0.0466667 (at node 6)
	maximum = 0.0576667 (at node 14)
Accepted flit rate average= 0.0503333
	minimum = 0.0443333 (at node 5)
	maximum = 0.0606667 (at node 10)
Injected packet length average = 1
Accepted packet length average = 1
Total in-flight flits = 10 (10 measured)
latency change    = 0.00877495
throughput change = 0.0190397
Draining all recorded packets ...
Draining remaining packets ...
Time taken is 6061 cycles
Class 0:
Packet latency average = 20.1754
	minimum = 7
	maximum = 46
Network latency average = 20.1754
	minimum = 7
	maximum = 46
Slowest packet = 25806
Flit latency average = 20.1754
	minimum = 7
	maximum = 46
Slowest flit = 25806
Fragmentation average = 0
	minimum = 0
	maximum = 0
Injected packet rate average = 0.05075
	minimum = 0.041 (at node 15)
	maximum = 0.069 (at node 2)
Accepted packet rate average = 0.049875
	minimum = 0.039 (at node 14)
	maximum = 0.062 (at node 6)
Injected flit rate average = 0.05075
	minimum = 0.041 (at node 15)
	maximum = 0.069 (at node 2)
Accepted flit rate average= 0.049875
	minimum = 0.039 (at node 14)
	maximum = 0.062 (at node 6)
Injected packet length average = 1
Accepted packet length average = 1
Total in-flight flits = 14 (0 measured)
latency change    = 1
throughput change = 1
Class 0:
Packet latency average = 20.2163
	minimum = 7
	maximum = 56
Network latency average = 20.2163
	minimum = 7
	maximum = 56
Slowest packet = 27081
Flit latency average = 20.2163
	minimum = 7
	maximum = 56
Slowest flit = 27081
Fragmentation average = 0
	minimum = 0
	maximum = 0
Injected packet rate average = 0.0496562
	minimum = 0.0435 (at node 4)
	maximum = 0.058 (at node 2)
Accepted packet rate average = 0.049125
	minimum = 0.037 (at node 14)
	maximum = 0.0585 (at node 11)
Injected flit rate average = 0.0496562
	minimum = 0.0435 (at node 4)
	maximum = 0.058 (at node 2)
Accepted flit rate average= 0.049125
	minimum = 0.037 (at node 14)
	maximum = 0.0585 (at node 11)
Injected packet length average = 1
Accepted packet length average = 1
Total in-flight flits = 17 (0 measured)
latency change    = 0.00202047
throughput change = 0.0152672
Class 0:
Packet latency average = 20.0305
	minimum = 7
	maximum = 53
Network latency average = 20.0305
	minimum = 7
	maximum = 53
Slowest packet = 27394
Flit latency average = 20.0305
	minimum = 7
	maximum = 53
Slowest flit = 27394
Fragmentation average = 0
	minimum = 0
	maximum = 0
Injected packet rate average = 0.0514375
	minimum = 0.042 (at node 8)
	maximum = 0.065 (at node 9)
Accepted packet rate average = 0.05125
	minimum = 0.037 (at node 1)
	maximum = 0.059 (at node 3)
Injected flit rate average = 0.0514375
	minimum = 0.042 (at node 8)
	maximum = 0.065 (at node 9)
Accepted flit rate average= 0.05125
	minimum = 0.037 (at node 1)
	maximum = 0.059 (at node 3)
Injected packet length average = 1
Accepted packet length average = 1
Total in-flight flits = 20 (0 measured)
latency change    = 0.00927572
throughput change = 0.0414634
Warmed up ...Time used is 3000 cycles
Class 0:
Packet latency average = 19.6629
	minimum = 7
	maximum = 42
Network latency average = 19.6629
	minimum = 7
	maximum = 42
Slowest packet = 28272
Flit latency average = 19.7328
	minimum = 7
	maximum = 42
Slowest flit = 28272
Fragmentation average = 0
	minimum = 0
	maximum = 0
Injected packet rate average = 0.050625
	minimum = 0.04 (at node 2)
	maximum = 0.064 (at node 9)
Accepted packet rate average = 0.05075
	minimum = 0.043 (at node 3)
	maximum = 0.066 (at node 13)
Injected flit rate average = 0.050625
	minimum = 0.04 (at node 2)
	maximum = 0.064 (at node 9)
Accepted flit rate average= 0.05075
	minimum = 0.043 (at node 3)
	maximum = 0.066 (at node 13)
Injected packet length average = 1
Accepted packet length average = 1
Total in-flight flits = 18 (18 measured)
latency change    = 0.0186956
throughput change = 0.00985222
Class 0:
Packet latency average = 20.0282
	minimum = 7
	maximum = 42
Network latency average = 20.0282
	minimum = 7
	maximum = 42
Slowest packet = 28272
Flit latency average = 20.0594
	minimum = 7
	maximum = 42
Slowest flit = 28272
Fragmentation average = 0
	minimum = 0
	maximum = 0
Injected packet rate average = 0.0493437
	minimum = 0.039 (at node 5)
	maximum = 0.0585 (at node 8)
Accepted packet rate average = 0.0494375
	minimum = 0.044 (at node 1)
	maximum = 0.06 (at node 13)
Injected flit rate average = 0.0493437
	minimum = 0.039 (at node 5)
	maximum = 0.0585 (at node 8)
Accepted flit rate average= 0.0494375
	minimum = 0.044 (at node 1)
	maximum = 0.06 (at node 13)
Injected packet length average = 1
Accepted packet length average = 1
Total in-flight flits = 17 (17 measured)
latency change    = 0.0182388
throughput change = 0.0265487
Class 0:
Packet latency average = 19.9131
	minimum = 7
	maximum = 45
Network latency average = 19.9131
	minimum = 7
	maximum = 45
Slowest packet = 30215
Flit latency average = 19.9349
	minimum = 7
	maximum = 45
Slowest flit = 30215
Fragmentation average = 0
	minimum = 0
	maximum = 0
Injected packet rate average = 0.0492917
	minimum = 0.044 (at node 2)
	maximum = 0.058 (at node 8)
Accepted packet rate average = 0.0493125
	minimum = 0.0416667 (at node 12)
	maximum = 0.056 (at node 13)
Injected flit rate average = 0.0492917
	minimum = 0.044 (at node 2)
	maximum = 0.058 (at node 8)
Accepted flit rate average= 0.0493125
	minimum = 0.0416667 (at node 12)
	maximum = 0.056 (at node 13)
Injected packet length average = 1
Accepted packet length average = 1
Total in-flight flits = 19 (19 measured)
latency change    = 0.00577954
throughput change = 0.00253485
Draining all recorded packets ...
Draining remaining packets ...
Time taken is 6065 cycles
Class 0:
Packet latency average = 19.2503
	minimum = 7
	maximum = 46
Network latency average = 19.2503
	minimum = 7
	maximum = 46
Slowest packet = 31090
Flit latency average = 19.2503
	minimum = 7
	maximum = 46
Slowest flit = 31090
Fragmentation average = 0
	minimum = 0
	maximum = 0
Injected packet rate average = 0.051625
	minimum = 0.042 (at node 15)
	maximum = 0.06 (at node 11)
Accepted packet rate average = 0.0506875
	minimum = 0.042 (at node 7)
	maximum = 0.059 (at node 14)
Injected flit rate average = 0.051625
	minimum = 0.042 (at node 15)
	maximum = 0.06 (at node 11)
Accepted flit rate average= 0.0506875
	minimum = 0.042 (at node 7)
	maximum = 0.059 (at node 14)
Injected packet length average = 1
Accepted packet length average = 1
Total in-flight flits = 15 (0 measured)
latency change    = 1
throughput change = 1
Class 0:
Packet latency average = 19.4449
	minimum = 7
	maximum = 46
Network latency average = 19.4449
	minimum = 7
	maximum = 46
Slowest packet = 31090
Flit latency average = 19.4449
	minimum = 7
	maximum = 46
Slowest flit = 31090
Fragmentation average = 0
	minimum = 0
	maximum = 0
Injected packet rate average = 0.0501875
	minimum = 0.0405 (at node 2)
	maximum = 0.057 (at node 11)
Accepted packet rate average = 0.0496562
	minimum = 0.0405 (at node 7)
	maximum = 0.057 (at node 1)
Injected flit rate average = 0.0501875
	minimum = 0.0405 (at node 2)
	maximum = 0.057 (at node 11)
Accepted flit rate average= 0.0496562
	minimum = 0.0405 (at node 7)
	maximum = 0.057 (at node 1)
Injected packet length average = 1
Accepted packet length average = 1
Total in-flight flits = 17 (0 measured)
latency change    = 0.0100091
throughput change = 0.0207678
Class 0:
Packet latency average = 20.6296
	minimum = 7
	maximum = 56
Network latency average = 20.6296
	minimum = 7
	maximum = 56
Slowest packet = 32748
Flit latency average = 20.6296
	minimum = 7
	maximum = 56
Slowest flit = 32748
Fragmentation average = 0
	minimum = 0
	maximum = 0
Injected packet rate average = 0.05125
	minimum = 0.036 (at node 15)
	maximum = 0.065 (at node 0)
Accepted packet rate average = 0.051125
	minimum = 0.038 (at node 13)
	maximum = 0.069 (at node 14)
Injected flit rate average = 0.05125
	minimum = 0.036 (at node 15)
	maximum = 0.065 (at node 0)
Accepted flit rate average= 0.051125
	minimum = 0.038 (at node 13)
	maximum = 0.069 (at node 14)
Injected packet length average = 1
Accepted packet length average = 1
Total in-flight flits = 19 (0 measured)
latency change    = 0.0574248
throughput change = 0.0287286
Warmed up ...Time used is 3000 cycles
Class 0:
Packet latency average = 20.0013
	minimum = 7
	maximum = 51
Network latency average = 20.0013
	minimum = 7
	maximum = 51
Slowest packet = 33043
Flit latency average = 20.1236
	minimum = 7
	maximum = 51
Slowest flit = 33043
Fragmentation average = 0
	minimum = 0
	maximum = 0
Injected packet rate average = 0.0488125
	minimum = 0.041 (at node 0)
	maximum = 0.065 (at node 12)
Accepted packet rate average = 0.0490625
	minimum = 0.035 (at node 8)
	maximum = 0.064 (at node 2)
Injected flit rate average = 0.0488125
	minimum = 0.041 (at node 0)
	maximum = 0.065 (at node 12)
Accepted flit rate average= 0.0490625
	minimum = 0.035 (at node 8)
	maximum = 0.064 (at node 2)
Injected packet length average = 1
Accepted packet length average = 1
Total in-flight flits = 15 (15 measured)
latency change    = 0.0314119
throughput change = 0.0420382
Class 0:
Packet latency average = 19.9856
	minimum = 7
	maximum = 53
Network latency average = 19.9856
	minimum = 7
	maximum = 53
Slowest packet = 34500
Flit latency average = 20.0451
	minimum = 7
	maximum = 53
Slowest flit = 34500
Fragmentation average = 0
	minimum = 0
	maximum = 0
Injected packet rate average = 0.0504687
	minimum = 0.042 (at node 11)
	maximum = 0.0615 (at node 13)
Accepted packet rate average = 0.0505625
	minimum = 0.041 (at node 8)
	maximum = 0.057 (at node 10)
Injected flit rate average = 0.0504687
	minimum = 0.042 (at node 11)
	maximum = 0.0615 (at node 13)
Accepted flit rate average= 0.0505625
	minimum = 0.041 (at node 8)
	maximum = 0.057 (at node 10)
Injected packet length average = 1
Accepted packet length average = 1
Total in-flight flits = 16 (16 measured)
latency change    = 0.000785038
throughput change = 0.0296663
Class 0:
Packet latency average = 19.9826
	minimum = 7
	maximum = 53
Network latency average = 19.9826
	minimum = 7
	maximum = 53
Slowest packet = 34500
Flit latency average = 20.0222
	minimum = 7
	maximum = 53
Slowest flit = 34500
Fragmentation average = 0
	minimum = 0
	maximum = 0
Injected packet rate average = 0.0505208
	minimum = 0.045 (at node 10)
	maximum = 0.0583333 (at node 13)
Accepted packet rate average = 0.0506667
	minimum = 0.045 (at node 8)
	maximum = 0.0583333 (at node 11)
Injected flit rate average = 0.0505208
	minimum = 0.045 (at node 10)
	maximum = 0.0583333 (at node 13)
Accepted flit rate average= 0.0506667
	minimum = 0.045 (at node 8)
	maximum = 0.0583333 (at node 11)
Injected packet length average = 1
Accepted packet length average = 1
Total in-flight flits = 12 (12 measured)
latency change    = 0.000151218
throughput change = 0.00205592
Draining all recorded packets ...
Draining remaining packets ...
Time taken is 6064 cycles
Class 0:
Packet latency average = 20.1148
	minimum = 7
	maximum = 43
Network latency average = 20.1148
	minimum = 7
	maximum = 43
Slowest packet = 36141
Flit latency average = 20.1148
	minimum = 7
	maximum = 43
Slowest flit = 36141
Fragmentation average = 0
	minimum = 0
	maximum = 0
Injected packet rate average = 0.05
	minimum = 0.037 (at node 6)
	maximum = 0.058 (at node 15)
Accepted packet rate average = 0.049
	minimum = 0.038 (at node 2)
	maximum = 0.064 (at node 7)
Injected flit rate average = 0.05
	minimum = 0.037 (at node 6)
	maximum = 0.058 (at node 15)
Accepted flit rate average= 0.049
	minimum = 0.038 (at node 2)
	maximum = 0.064 (at node 7)
Injected packet length average = 1
Accepted packet length average = 1
Total in-flight flits = 16 (0 measured)
latency change    = 1
throughput change = 1
Class 0:
Packet latency average = 20.1724
	minimum = 7
	maximum = 51
Network latency average = 20.1724
	minimum = 7
	maximum = 51
Slowest packet = 36846
Flit latency average = 20.1724
	minimum = 7
	maximum = 51
Slowest flit = 36846
Fragmentation average = 0
	minimum = 0
	maximum = 0
Injected packet rate average = 0.0513125
	minimum = 0.039 (at node 6)
	maximum = 0.058 (at node 3)
Accepted packet rate average = 0.05075
	minimum = 0.042 (at node 1)
	maximum = 0.0585 (at node 7)
Injected flit rate average = 0.0513125
	minimum = 0.039 (at node 6)
	maximum = 0.058 (at node 3)
Accepted flit rate average= 0.05075
	minimum = 0.042 (at node 1)
	maximum = 0.0585 (at node 7)
Injected packet length average = 1
Accepted packet length average = 1
Total in-flight flits = 18 (0 measured)
latency change    = 0.00285627
throughput change = 0.0344828
Class 0:
Packet latency average = 19.6662
	minimum = 7
	maximum = 42
Network latency average = 19.6662
	minimum = 7
	maximum = 42
Slowest packet = 37109
Flit latency average = 19.6662
	minimum = 7
	maximum = 42
Slowest flit = 37109
Fragmentation average = 0
	minimum = 0
	maximum = 0
Injected packet rate average = 0.0494375
	minimum = 0.036 (at node 2)
	maximum = 0.06 (at node 9)
Accepted packet rate average = 0.0498125
	minimum = 0.036 (at node 7)
	maximum = 0.062 (at node 5)
Injected flit rate average = 0.0494375
	minimum = 0.036 (at node 2)
	maximum = 0.06 (at node 9)
Accepted flit rate average= 0.0498125
	minimum = 0.036 (at node 7)
	maximum = 0.062 (at node 5)
Injected packet length average = 1
Accepted packet length average = 1
Total in-flight flits = 12 (0 measured)
latency change    = 0.0257378
throughput change = 0.0188206
Warmed up ...Time used is 3000 cycles
Class 0:
Packet latency average = 20.6015
	minimum = 7
	maximum = 47
Network latency average = 20.6002
	minimum = 7
	maximum = 47
Slowest packet = 37923
Flit latency average = 20.6368
	minimum = 7
	maximum = 47
Slowest flit = 37923
Fragmentation average = 0
	minimum = 0
	maximum = 0
Injected packet rate average = 0.0510625
	minimum = 0.044 (at node 6)
	maximum = 0.069 (at node 15)
Accepted packet rate average = 0.0509375
	minimum = 0.038 (at node 5)
	maximum = 0.062 (at node 3)
Injected flit rate average = 0.0510625
	minimum = 0.044 (at node 6)
	maximum = 0.069 (at node 15)
Accepted flit rate average= 0.0509375
	minimum = 0.038 (at node 5)
	maximum = 0.062 (at node 3)
Injected packet length average = 1
Accepted packet length average = 1
Total in-flight flits = 14 (14 measured)
latency change    = 0.045397
throughput change = 0.0220859
Class 0:
Packet latency average = 20.1902
	minimum = 7
	maximum = 47
Network latency average = 20.1896
	minimum = 7
	maximum = 47
Slowest packet = 37923
Flit latency average = 20.2112
	minimum = 7
	maximum = 47
Slowest flit = 37923
Fragmentation average = 0
	minimum = 0
	maximum = 0
Injected packet rate average = 0.0504375
	minimum = 0.0445 (at node 0)
	maximum = 0.0595 (at node 15)
Accepted packet rate average = 0.0503125
	minimum = 0.0435 (at node 5)
	maximum = 0.0595 (at node 10)
Injected flit rate average = 0.0504375
	minimum = 0.0445 (at node 0)
	maximum = 0.0595 (at node 15)
Accepted flit rate average= 0.0503125
	minimum = 0.0435 (at node 5)
	maximum = 0.0595 (at node 10)
Injected packet length average = 1
Accepted packet length average = 1
Total in-flight flits = 16 (16 measured)
latency change    = 0.0203691
throughput change = 0.0124224
Class 0:
Packet latency average = 20.136
	minimum = 7
	maximum = 47
Network latency average = 20.1356
	minimum = 7
	maximum = 47
Slowest packet = 37923
Flit latency average = 20.1504
	minimum = 7
	maximum = 47
Slowest flit = 37923
Fragmentation average = 0
	minimum = 0
	maximum = 0
Injected packet rate average = 0.0495625
	minimum = 0.0423333 (at node 2)
	maximum = 0.0546667 (at node 15)
Accepted packet rate average = 0.0495833
	minimum = 0.0443333 (at node 2)
	maximum = 0.0543333 (at node 10)
Injected flit rate average = 0.0495625
	minimum = 0.0423333 (at node 2)
	maximum = 0.0546667 (at node 15)
Accepted flit rate average= 0.0495833
	minimum = 0.0443333 (at node 2)
	maximum = 0.0543333 (at node 10)
Injected packet length average = 1
Accepted packet length average = 1
Total in-flight flits = 11 (11 measured)
latency change    = 0.00269458
throughput change = 0.0147059
Draining all recorded packets ...
Draining remaining packets ...
Time taken is 6047 cycles
Class 0:
Packet latency average = 20.0155
	minimum = 7
	maximum = 67
Network latency average = 20.0155
	minimum = 7
	maximum = 67
Slowest packet = 40513
Flit latency average = 20.0155
	minimum = 7
	maximum = 67
Slowest flit = 40513
Fragmentation average = 0
	minimum = 0
	maximum = 0
Injected packet rate average = 0.0491875
	minimum = 0.036 (at node 6)
	maximum = 0.059 (at node 2)
Accepted packet rate average = 0.0483125
	minimum = 0.037 (at node 10)
	maximum = 0.063 (at node 11)
Injected flit rate average = 0.0491875
	minimum = 0.036 (at node 6)
	maximum = 0.059 (at node 2)
Accepted flit rate average= 0.0483125
	minimum = 0.037 (at node 10)
	maximum = 0.063 (at node 11)
Injected packet length average = 1
Accepted packet length average = 1
Total in-flight flits = 14 (0 measured)
latency change    = 1
throughput change = 1
Class 0:
Packet latency average = 20.2128
	minimum = 7
	maximum = 67
Network latency average = 20.2128
	minimum = 7
	maximum = 67
Slowest packet = 40513
Flit latency average = 20.2128
	minimum = 7
	maximum = 67
Slowest flit = 40513
Fragmentation average = 0
	minimum = 0
	maximum = 0
Injected packet rate average = 0.0532188
	minimum = 0.0465 (at node 12)
	maximum = 0.06 (at node 4)
Accepted packet rate average = 0.0527188
	minimum = 0.046 (at node 14)
	maximum = 0.0645 (at node 8)
Injected flit rate average = 0.0532188
	minimum = 0.0465 (at node 12)
	maximum = 0.06 (at node 4)
Accepted flit rate average= 0.0527188
	minimum = 0.046 (at node 14)
	maximum = 0.0645 (at node 8)
Injected packet length average = 1
Accepted packet length average = 1
Total in-flight flits = 16 (0 measured)
latency change    = 0.00976014
throughput change = 0.0835803
Class 0:
Packet latency average = 19.7408
	minimum = 7
	maximum = 56
Network latency average = 19.7408
	minimum = 7
	maximum = 56
Slowest packet = 42574
Flit latency average = 19.7408
	minimum = 7
	maximum = 56
Slowest flit = 42574
Fragmentation average = 0
	minimum = 0
	maximum = 0
Injected packet rate average = 0.0495625
	minimum = 0.04 (at node 1)
	maximum = 0.065 (at node 2)
Accepted packet rate average = 0.0494375
	minimum = 0.04 (at node 14)
	maximum = 0.061 (at node 2)
Injected flit rate average = 0.0495625
	minimum = 0.04 (at node 1)
	maximum = 0.065 (at node 2)
Accepted flit rate average= 0.0494375
	minimum = 0.04 (at node 14)
	maximum = 0.061 (at node 2)
Injected packet length average = 1
Accepted packet length average = 1
Total in-flight flits = 18 (0 measured)
latency change    = 0.0239083
throughput change = 0.0663717
Warmed up ...Time used is 3000 cycles
Class 0:
Packet latency average = 20.4953
	minimum = 7
	maximum = 53
Network latency average = 20.4953
	minimum = 7
	maximum = 53
Slowest packet = 43397
Flit latency average = 20.4941
	minimum = 7
	maximum = 53
Slowest flit = 43397
Fragmentation average = 0
	minimum = 0
	maximum = 0
Injected packet rate average = 0.0474375
	minimum = 0.031 (at node 8)
	maximum = 0.06 (at node 7)
Accepted packet rate average = 0.0476875
	minimum = 0.034 (at node 15)
	maximum = 0.056 (at node 6)
Injected flit rate average = 0.0474375
	minimum = 0.031 (at node 8)
	maximum = 0.06 (at node 7)
Accepted flit rate average= 0.0476875
	minimum = 0.034 (at node 15)
	maximum = 0.056 (at node 6)
Injected packet length average = 1
Accepted packet length average = 1
Total in-flight flits = 14 (14 measured)
latency change    = 0.0368117
throughput change = 0.0366972
Class 0:
Packet latency average = 20.4427
	minimum = 7
	maximum = 53
Network latency average = 20.4427
	minimum = 7
	maximum = 53
Slowest packet = 43397
Flit latency average = 20.4427
	minimum = 7
	maximum = 53
Slowest flit = 43397
Fragmentation average = 0
	minimum = 0
	maximum = 0
Injected packet rate average = 0.0477187
	minimum = 0.0385 (at node 8)
	maximum = 0.056 (at node 7)
Accepted packet rate average = 0.0477187
	minimum = 0.04 (at node 1)
	maximum = 0.0555 (at node 0)
Injected flit rate average = 0.0477187
	minimum = 0.0385 (at node 8)
	maximum = 0.056 (at node 7)
Accepted flit rate average= 0.0477187
	minimum = 0.04 (at node 1)
	maximum = 0.0555 (at node 0)
Injected packet length average = 1
Accepted packet length average = 1
Total in-flight flits = 18 (18 measured)
latency change    = 0.00257426
throughput change = 0.000654879
Class 0:
Packet latency average = 20.4638
	minimum = 7
	maximum = 53
Network latency average = 20.4638
	minimum = 7
	maximum = 53
Slowest packet = 43397
Flit latency average = 20.4637
	minimum = 7
	maximum = 53
Slowest flit = 43397
Fragmentation average = 0
	minimum = 0
	maximum = 0
Injected packet rate average = 0.0492708
	minimum = 0.0443333 (at node 10)
	maximum = 0.057 (at node 14)
Accepted packet rate average = 0.0493333
	minimum = 0.044 (at node 1)
	maximum = 0.0566667 (at node 0)
Injected flit rate average = 0.0492708
	minimum = 0.0443333 (at node 10)
	maximum = 0.057 (at node 14)
Accepted flit rate average= 0.0493333
	minimum = 0.044 (at node 1)
	maximum = 0.0566667 (at node 0)
Injected packet length average = 1
Accepted packet length average = 1
Total in-flight flits = 15 (15 measured)
latency change    = 0.00103365
throughput change = 0.032728
Draining all recorded packets ...
Draining remaining packets ...
Time taken is 6071 cycles
Class 0:
Packet latency average = 20.2762
	minimum = 7
	maximum = 51
Network latency average = 20.2762
	minimum = 7
	maximum = 51
Slowest packet = 45568
Flit latency average = 20.2762
	minimum = 7
	maximum = 51
Slowest flit = 45568
Fragmentation average = 0
	minimum = 0
	maximum = 0
Injected packet rate average = 0.0488125
	minimum = 0.039 (at node 2)
	maximum = 0.062 (at node 13)
Accepted packet rate average = 0.04775
	minimum = 0.034 (at node 10)
	maximum = 0.061 (at node 5)
Injected flit rate average = 0.0488125
	minimum = 0.039 (at node 2)
	maximum = 0.062 (at node 13)
Accepted flit rate average= 0.04775
	minimum = 0.034 (at node 10)
	maximum = 0.061 (at node 5)
Injected packet length average = 1
Accepted packet length average = 1
Total in-flight flits = 17 (0 measured)
latency change    = 1
throughput change = 1
Class 0:
Packet latency average = 19.9922
	minimum = 7
	maximum = 51
Network latency average = 19.9922
	minimum = 7
	maximum = 51
Slowest packet = 45568
Flit latency average = 19.9922
	minimum = 7
	maximum = 51
Slowest flit = 45568
Fragmentation average = 0
	minimum = 0
	maximum = 0
Injected packet rate average = 0.0489062
	minimum = 0.0405 (at node 2)
	maximum = 0.054 (at node 5)
Accepted packet rate average = 0.0483437
	minimum = 0.0395 (at node 14)
	maximum = 0.058 (at node 2)
Injected flit rate average = 0.0489062
	minimum = 0.0405 (at node 2)
	maximum = 0.054 (at node 5)
Accepted flit rate average= 0.0483437
	minimum = 0.0395 (at node 14)
	maximum = 0.058 (at node 2)
Injected packet length average = 1
Accepted packet length average = 1
Total in-flight flits = 18 (0 measured)
latency change    = 0.0142023
throughput change = 0.0122818
Class 0:
Packet latency average = 19.9515
	minimum = 7
	maximum = 41
Network latency average = 19.9515
	minimum = 7
	maximum = 41
Slowest packet = 47052
Flit latency average = 19.9515
	minimum = 7
	maximum = 41
Slowest flit = 47052
Fragmentation average = 0
	minimum = 0
	maximum = 0
Injected packet rate average = 0.049
	minimum = 0.028 (at node 3)
	maximum = 0.065 (at node 5)
Accepted packet rate average = 0.049
	minimum = 0.036 (at node 15)
	maximum = 0.062 (at node 14)
Injected flit rate average = 0.049
	minimum = 0.028 (at node 3)
	maximum = 0.065 (at node 5)
Accepted flit rate average= 0.049
	minimum = 0.036 (at node 15)
	maximum = 0.062 (at node 14)
Injected packet length average = 1
Accepted packet length average = 1
Total in-flight flits = 18 (0 measured)
latency change    = 0.00204057
throughput change = 0.0133929
Warmed up ...Time used is 3000 cycles
Class 0:
Packet latency average = 20.3202
	minimum = 7
	maximum = 54
Network latency average = 20.3202
	minimum = 7
	maximum = 54
Slowest packet = 47736
Flit latency average = 20.399
	minimum = 7
	maximum = 54
Slowest flit = 47736
Fragmentation average = 0
	minimum = 0
	maximum = 0
Injected packet rate average = 0.05
	minimum = 0.043 (at node 0)
	maximum = 0.059 (at node 5)
Accepted packet rate average = 0.050125
	minimum = 0.041 (at node 10)
	maximum = 0.068 (at node 2)
Injected flit rate average = 0.05
	minimum = 0.043 (at node 0)
	maximum = 0.059 (at node 5)
Accepted flit rate average= 0.050125
	minimum = 0.041 (at node 10)
	maximum = 0.068 (at node 2)
Injected packet length average = 1
Accepted packet length average = 1
Total in-flight flits = 16 (16 measured)
latency change    = 0.0181407
throughput change = 0.0224439
Class 0:
Packet latency average = 20.2683
	minimum = 7
	maximum = 54
Network latency average = 20.2683
	minimum = 7
	maximum = 54
Slowest packet = 47736
Flit latency average = 20.3082
	minimum = 7
	maximum = 54
Slowest flit = 47736
Fragmentation average = 0
	minimum = 0
	maximum = 0
Injected packet rate average = 0.0500937
	minimum = 0.0425 (at node 3)
	maximum = 0.056 (at node 12)
Accepted packet rate average = 0.0501875
	minimum = 0.044 (at node 5)
	maximum = 0.0575 (at node 2)
Injected flit rate average = 0.0500937
	minimum = 0.0425 (at node 3)
	maximum = 0.056 (at node 12)
Accepted flit rate average= 0.0501875
	minimum = 0.044 (at node 5)
	maximum = 0.0575 (at node 2)
Injected packet length average = 1
Accepted packet length average = 1
Total in-flight flits = 15 (15 measured)
latency change    = 0.00256021
throughput change = 0.00124533
Class 0:
Packet latency average = 20.3366
	minimum = 7
	maximum = 54
Network latency average = 20.3366
	minimum = 7
	maximum = 54
Slowest packet = 47736
Flit latency average = 20.3628
	minimum = 7
	maximum = 54
Slowest flit = 47736
Fragmentation average = 0
	minimum = 0
	maximum = 0
Injected packet rate average = 0.0498333
	minimum = 0.042 (at node 3)
	maximum = 0.0556667 (at node 12)
Accepted packet rate average = 0.0498958
	minimum = 0.0443333 (at node 11)
	maximum = 0.0553333 (at node 6)
Injected flit rate average = 0.0498333
	minimum = 0.042 (at node 3)
	maximum = 0.0556667 (at node 12)
Accepted flit rate average= 0.0498958
	minimum = 0.0443333 (at node 11)
	maximum = 0.0553333 (at node 6)
Injected packet length average = 1
Accepted packet length average = 1
Total in-flight flits = 15 (15 measured)
latency change    = 0.00335832
throughput change = 0.00584551
Draining all recorded packets ...
Draining remaining packets ...
Time taken is 6055 cycles
Class 0:
Packet latency average = 19.9951
	minimum = 7
	maximum = 48
Network latency average = 19.9951
	minimum = 7
	maximum = 48
Slowest packet = 50607
Flit latency average = 19.9951
	minimum = 7
	maximum = 48
Slowest flit = 50607
Fragmentation average = 0
	minimum = 0
	maximum = 0
Injected packet rate average = 0.0516875
	minimum = 0.041 (at node 1)
	maximum = 0.065 (at node 4)
Accepted packet rate average = 0.0510625
	minimum = 0.04 (at node 13)
	maximum = 0.065 (at node 1)
Injected flit rate average = 0.0516875
	minimum = 0.041 (at node 1)
	maximum = 0.065 (at node 4)
Accepted flit rate average= 0.0510625
	minimum = 0.04 (at node 13)
	maximum = 0.065 (at node 1)
Injected packet length average = 1
Accepted packet length average = 1
Total in-flight flits = 10 (0 measured)
latency change    = 1
throughput change = 1
Class 0:
Packet latency average = 20.1625
	minimum = 7
	maximum = 48
Network latency average = 20.1625
	minimum = 7
	maximum = 48
Slowest packet = 50607
Flit latency average = 20.1625
	minimum = 7
	maximum = 48
Slowest flit = 50607
Fragmentation average = 0
	minimum = 0
	maximum = 0
Injected packet rate average = 0.0510938
	minimum = 0.043 (at node 2)
	maximum = 0.056 (at node 4)
Accepted packet rate average = 0.050375
	minimum = 0.0415 (at node 13)
	maximum = 0.061 (at node 1)
Injected flit rate average = 0.0510938
	minimum = 0.043 (at node 2)
	maximum = 0.056 (at node 4)
Accepted flit rate average= 0.050375
	minimum = 0.0415 (at node 13)
	maximum = 0.061 (at node 1)
Injected packet length average = 1
Accepted packet length average = 1
Total in-flight flits = 23 (0 measured)
latency change    = 0.00830387
throughput change = 0.0136476
Class 0:
Packet latency average = 20.2521
	minimum = 7
	maximum = 59
Network latency average = 20.2521
	minimum = 7
	maximum = 59
Slowest packet = 52051
Flit latency average = 20.2521
	minimum = 7
	maximum = 59
Slowest flit = 52051
Fragmentation average = 0
	minimum = 0
	maximum = 0
Injected packet rate average = 0.0448125
	minimum = 0.036 (at node 3)
	maximum = 0.053 (at node 5)
Accepted packet rate average = 0.045125
	minimum = 0.036 (at node 6)
	maximum = 0.063 (at node 2)
Injected flit rate average = 0.0448125
	minimum = 0.036 (at node 3)
	maximum = 0.053 (at node 5)
Accepted flit rate average= 0.045125
	minimum = 0.036 (at node 6)
	maximum = 0.063 (at node 2)
Injected packet length average = 1
Accepted packet length average = 1
Total in-flight flits = 18 (0 measured)
latency change    = 0.0044216
throughput change = 0.116343
Warmed up ...Time used is 3000 cycles
Class 0:
Packet latency average = 20.1121
	minimum = 7
	maximum = 42
Network latency average = 20.1121
	minimum = 7
	maximum = 42
Slowest packet = 52287
Flit latency average = 20.1961
	minimum = 7
	maximum = 42
Slowest flit = 52287
Fragmentation average = 0
	minimum = 0
	maximum = 0
Injected packet rate average = 0.051125
	minimum = 0.033 (at node 3)
	maximum = 0.067 (at node 9)
Accepted packet rate average = 0.0513125
	minimum = 0.037 (at node 4)
	maximum = 0.059 (at node 1)
Injected flit rate average = 0.051125
	minimum = 0.033 (at node 3)
	maximum = 0.067 (at node 9)
Accepted flit rate average= 0.0513125
	minimum = 0.037 (at node 4)
	maximum = 0.059 (at node 1)
Injected packet length average = 1
Accepted packet length average = 1
Total in-flight flits = 15 (15 measured)
latency change    = 0.00696088
throughput change = 0.120585
Class 0:
Packet latency average = 20.0854
	minimum = 7
	maximum = 50
Network latency average = 20.0854
	minimum = 7
	maximum = 50
Slowest packet = 53246
Flit latency average = 20.1282
	minimum = 7
	maximum = 50
Slowest flit = 53246
Fragmentation average = 0
	minimum = 0
	maximum = 0
Injected packet rate average = 0.0506875
	minimum = 0.041 (at node 3)
	maximum = 0.0615 (at node 6)
Accepted packet rate average = 0.0507187
	minimum = 0.0425 (at node 4)
	maximum = 0.0575 (at node 7)
Injected flit rate average = 0.0506875
	minimum = 0.041 (at node 3)
	maximum = 0.0615 (at node 6)
Accepted flit rate average= 0.0507187
	minimum = 0.0425 (at node 4)
	maximum = 0.0575 (at node 7)
Injected packet length average = 1
Accepted packet length average = 1
Total in-flight flits = 17 (17 measured)
latency change    = 0.00133039
throughput change = 0.0117067
Class 0:
Packet latency average = 19.9702
	minimum = 7
	maximum = 50
Network latency average = 19.9702
	minimum = 7
	maximum = 50
Slowest packet = 53246
Flit latency average = 19.9996
	minimum = 7
	maximum = 50
Slowest flit = 53246
Fragmentation average = 0
	minimum = 0
	maximum = 0
Injected packet rate average = 0.0507917
	minimum = 0.0436667 (at node 3)
	maximum = 0.0583333 (at node 6)
Accepted packet rate average = 0.0507708
	minimum = 0.041 (at node 0)
	maximum = 0.0556667 (at node 7)
Injected flit rate average = 0.0507917
	minimum = 0.0436667 (at node 3)
	maximum = 0.0583333 (at node 6)
Accepted flit rate average= 0.0507708
	minimum = 0.041 (at node 0)
	maximum = 0.0556667 (at node 7)
Injected packet length average = 1
Accepted packet length average = 1
Total in-flight flits = 19 (19 measured)
latency change    = 0.00576471
throughput change = 0.00102585
Class 0:
Packet latency average = 19.9771
	minimum = 7
	maximum = 50
Network latency average = 19.9771
	minimum = 7
	maximum = 50
Slowest packet = 53246
Flit latency average = 19.9991
	minimum = 7
	maximum = 50
Slowest flit = 53246
Fragmentation average = 0
	minimum = 0
	maximum = 0
Injected packet rate average = 0.0507187
	minimum = 0.045 (at node 2)
	maximum = 0.05675 (at node 6)
Accepted packet rate average = 0.0507969
	minimum = 0.04125 (at node 0)
	maximum = 0.05525 (at node 5)
Injected flit rate average = 0.0507187
	minimum = 0.045 (at node 2)
	maximum = 0.05675 (at node 6)
Accepted flit rate average= 0.0507969
	minimum = 0.04125 (at node 0)
	maximum = 0.05525 (at node 5)
Injected packet length average = 1
Accepted packet length average = 1
Total in-flight flits = 13 (13 measured)
latency change    = 0.000344164
throughput change = 0.000512663
Draining all recorded packets ...
Draining remaining packets ...
Time taken is 7047 cycles
Class 0:
Packet latency average = 20.1604
	minimum = 7
	maximum = 52
Network latency average = 20.1578
	minimum = 7
	maximum = 52
Slowest packet = 55704
Flit latency average = 20.1578
	minimum = 7
	maximum = 52
Slowest flit = 55704
Fragmentation average = 0
	minimum = 0
	maximum = 0
Injected packet rate average = 0.050875
	minimum = 0.035 (at node 12)
	maximum = 0.072 (at node 0)
Accepted packet rate average = 0.0495
	minimum = 0.036 (at node 0)
	maximum = 0.065 (at node 3)
Injected flit rate average = 0.050875
	minimum = 0.035 (at node 12)
	maximum = 0.072 (at node 0)
Accepted flit rate average= 0.0495
	minimum = 0.036 (at node 0)
	maximum = 0.065 (at node 3)
Injected packet length average = 1
Accepted packet length average = 1
Total in-flight flits = 22 (0 measured)
latency change    = 1
throughput change = 1
Class 0:
Packet latency average = 20.3051
	minimum = 7
	maximum = 52
Network latency average = 20.3039
	minimum = 7
	maximum = 52
Slowest packet = 55704
Flit latency average = 20.3039
	minimum = 7
	maximum = 52
Slowest flit = 55704
Fragmentation average = 0
	minimum = 0
	maximum = 0
Injected packet rate average = 0.05075
	minimum = 0.0405 (at node 15)
	maximum = 0.059 (at node 0)
Accepted packet rate average = 0.0501875
	minimum = 0.0415 (at node 13)
	maximum = 0.0635 (at node 3)
Injected flit rate average = 0.05075
	minimum = 0.0405 (at node 15)
	maximum = 0.059 (at node 0)
Accepted flit rate average= 0.0501875
	minimum = 0.0415 (at node 13)
	maximum = 0.0635 (at node 3)
Injected packet length average = 1
Accepted packet length average = 1
Total in-flight flits = 18 (0 measured)
latency change    = 0.00712886
throughput change = 0.0136986
Class 0:
Packet latency average = 19.8393
	minimum = 7
	maximum = 53
Network latency average = 19.8393
	minimum = 7
	maximum = 53
Slowest packet = 57466
Flit latency average = 19.8393
	minimum = 7
	maximum = 53
Slowest flit = 57466
Fragmentation average = 0
	minimum = 0
	maximum = 0
Injected packet rate average = 0.049
	minimum = 0.04 (at node 7)
	maximum = 0.065 (at node 10)
Accepted packet rate average = 0.049
	minimum = 0.04 (at node 10)
	maximum = 0.061 (at node 1)
Injected flit rate average = 0.049
	minimum = 0.04 (at node 7)
	maximum = 0.065 (at node 10)
Accepted flit rate average= 0.049
	minimum = 0.04 (at node 10)
	maximum = 0.061 (at node 1)
Injected packet length average = 1
Accepted packet length average = 1
Total in-flight flits = 18 (0 measured)
latency change    = 0.0234797
throughput change = 0.0242347
Warmed up ...Time used is 3000 cycles
Class 0:
Packet latency average = 19.7038
	minimum = 7
	maximum = 50
Network latency average = 19.7038
	minimum = 7
	maximum = 50
Slowest packet = 58207
Flit latency average = 19.7887
	minimum = 7
	maximum = 50
Slowest flit = 58207
Fragmentation average = 0
	minimum = 0
	maximum = 0
Injected packet rate average = 0.049125
	minimum = 0.036 (at node 2)
	maximum = 0.057 (at node 7)
Accepted packet rate average = 0.0488125
	minimum = 0.036 (at node 6)
	maximum = 0.07 (at node 0)
Injected flit rate average = 0.049125
	minimum = 0.036 (at node 2)
	maximum = 0.057 (at node 7)
Accepted flit rate average= 0.0488125
	minimum = 0.036 (at node 6)
	maximum = 0.07 (at node 0)
Injected packet length average = 1
Accepted packet length average = 1
Total in-flight flits = 23 (23 measured)
latency change    = 0.00687608
throughput change = 0.00384123
Class 0:
Packet latency average = 19.7172
	minimum = 7
	maximum = 50
Network latency average = 19.7172
	minimum = 7
	maximum = 50
Slowest packet = 58207
Flit latency average = 19.7586
	minimum = 7
	maximum = 50
Slowest flit = 58207
Fragmentation average = 0
	minimum = 0
	maximum = 0
Injected packet rate average = 0.0498437
	minimum = 0.042 (at node 2)
	maximum = 0.062 (at node 12)
Accepted packet rate average = 0.0498437
	minimum = 0.0425 (at node 1)
	maximum = 0.06 (at node 0)
Injected flit rate average = 0.0498437
	minimum = 0.042 (at node 2)
	maximum = 0.062 (at node 12)
Accepted flit rate average= 0.0498437
	minimum = 0.0425 (at node 1)
	maximum = 0.06 (at node 0)
Injected packet length average = 1
Accepted packet length average = 1
Total in-flight flits = 18 (18 measured)
latency change    = 0.000678786
throughput change = 0.0206897
Class 0:
Packet latency average = 19.8691
	minimum = 7
	maximum = 55
Network latency average = 19.8691
	minimum = 7
	maximum = 55
Slowest packet = 59745
Flit latency average = 19.8955
	minimum = 7
	maximum = 55
Slowest flit = 59745
Fragmentation average = 0
	minimum = 0
	maximum = 0
Injected packet rate average = 0.0499792
	minimum = 0.042 (at node 14)
	maximum = 0.058 (at node 12)
Accepted packet rate average = 0.0500208
	minimum = 0.0406667 (at node 1)
	maximum = 0.0573333 (at node 0)
Injected flit rate average = 0.0499792
	minimum = 0.042 (at node 14)
	maximum = 0.058 (at node 12)
Accepted flit rate average= 0.0500208
	minimum = 0.0406667 (at node 1)
	maximum = 0.0573333 (at node 0)
Injected packet length average = 1
Accepted packet length average = 1
Total in-flight flits = 16 (16 measured)
latency change    = 0.00764445
throughput change = 0.00354019
Draining all recorded packets ...
Draining remaining packets ...
Time taken is 6062 cycles
Class 0:
Packet latency average = 20.0636
	minimum = 7
	maximum = 44
Network latency average = 20.0636
	minimum = 7
	maximum = 44
Slowest packet = 60798
Flit latency average = 20.0636
	minimum = 7
	maximum = 44
Slowest flit = 60798
Fragmentation average = 0
	minimum = 0
	maximum = 0
Injected packet rate average = 0.0518125
	minimum = 0.036 (at node 8)
	maximum = 0.066 (at node 3)
Accepted packet rate average = 0.051125
	minimum = 0.039 (at node 4)
	maximum = 0.072 (at node 5)
Injected flit rate average = 0.0518125
	minimum = 0.036 (at node 8)
	maximum = 0.066 (at node 3)
Accepted flit rate average= 0.051125
	minimum = 0.039 (at node 4)
	maximum = 0.072 (at node 5)
Injected packet length average = 1
Accepted packet length average = 1
Total in-flight flits = 11 (0 measured)
latency change    = 1
throughput change = 1
Class 0:
Packet latency average = 19.8054
	minimum = 7
	maximum = 44
Network latency average = 19.8054
	minimum = 7
	maximum = 44
Slowest packet = 60798
Flit latency average = 19.8054
	minimum = 7
	maximum = 44
Slowest flit = 60798
Fragmentation average = 0
	minimum = 0
	maximum = 0
Injected packet rate average = 0.0490625
	minimum = 0.0335 (at node 8)
	maximum = 0.058 (at node 6)
Accepted packet rate average = 0.0486562
	minimum = 0.0395 (at node 4)
	maximum = 0.0565 (at node 5)
Injected flit rate average = 0.0490625
	minimum = 0.0335 (at node 8)
	maximum = 0.058 (at node 6)
Accepted flit rate average= 0.0486562
	minimum = 0.0395 (at node 4)
	maximum = 0.0565 (at node 5)
Injected packet length average = 1
Accepted packet length average = 1
Total in-flight flits = 13 (0 measured)
latency change    = 0.0130356
throughput change = 0.0507386
Class 0:
Packet latency average = 19.995
	minimum = 7
	maximum = 43
Network latency average = 19.995
	minimum = 7
	maximum = 43
Slowest packet = 62289
Flit latency average = 19.995
	minimum = 7
	maximum = 43
Slowest flit = 62289
Fragmentation average = 0
	minimum = 0
	maximum = 0
Injected packet rate average = 0.0506875
	minimum = 0.041 (at node 10)
	maximum = 0.059 (at node 4)
Accepted packet rate average = 0.0505
	minimum = 0.041 (at node 4)
	maximum = 0.061 (at node 13)
Injected flit rate average = 0.0506875
	minimum = 0.041 (at node 10)
	maximum = 0.059 (at node 4)
Accepted flit rate average= 0.0505
	minimum = 0.041 (at node 4)
	maximum = 0.061 (at node 13)
Injected packet length average = 1
Accepted packet length average = 1
Total in-flight flits = 16 (0 measured)
latency change    = 0.00948507
throughput change = 0.0365099
Warmed up ...Time used is 3000 cycles
Class 0:
Packet latency average = 19.8525
	minimum = 7
	maximum = 46
Network latency average = 19.8525
	minimum = 7
	maximum = 46
Slowest packet = 63038
Flit latency average = 19.9024
	minimum = 7
	maximum = 46
Slowest flit = 63038
Fragmentation average = 0
	minimum = 0
	maximum = 0
Injected packet rate average = 0.0531875
	minimum = 0.04 (at node 12)
	maximum = 0.072 (at node 8)
Accepted packet rate average = 0.053125
	minimum = 0.045 (at node 5)
	maximum = 0.067 (at node 7)
Injected flit rate average = 0.0531875
	minimum = 0.04 (at node 12)
	maximum = 0.072 (at node 8)
Accepted flit rate average= 0.053125
	minimum = 0.045 (at node 5)
	maximum = 0.067 (at node 7)
Injected packet length average = 1
Accepted packet length average = 1
Total in-flight flits = 17 (17 measured)
latency change    = 0.00717952
throughput change = 0.0494118
Class 0:
Packet latency average = 19.9699
	minimum = 7
	maximum = 46
Network latency average = 19.9699
	minimum = 7
	maximum = 46
Slowest packet = 63038
Flit latency average = 19.995
	minimum = 7
	maximum = 46
Slowest flit = 63038
Fragmentation average = 0
	minimum = 0
	maximum = 0
Injected packet rate average = 0.050375
	minimum = 0.0435 (at node 10)
	maximum = 0.061 (at node 8)
Accepted packet rate average = 0.0502812
	minimum = 0.043 (at node 4)
	maximum = 0.0565 (at node 2)
Injected flit rate average = 0.050375
	minimum = 0.0435 (at node 10)
	maximum = 0.061 (at node 8)
Accepted flit rate average= 0.0502812
	minimum = 0.043 (at node 4)
	maximum = 0.0565 (at node 2)
Injected packet length average = 1
Accepted packet length average = 1
Total in-flight flits = 19 (19 measured)
latency change    = 0.00587636
throughput change = 0.0565569
Class 0:
Packet latency average = 20.2447
	minimum = 7
	maximum = 58
Network latency average = 20.2447
	minimum = 7
	maximum = 58
Slowest packet = 64685
Flit latency average = 20.2596
	minimum = 7
	maximum = 58
Slowest flit = 64685
Fragmentation average = 0
	minimum = 0
	maximum = 0
Injected packet rate average = 0.0502292
	minimum = 0.043 (at node 10)
	maximum = 0.0573333 (at node 8)
Accepted packet rate average = 0.0502292
	minimum = 0.042 (at node 4)
	maximum = 0.057 (at node 15)
Injected flit rate average = 0.0502292
	minimum = 0.043 (at node 10)
	maximum = 0.0573333 (at node 8)
Accepted flit rate average= 0.0502292
	minimum = 0.042 (at node 4)
	maximum = 0.057 (at node 15)
Injected packet length average = 1
Accepted packet length average = 1
Total in-flight flits = 16 (16 measured)
latency change    = 0.0135743
throughput change = 0.00103691
Class 0:
Packet latency average = 20.2619
	minimum = 7
	maximum = 63
Network latency average = 20.2619
	minimum = 7
	maximum = 63
Slowest packet = 65102
Flit latency average = 20.273
	minimum = 7
	maximum = 63
Slowest flit = 65102
Fragmentation average = 0
	minimum = 0
	maximum = 0
Injected packet rate average = 0.0503437
	minimum = 0.04475 (at node 0)
	maximum = 0.05675 (at node 8)
Accepted packet rate average = 0.0503594
	minimum = 0.043 (at node 4)
	maximum = 0.054 (at node 7)
Injected flit rate average = 0.0503437
	minimum = 0.04475 (at node 0)
	maximum = 0.05675 (at node 8)
Accepted flit rate average= 0.0503594
	minimum = 0.043 (at node 4)
	maximum = 0.054 (at node 7)
Injected packet length average = 1
Accepted packet length average = 1
Total in-flight flits = 15 (15 measured)
latency change    = 0.000851381
throughput change = 0.00258558
Class 0:
Packet latency average = 20.223
	minimum = 7
	maximum = 63
Network latency average = 20.223
	minimum = 7
	maximum = 63
Slowest packet = 65102
Flit latency average = 20.2319
	minimum = 7
	maximum = 63
Slowest flit = 65102
Fragmentation average = 0
	minimum = 0
	maximum = 0
Injected packet rate average = 0.051225
	minimum = 0.0466 (at node 10)
	maximum = 0.0572 (at node 8)
Accepted packet rate average = 0.0512125
	minimum = 0.046 (at node 4)
	maximum = 0.0562 (at node 2)
Injected flit rate average = 0.051225
	minimum = 0.0466 (at node 10)
	maximum = 0.0572 (at node 8)
Accepted flit rate average= 0.0512125
	minimum = 0.046 (at node 4)
	maximum = 0.0562 (at node 2)
Injected packet length average = 1
Accepted packet length average = 1
Total in-flight flits = 17 (17 measured)
latency change    = 0.00192565
throughput change = 0.0166585
Draining all recorded packets ...
Draining remaining packets ...
Time taken is 8056 cycles
Class 0:
Packet latency average = 20.1755
	minimum = 7
	maximum = 46
Network latency average = 20.1755
	minimum = 7
	maximum = 46
Slowest packet = 67363
Flit latency average = 20.1755
	minimum = 7
	maximum = 46
Slowest flit = 67363
Fragmentation average = 0
	minimum = 0
	maximum = 0
Injected packet rate average = 0.0495
	minimum = 0.034 (at node 10)
	maximum = 0.059 (at node 15)
Accepted packet rate average = 0.0484375
	minimum = 0.032 (at node 10)
	maximum = 0.062 (at node 12)
Injected flit rate average = 0.0495
	minimum = 0.034 (at node 10)
	maximum = 0.059 (at node 15)
Accepted flit rate average= 0.0484375
	minimum = 0.032 (at node 10)
	maximum = 0.062 (at node 12)
Injected packet length average = 1
Accepted packet length average = 1
Total in-flight flits = 17 (0 measured)
latency change    = 1
throughput change = 1
Class 0:
Packet latency average = 20.5497
	minimum = 7
	maximum = 63
Network latency average = 20.5497
	minimum = 7
	maximum = 63
Slowest packet = 67835
Flit latency average = 20.5497
	minimum = 7
	maximum = 63
Slowest flit = 67835
Fragmentation average = 0
	minimum = 0
	maximum = 0
Injected packet rate average = 0.0509688
	minimum = 0.0415 (at node 10)
	maximum = 0.062 (at node 15)
Accepted packet rate average = 0.0503125
	minimum = 0.0365 (at node 10)
	maximum = 0.057 (at node 12)
Injected flit rate average = 0.0509688
	minimum = 0.0415 (at node 10)
	maximum = 0.062 (at node 15)
Accepted flit rate average= 0.0503125
	minimum = 0.0365 (at node 10)
	maximum = 0.057 (at node 12)
Injected packet length average = 1
Accepted packet length average = 1
Total in-flight flits = 21 (0 measured)
latency change    = 0.0182098
throughput change = 0.0372671
Class 0:
Packet latency average = 19.7952
	minimum = 7
	maximum = 46
Network latency average = 19.7952
	minimum = 7
	maximum = 46
Slowest packet = 68484
Flit latency average = 19.7952
	minimum = 7
	maximum = 46
Slowest flit = 68484
Fragmentation average = 0
	minimum = 0
	maximum = 0
Injected packet rate average = 0.0514375
	minimum = 0.037 (at node 11)
	maximum = 0.063 (at node 9)
Accepted packet rate average = 0.0515625
	minimum = 0.034 (at node 15)
	maximum = 0.069 (at node 13)
Injected flit rate average = 0.0514375
	minimum = 0.037 (at node 11)
	maximum = 0.063 (at node 9)
Accepted flit rate average= 0.0515625
	minimum = 0.034 (at node 15)
	maximum = 0.069 (at node 13)
Injected packet length average = 1
Accepted packet length average = 1
Total in-flight flits = 19 (0 measured)
latency change    = 0.0381173
throughput change = 0.0242424
Warmed up ...Time used is 3000 cycles
Class 0:
Packet latency average = 20.228
	minimum = 7
	maximum = 55
Network latency average = 20.228
	minimum = 7
	maximum = 55
Slowest packet = 69547
Flit latency average = 20.2962
	minimum = 7
	maximum = 55
Slowest flit = 69547
Fragmentation average = 0
	minimum = 0
	maximum = 0
Injected packet rate average = 0.053625
	minimum = 0.043 (at node 10)
	maximum = 0.064 (at node 4)
Accepted packet rate average = 0.0538125
	minimum = 0.04 (at node 9)
	maximum = 0.063 (at node 4)
Injected flit rate average = 0.053625
	minimum = 0.043 (at node 10)
	maximum = 0.064 (at node 4)
Accepted flit rate average= 0.0538125
	minimum = 0.04 (at node 9)
	maximum = 0.063 (at node 4)
Injected packet length average = 1
Accepted packet length average = 1
Total in-flight flits = 16 (16 measured)
latency change    = 0.0213999
throughput change = 0.0418118
Class 0:
Packet latency average = 20.0979
	minimum = 7
	maximum = 55
Network latency average = 20.0979
	minimum = 7
	maximum = 55
Slowest packet = 69547
Flit latency average = 20.1347
	minimum = 7
	maximum = 55
Slowest flit = 69547
Fragmentation average = 0
	minimum = 0
	maximum = 0
Injected packet rate average = 0.0519688
	minimum = 0.0395 (at node 10)
	maximum = 0.0665 (at node 6)
Accepted packet rate average = 0.0519688
	minimum = 0.043 (at node 8)
	maximum = 0.06 (at node 11)
Injected flit rate average = 0.0519688
	minimum = 0.0395 (at node 10)
	maximum = 0.0665 (at node 6)
Accepted flit rate average= 0.0519688
	minimum = 0.043 (at node 8)
	maximum = 0.06 (at node 11)
Injected packet length average = 1
Accepted packet length average = 1
Total in-flight flits = 19 (19 measured)
latency change    = 0.00647314
throughput change = 0.0354781
Class 0:
Packet latency average = 20.1909
	minimum = 7
	maximum = 55
Network latency average = 20.1909
	minimum = 7
	maximum = 55
Slowest packet = 69547
Flit latency average = 20.215
	minimum = 7
	maximum = 55
Slowest flit = 69547
Fragmentation average = 0
	minimum = 0
	maximum = 0
Injected packet rate average = 0.0513333
	minimum = 0.0436667 (at node 2)
	maximum = 0.0626667 (at node 6)
Accepted packet rate average = 0.0513542
	minimum = 0.0416667 (at node 2)
	maximum = 0.0613333 (at node 11)
Injected flit rate average = 0.0513333
	minimum = 0.0436667 (at node 2)
	maximum = 0.0626667 (at node 6)
Accepted flit rate average= 0.0513542
	minimum = 0.0416667 (at node 2)
	maximum = 0.0613333 (at node 11)
Injected packet length average = 1
Accepted packet length average = 1
Total in-flight flits = 18 (18 measured)
latency change    = 0.00460564
throughput change = 0.0119675
Draining all recorded packets ...
Draining remaining packets ...
Time taken is 6051 cycles
Class 0:
Packet latency average = 19.9691
	minimum = 7
	maximum = 44
Network latency average = 19.9691
	minimum = 7
	maximum = 44
Slowest packet = 71908
Flit latency average = 19.9691
	minimum = 7
	maximum = 44
Slowest flit = 71908
Fragmentation average = 0
	minimum = 0
	maximum = 0
Injected packet rate average = 0.049625
	minimum = 0.038 (at node 11)
	maximum = 0.058 (at node 4)
Accepted packet rate average = 0.0485625
	minimum = 0.037 (at node 11)
	maximum = 0.064 (at node 0)
Injected flit rate average = 0.049625
	minimum = 0.038 (at node 11)
	maximum = 0.058 (at node 4)
Accepted flit rate average= 0.0485625
	minimum = 0.037 (at node 11)
	maximum = 0.064 (at node 0)
Injected packet length average = 1
Accepted packet length average = 1
Total in-flight flits = 17 (0 measured)
latency change    = 1
throughput change = 1
Class 0:
Packet latency average = 20.099
	minimum = 7
	maximum = 46
Network latency average = 20.099
	minimum = 7
	maximum = 46
Slowest packet = 73071
Flit latency average = 20.099
	minimum = 7
	maximum = 46
Slowest flit = 73071
Fragmentation average = 0
	minimum = 0
	maximum = 0
Injected packet rate average = 0.048125
	minimum = 0.041 (at node 15)
	maximum = 0.06 (at node 8)
Accepted packet rate average = 0.0476875
	minimum = 0.037 (at node 11)
	maximum = 0.0605 (at node 0)
Injected flit rate average = 0.048125
	minimum = 0.041 (at node 15)
	maximum = 0.06 (at node 8)
Accepted flit rate average= 0.0476875
	minimum = 0.037 (at node 11)
	maximum = 0.0605 (at node 0)
Injected packet length average = 1
Accepted packet length average = 1
Total in-flight flits = 14 (0 measured)
latency change    = 0.00646002
throughput change = 0.0183486
Class 0:
Packet latency average = 20.1528
	minimum = 7
	maximum = 48
Network latency average = 20.1528
	minimum = 7
	maximum = 48
Slowest packet = 73425
Flit latency average = 20.1528
	minimum = 7
	maximum = 48
Slowest flit = 73425
Fragmentation average = 0
	minimum = 0
	maximum = 0
Injected packet rate average = 0.05075
	minimum = 0.037 (at node 15)
	maximum = 0.063 (at node 13)
Accepted packet rate average = 0.0503125
	minimum = 0.033 (at node 10)
	maximum = 0.063 (at node 3)
[...]
	minimum = 0.037 (at node 13)
	maximum = 0.063 (at node 11)
Accepted packet rate average = 0.048375
	minimum = 0.039 (at node 15)
	maximum = 0.062 (at node 7)
Injected flit rate average = 0.04875
	minimum = 0.037 (at node 13)
	maximum = 0.063 (at node 11)
Accepted flit rate average= 0.048375
	minimum = 0.039 (at node 15)
	maximum = 0.062 (at node 7)
Injected packet length average = 1
Accepted packet length average = 1
Total in-flight flits = 17 (0 measured)
latency change    = 0.00769165
throughput change = 0.0529716
Warmed up ...Time used is 3000 cycles
Class 0:
Packet latency average = 20.3977
	minimum = 7
	maximum = 44
Network latency average = 20.3977
	minimum = 7
	maximum = 44
Slowest packet = 496924
Flit latency average = 20.4528
	minimum = 7
	maximum = 44
Slowest flit = 496924
Fragmentation average = 0
	minimum = 0
	maximum = 0
Injected packet rate average = 0.04925
	minimum = 0.04 (at node 5)
	maximum = 0.064 (at node 4)
Accepted packet rate average = 0.049
	minimum = 0.035 (at node 10)
	maximum = 0.06 (at node 13)
Injected flit rate average = 0.04925
	minimum = 0.04 (at node 5)
	maximum = 0.064 (at node 4)
Accepted flit rate average= 0.049
	minimum = 0.035 (at node 10)
	maximum = 0.06 (at node 13)
Injected packet length average = 1
Accepted packet length average = 1
Total in-flight flits = 21 (21 measured)
latency change    = 0.0167714
throughput change = 0.0127551
Class 0:
Packet latency average = 20.3725
	minimum = 7
	maximum = 48
Network latency average = 20.3725
	minimum = 7
	maximum = 48
Slowest packet = 497452
Flit latency average = 20.3999
	minimum = 7
	maximum = 48
Slowest flit = 497452
Fragmentation average = 0
	minimum = 0
	maximum = 0
Injected packet rate average = 0.0497187
	minimum = 0.0435 (at node 0)
	maximum = 0.0545 (at node 15)
Accepted packet rate average = 0.0497812
	minimum = 0.039 (at node 10)
	maximum = 0.058 (at node 1)
Injected flit rate average = 0.0497187
	minimum = 0.0435 (at node 0)
	maximum = 0.0545 (at node 15)
Accepted flit rate average= 0.0497812
	minimum = 0.039 (at node 10)
	maximum = 0.058 (at node 1)
Injected packet length average = 1
Accepted packet length average = 1
Total in-flight flits = 15 (15 measured)
latency change    = 0.00123654
throughput change = 0.0156937
Class 0:
Packet latency average = 20.2974
	minimum = 7
	maximum = 48
Network latency average = 20.2974
	minimum = 7
	maximum = 48
Slowest packet = 497452
Flit latency average = 20.3161
	minimum = 7
	maximum = 48
Slowest flit = 497452
Fragmentation average = 0
	minimum = 0
	maximum = 0
Injected packet rate average = 0.0501458
	minimum = 0.044 (at node 9)
	maximum = 0.054 (at node 2)
Accepted packet rate average = 0.0500833
	minimum = 0.0433333 (at node 10)
	maximum = 0.0553333 (at node 0)
Injected flit rate average = 0.0501458
	minimum = 0.044 (at node 9)
	maximum = 0.054 (at node 2)
Accepted flit rate average= 0.0500833
	minimum = 0.0433333 (at node 10)
	maximum = 0.0553333 (at node 0)
Injected packet length average = 1
Accepted packet length average = 1
Total in-flight flits = 20 (20 measured)
latency change    = 0.00369591
throughput change = 0.00603161
Draining all recorded packets ...
Draining remaining packets ...
Time taken is 6059 cycles
Class 0:
Packet latency average = 19.8596
	minimum = 7
	maximum = 45
Network latency average = 19.8596
	minimum = 7
	maximum = 45
Slowest packet = 499064
Flit latency average = 19.8596
	minimum = 7
	maximum = 45
Slowest flit = 499064
Fragmentation average = 0
	minimum = 0
	maximum = 0
Injected packet rate average = 0.0518125
	minimum = 0.042 (at node 8)
	maximum = 0.055 (at node 11)
Accepted packet rate average = 0.05075
	minimum = 0.041 (at node 2)
	maximum = 0.067 (at node 6)
Injected flit rate average = 0.0518125
	minimum = 0.042 (at node 8)
	maximum = 0.055 (at node 11)
Accepted flit rate average= 0.05075
	minimum = 0.041 (at node 2)
	maximum = 0.067 (at node 6)
Injected packet length average = 1
Accepted packet length average = 1
Total in-flight flits = 17 (0 measured)
latency change    = 1
throughput change = 1
Class 0:
Packet latency average = 19.9552
	minimum = 7
	maximum = 45
Network latency average = 19.9552
	minimum = 7
	maximum = 45
Slowest packet = 499064
Flit latency average = 19.9552
	minimum = 7
	maximum = 45
Slowest flit = 499064
Fragmentation average = 0
	minimum = 0
	maximum = 0
Injected packet rate average = 0.0506875
	minimum = 0.0455 (at node 5)
	maximum = 0.054 (at node 7)
Accepted packet rate average = 0.05025
	minimum = 0.0425 (at node 8)
	maximum = 0.0635 (at node 6)
Injected flit rate average = 0.0506875
	minimum = 0.0455 (at node 5)
	maximum = 0.054 (at node 7)
Accepted flit rate average= 0.05025
	minimum = 0.0425 (at node 8)
	maximum = 0.0635 (at node 6)
Injected packet length average = 1
Accepted packet length average = 1
Total in-flight flits = 14 (0 measured)
latency change    = 0.00479163
throughput change = 0.00995025
Class 0:
Packet latency average = 20.8512
	minimum = 7
	maximum = 47
Network latency average = 20.8512
	minimum = 7
	maximum = 47
Slowest packet = 500905
Flit latency average = 20.8512
	minimum = 7
	maximum = 47
Slowest flit = 500905
Fragmentation average = 0
	minimum = 0
	maximum = 0
Injected packet rate average = 0.051
	minimum = 0.04 (at node 0)
	maximum = 0.06 (at node 3)
Accepted packet rate average = 0.05125
	minimum = 0.04 (at node 8)
	maximum = 0.061 (at node 3)
Injected flit rate average = 0.051
	minimum = 0.04 (at node 0)
	maximum = 0.06 (at node 3)
Accepted flit rate average= 0.05125
	minimum = 0.04 (at node 8)
	maximum = 0.061 (at node 3)
Injected packet length average = 1
Accepted packet length average = 1
Total in-flight flits = 10 (0 measured)
latency change    = 0.0429709
throughput change = 0.0195122
Warmed up ...Time used is 3000 cycles
Class 0:
Packet latency average = 19.9926
	minimum = 7
	maximum = 44
Network latency average = 19.9926
	minimum = 7
	maximum = 44
Slowest packet = 501915
Flit latency average = 20.0158
	minimum = 7
	maximum = 44
Slowest flit = 501915
Fragmentation average = 0
	minimum = 0
	maximum = 0
Injected packet rate average = 0.05175
	minimum = 0.042 (at node 12)
	maximum = 0.065 (at node 6)
Accepted packet rate average = 0.0514375
	minimum = 0.037 (at node 4)
	maximum = 0.061 (at node 13)
Injected flit rate average = 0.05175
	minimum = 0.042 (at node 12)
	maximum = 0.065 (at node 6)
Accepted flit rate average= 0.0514375
	minimum = 0.037 (at node 4)
	maximum = 0.061 (at node 13)
Injected packet length average = 1
Accepted packet length average = 1
Total in-flight flits = 15 (15 measured)
latency change    = 0.0429458
throughput change = 0.0036452
Class 0:
Packet latency average = 19.9944
	minimum = 7
	maximum = 44
Network latency average = 19.9944
	minimum = 7
	maximum = 44
Slowest packet = 501915
Flit latency average = 20.0062
	minimum = 7
	maximum = 44
Slowest flit = 501915
Fragmentation average = 0
	minimum = 0
	maximum = 0
Injected packet rate average = 0.0504375
	minimum = 0.0425 (at node 8)
	maximum = 0.058 (at node 13)
Accepted packet rate average = 0.0500937
	minimum = 0.0395 (at node 14)
	maximum = 0.058 (at node 1)
Injected flit rate average = 0.0504375
	minimum = 0.0425 (at node 8)
	maximum = 0.058 (at node 13)
Accepted flit rate average= 0.0500937
	minimum = 0.0395 (at node 14)
	maximum = 0.058 (at node 1)
Injected packet length average = 1
Accepted packet length average = 1
Total in-flight flits = 21 (21 measured)
latency change    = 8.65423e-05
throughput change = 0.0268247
Class 0:
Packet latency average = 20.1262
	minimum = 7
	maximum = 48
Network latency average = 20.1262
	minimum = 7
	maximum = 48
Slowest packet = 503214
Flit latency average = 20.1336
	minimum = 7
	maximum = 48
Slowest flit = 503214
Fragmentation average = 0
	minimum = 0
	maximum = 0
Injected packet rate average = 0.0503125
	minimum = 0.0436667 (at node 12)
	maximum = 0.055 (at node 15)
Accepted packet rate average = 0.0502292
	minimum = 0.0423333 (at node 14)
	maximum = 0.0583333 (at node 15)
Injected flit rate average = 0.0503125
	minimum = 0.0436667 (at node 12)
	maximum = 0.055 (at node 15)
Accepted flit rate average= 0.0502292
	minimum = 0.0423333 (at node 14)
	maximum = 0.0583333 (at node 15)
Injected packet length average = 1
Accepted packet length average = 1
Total in-flight flits = 14 (14 measured)
latency change    = 0.00655102
throughput change = 0.00269598
Draining all recorded packets ...
Draining remaining packets ...
Time taken is 6059 cycles
Class 0:
Packet latency average = 19.5798
	minimum = 7
	maximum = 49
Network latency average = 19.5798
	minimum = 7
	maximum = 49
Slowest packet = 503737
Flit latency average = 19.5798
	minimum = 7
	maximum = 49
Slowest flit = 503737
Fragmentation average = 0
	minimum = 0
	maximum = 0
Injected packet rate average = 0.045625
	minimum = 0.034 (at node 3)
	maximum = 0.062 (at node 5)
Accepted packet rate average = 0.044625
	minimum = 0.033 (at node 15)
	maximum = 0.057 (at node 1)
Injected flit rate average = 0.045625
	minimum = 0.034 (at node 3)
	maximum = 0.062 (at node 5)
Accepted flit rate average= 0.044625
	minimum = 0.033 (at node 15)
	maximum = 0.057 (at node 1)
Injected packet length average = 1
Accepted packet length average = 1
Total in-flight flits = 16 (0 measured)
latency change    = 1
throughput change = 1
Class 0:
Packet latency average = 19.6946
	minimum = 7
	maximum = 49
Network latency average = 19.6946
	minimum = 7
	maximum = 49
Slowest packet = 503737
Flit latency average = 19.6946
	minimum = 7
	maximum = 49
Slowest flit = 503737
Fragmentation average = 0
	minimum = 0
	maximum = 0
Injected packet rate average = 0.048375
	minimum = 0.042 (at node 1)
	maximum = 0.054 (at node 14)
Accepted packet rate average = 0.0476875
	minimum = 0.04 (at node 12)
	maximum = 0.0585 (at node 2)
Injected flit rate average = 0.048375
	minimum = 0.042 (at node 1)
	maximum = 0.054 (at node 14)
Accepted flit rate average= 0.0476875
	minimum = 0.04 (at node 12)
	maximum = 0.0585 (at node 2)
Injected packet length average = 1
Accepted packet length average = 1
Total in-flight flits = 22 (0 measured)
latency change    = 0.00582872
throughput change = 0.0642202
Class 0:
Packet latency average = 20.1311
	minimum = 7
	maximum = 52
Network latency average = 20.1311
	minimum = 7
	maximum = 52
Slowest packet = 505845
Flit latency average = 20.1311
	minimum = 7
	maximum = 52
Slowest flit = 505845
Fragmentation average = 0
	minimum = 0
	maximum = 0
Injected packet rate average = 0.0485625
	minimum = 0.032 (at node 4)
	maximum = 0.06 (at node 13)
Accepted packet rate average = 0.048625
	minimum = 0.028 (at node 4)
	maximum = 0.062 (at node 5)
Injected flit rate average = 0.0485625
	minimum = 0.032 (at node 4)
	maximum = 0.06 (at node 13)
Accepted flit rate average= 0.048625
	minimum = 0.028 (at node 4)
	maximum = 0.062 (at node 5)
Injected packet length average = 1
Accepted packet length average = 1
Total in-flight flits = 21 (0 measured)
latency change    = 0.0216818
throughput change = 0.0192802
Warmed up ...Time used is 3000 cycles
Class 0:
Packet latency average = 19.7661
	minimum = 7
	maximum = 44
Network latency average = 19.7661
	minimum = 7
	maximum = 44
Slowest packet = 506547
Flit latency average = 19.7711
	minimum = 7
	maximum = 44
Slowest flit = 506547
Fragmentation average = 0
	minimum = 0
	maximum = 0
Injected packet rate average = 0.04875
	minimum = 0.035 (at node 14)
	maximum = 0.063 (at node 3)
Accepted packet rate average = 0.048875
	minimum = 0.038 (at node 14)
	maximum = 0.061 (at node 2)
Injected flit rate average = 0.04875
	minimum = 0.035 (at node 14)
	maximum = 0.063 (at node 3)
Accepted flit rate average= 0.048875
	minimum = 0.038 (at node 14)
	maximum = 0.061 (at node 2)
Injected packet length average = 1
Accepted packet length average = 1
Total in-flight flits = 19 (19 measured)
latency change    = 0.0184664
throughput change = 0.00511509
Class 0:
Packet latency average = 20.0853
	minimum = 7
	maximum = 48
Network latency average = 20.0853
	minimum = 7
	maximum = 48
Slowest packet = 507107
Flit latency average = 20.0836
	minimum = 7
	maximum = 48
Slowest flit = 507107
Fragmentation average = 0
	minimum = 0
	maximum = 0
Injected packet rate average = 0.05
	minimum = 0.041 (at node 1)
	maximum = 0.063 (at node 3)
Accepted packet rate average = 0.0500937
	minimum = 0.045 (at node 12)
	maximum = 0.0565 (at node 4)
Injected flit rate average = 0.05
	minimum = 0.041 (at node 1)
	maximum = 0.063 (at node 3)
Accepted flit rate average= 0.0500937
	minimum = 0.045 (at node 12)
	maximum = 0.0565 (at node 4)
Injected packet length average = 1
Accepted packet length average = 1
Total in-flight flits = 18 (18 measured)
latency change    = 0.0158941
throughput change = 0.0243294
Class 0:
Packet latency average = 20.1494
	minimum = 7
	maximum = 53
Network latency average = 20.1494
	minimum = 7
	maximum = 53
Slowest packet = 507569
Flit latency average = 20.1477
	minimum = 7
	maximum = 53
Slowest flit = 507569
Fragmentation average = 0
	minimum = 0
	maximum = 0
Injected packet rate average = 0.0504583
	minimum = 0.045 (at node 14)
	maximum = 0.059 (at node 3)
Accepted packet rate average = 0.0505
	minimum = 0.045 (at node 8)
	maximum = 0.059 (at node 13)
Injected flit rate average = 0.0504583
	minimum = 0.045 (at node 14)
	maximum = 0.059 (at node 3)
Accepted flit rate average= 0.0505
	minimum = 0.045 (at node 8)
	maximum = 0.059 (at node 13)
Injected packet length average = 1
Accepted packet length average = 1
Total in-flight flits = 19 (19 measured)
latency change    = 0.00317933
throughput change = 0.00804455
Draining all recorded packets ...
Draining remaining packets ...
Time taken is 6069 cycles
Class 0:
Packet latency average = 19.6889
	minimum = 7
	maximum = 44
Network latency average = 19.6889
	minimum = 7
	maximum = 44
Slowest packet = 509096
Flit latency average = 19.6889
	minimum = 7
	maximum = 44
Slowest flit = 509096
Fragmentation average = 0
	minimum = 0
	maximum = 0
Injected packet rate average = 0.0494375
	minimum = 0.039 (at node 13)
	maximum = 0.061 (at node 3)
Accepted packet rate average = 0.048625
	minimum = 0.039 (at node 0)
	maximum = 0.063 (at node 1)
Injected flit rate average = 0.0494375
	minimum = 0.039 (at node 13)
	maximum = 0.061 (at node 3)
Accepted flit rate average= 0.048625
	minimum = 0.039 (at node 0)
	maximum = 0.063 (at node 1)
Injected packet length average = 1
Accepted packet length average = 1
Total in-flight flits = 13 (0 measured)
latency change    = 1
throughput change = 1
Class 0:
Packet latency average = 19.848
	minimum = 7
	maximum = 44
Network latency average = 19.848
	minimum = 7
	maximum = 44
Slowest packet = 509096
Flit latency average = 19.848
	minimum = 7
	maximum = 44
Slowest flit = 509096
Fragmentation average = 0
	minimum = 0
	maximum = 0
Injected packet rate average = 0.0487812
	minimum = 0.0395 (at node 13)
	maximum = 0.0575 (at node 3)
Accepted packet rate average = 0.0485312
	minimum = 0.04 (at node 6)
	maximum = 0.0615 (at node 9)
Injected flit rate average = 0.0487812
	minimum = 0.0395 (at node 13)
	maximum = 0.0575 (at node 3)
Accepted flit rate average= 0.0485312
	minimum = 0.04 (at node 6)
	maximum = 0.0615 (at node 9)
Injected packet length average = 1
Accepted packet length average = 1
Total in-flight flits = 8 (0 measured)
latency change    = 0.0080154
throughput change = 0.00193175
Class 0:
Packet latency average = 20.0077
	minimum = 7
	maximum = 44
Network latency average = 20.0077
	minimum = 7
	maximum = 44
Slowest packet = 510746
Flit latency average = 20.0077
	minimum = 7
	maximum = 44
Slowest flit = 510746
Fragmentation average = 0
	minimum = 0
	maximum = 0
Injected packet rate average = 0.0493125
	minimum = 0.036 (at node 13)
	maximum = 0.06 (at node 11)
Accepted packet rate average = 0.0486875
	minimum = 0.036 (at node 8)
	maximum = 0.06 (at node 4)
Injected flit rate average = 0.0493125
	minimum = 0.036 (at node 13)
	maximum = 0.06 (at node 11)
Accepted flit rate average= 0.0486875
	minimum = 0.036 (at node 8)
	maximum = 0.06 (at node 4)
Injected packet length average = 1
Accepted packet length average = 1
Total in-flight flits = 18 (0 measured)
latency change    = 0.00798023
throughput change = 0.00320924
Warmed up ...Time used is 3000 cycles
Class 0:
Packet latency average = 19.6538
	minimum = 7
	maximum = 42
Network latency average = 19.6538
	minimum = 7
	maximum = 42
Slowest packet = 511367
Flit latency average = 19.737
	minimum = 7
	maximum = 42
Slowest flit = 511367
Fragmentation average = 0
	minimum = 0
	maximum = 0
Injected packet rate average = 0.047875
	minimum = 0.039 (at node 12)
	maximum = 0.055 (at node 4)
Accepted packet rate average = 0.04825
	minimum = 0.036 (at node 8)
	maximum = 0.057 (at node 4)
Injected flit rate average = 0.047875
	minimum = 0.039 (at node 12)
	maximum = 0.055 (at node 4)
Accepted flit rate average= 0.04825
	minimum = 0.036 (at node 8)
	maximum = 0.057 (at node 4)
Injected packet length average = 1
Accepted packet length average = 1
Total in-flight flits = 12 (12 measured)
latency change    = 0.0180044
throughput change = 0.00906736
Class 0:
Packet latency average = 19.9204
	minimum = 7
	maximum = 43
Network latency average = 19.9197
	minimum = 7
	maximum = 43
Slowest packet = 511722
Flit latency average = 19.9566
	minimum = 7
	maximum = 43
Slowest flit = 511722
Fragmentation average = 0
	minimum = 0
	maximum = 0
Injected packet rate average = 0.0501875
	minimum = 0.043 (at node 0)
	maximum = 0.0575 (at node 8)
Accepted packet rate average = 0.0504062
	minimum = 0.0445 (at node 8)
	maximum = 0.06 (at node 5)
Injected flit rate average = 0.0501875
	minimum = 0.043 (at node 0)
	maximum = 0.0575 (at node 8)
Accepted flit rate average= 0.0504062
	minimum = 0.0445 (at node 8)
	maximum = 0.06 (at node 5)
Injected packet length average = 1
Accepted packet length average = 1
Total in-flight flits = 11 (11 measured)
latency change    = 0.0133798
throughput change = 0.0427774
Class 0:
Packet latency average = 19.948
	minimum = 7
	maximum = 43
Network latency average = 19.9475
	minimum = 7
	maximum = 43
Slowest packet = 511722
Flit latency average = 19.9723
	minimum = 7
	maximum = 43
Slowest flit = 511722
Fragmentation average = 0
	minimum = 0
	maximum = 0
Injected packet rate average = 0.0495833
	minimum = 0.0433333 (at node 14)
	maximum = 0.0573333 (at node 8)
Accepted packet rate average = 0.049625
	minimum = 0.046 (at node 6)
	maximum = 0.055 (at node 15)
Injected flit rate average = 0.0495833
	minimum = 0.0433333 (at node 14)
	maximum = 0.0573333 (at node 8)
Accepted flit rate average= 0.049625
	minimum = 0.046 (at node 6)
	maximum = 0.055 (at node 15)
Injected packet length average = 1
Accepted packet length average = 1
Total in-flight flits = 16 (16 measured)
latency change    = 0.00138327
throughput change = 0.0157431
Draining all recorded packets ...
Draining remaining packets ...
Time taken is 6051 cycles
====== Overall Traffic Statistics ======
====== Traffic class 0 ======
Packet latency average = 20.1655 (100 samples)
	minimum = 7 (100 samples)
	maximum = 51.8 (100 samples)
Network latency average = 20.1654 (100 samples)
	minimum = 7 (100 samples)
	maximum = 51.8 (100 samples)
Flit latency average = 20.1806 (100 samples)
	minimum = 7 (100 samples)
	maximum = 51.87 (100 samples)
Fragmentation average = 0 (100 samples)
	minimum = 0 (100 samples)
	maximum = 0 (100 samples)
Injected packet rate average = 0.049984 (100 samples)
	minimum = 0.043606 (100 samples)
	maximum = 0.0567465 (100 samples)
Accepted packet rate average = 0.0499759 (100 samples)
	minimum = 0.0430143 (100 samples)
	maximum = 0.0567212 (100 samples)
Injected flit rate average = 0.049984 (100 samples)
	minimum = 0.043606 (100 samples)
	maximum = 0.0567465 (100 samples)
Accepted flit rate average = 0.0499759 (100 samples)
	minimum = 0.0430143 (100 samples)
	maximum = 0.0567212 (100 samples)
Injected packet size average = 1 (100 samples)
Accepted packet size average = 1 (100 samples)
Hops average = 3.49624 (100 samples)
Total run time 6.57095
