BEGIN Configuration File: /tmp/bs2_new_Dp9O.cfg
topology = mesh;
k = 4;
n = 2;
routing_function = gnn_port_score_route_4x4_v4;
num_vcs = 4;
vc_buf_size = 4;
wait_for_tail_credit = 1;
vc_allocator = islip;
sw_allocator = islip;
alloc_iters = 1;
credit_delay = 2;
routing_delay = 1;
vc_alloc_delay = 1;
sw_alloc_delay = 1;
input_speedup = 2;
output_speedup = 1;
internal_speedup = 1.0;
traffic = uniform;
packet_size = 1;
sim_type = latency;
injection_rate = 0.05;
warmup_periods = 3;
sample_period = 1000;
sim_count = 100;
link_failures = 7;
fail_seed = 0;
seed = 0;

END Configuration File: /tmp/bs2_new_Dp9O.cfg
failure at node 4, channel 2 (1/7)
failure at node 10, channel 1 (2/7)
failure at node 3, channel 1 (3/7)
failure at node 9, channel 0 (4/7)
failure at node 8, channel 2 (5/7)
failure at node 14, channel 3 (6/7)
failure at node 10, channel 3 (7/7)
Class 0:
Packet latency average = 19.8975
	minimum = 7
	maximum = 47
Network latency average = 19.8975
	minimum = 7
	maximum = 47
Slowest packet = 254
Flit latency average = 19.8975
	minimum = 7
	maximum = 47
Slowest flit = 254
Fragmentation average = 0
	minimum = 0
	maximum = 0
Injected packet rate average = 0.048875
	minimum = 0.041 (at node 5)
	maximum = 0.054 (at node 1)
Accepted packet rate average = 0.0481875
	minimum = 0.038 (at node 11)
	maximum = 0.054 (at node 0)
Injected flit rate average = 0.048875
	minimum = 0.041 (at node 5)
	maximum = 0.054 (at node 1)
Accepted flit rate average= 0.0481875
	minimum = 0.038 (at node 11)
	maximum = 0.054 (at node 0)
Injected packet length average = 1
Accepted packet length average = 1
Total in-flight flits = 11 (0 measured)
latency change    = 1
throughput change = 1
Class 0:
Packet latency average = 20.084
	minimum = 7
	maximum = 53
Network latency average = 20.084
	minimum = 7
	maximum = 53
Slowest packet = 978
Flit latency average = 20.084
	minimum = 7
	maximum = 53
Slowest flit = 978
Fragmentation average = 0
	minimum = 0
	maximum = 0
Injected packet rate average = 0.049125
	minimum = 0.0395 (at node 8)
	maximum = 0.057 (at node 12)
Accepted packet rate average = 0.04875
	minimum = 0.0415 (at node 14)
	maximum = 0.055 (at node 12)
Injected flit rate average = 0.049125
	minimum = 0.0395 (at node 8)
	maximum = 0.057 (at node 12)
Accepted flit rate average= 0.04875
	minimum = 0.0415 (at node 14)
	maximum = 0.055 (at node 12)
Injected packet length average = 1
Accepted packet length average = 1
Total in-flight flits = 12 (0 measured)
latency change    = 0.00928296
throughput change = 0.0115385
Class 0:
Packet latency average = 20.1685
	minimum = 7
	maximum = 46
Network latency average = 20.1685
	minimum = 7
	maximum = 46
Slowest packet = 1733
Flit latency average = 20.1685
	minimum = 7
	maximum = 46
Slowest flit = 1733
Fragmentation average = 0
	minimum = 0
	maximum = 0
Injected packet rate average = 0.0518125
	minimum = 0.045 (at node 4)
	maximum = 0.059 (at node 1)
Accepted packet rate average = 0.0511875
	minimum = 0.041 (at node 4)
	maximum = 0.062 (at node 15)
Injected flit rate average = 0.0518125
	minimum = 0.045 (at node 4)
	maximum = 0.059 (at node 1)
Accepted flit rate average= 0.0511875
	minimum = 0.041 (at node 4)
	maximum = 0.062 (at node 15)
Injected packet length average = 1
Accepted packet length average = 1
Total in-flight flits = 22 (0 measured)
latency change    = 0.00419088
throughput change = 0.047619
Warmed up ...Time used is 3000 cycles
Class 0:
Packet latency average = 20.3623
	minimum = 7
	maximum = 51
Network latency average = 20.3623
	minimum = 7
	maximum = 51
Slowest packet = 3088
Flit latency average = 20.4779
	minimum = 7
	maximum = 51
Slowest flit = 3088
Fragmentation average = 0
	minimum = 0
	maximum = 0
Injected packet rate average = 0.0480625
	minimum = 0.035 (at node 0)
	maximum = 0.057 (at node 9)
Accepted packet rate average = 0.048125
	minimum = 0.037 (at node 15)
	maximum = 0.06 (at node 6)
Injected flit rate average = 0.0480625
	minimum = 0.035 (at node 0)
	maximum = 0.057 (at node 9)
Accepted flit rate average= 0.048125
	minimum = 0.037 (at node 15)
	maximum = 0.06 (at node 6)
Injected packet length average = 1
Accepted packet length average = 1
Total in-flight flits = 21 (21 measured)
latency change    = 0.00951765
throughput change = 0.0636364
Class 0:
Packet latency average = 20.175
	minimum = 7
	maximum = 51
Network latency average = 20.175
	minimum = 7
	maximum = 51
Slowest packet = 3088
Flit latency average = 20.2357
	minimum = 7
	maximum = 51
Slowest flit = 3088
Fragmentation average = 0
	minimum = 0
	maximum = 0
Injected packet rate average = 0.0476875
	minimum = 0.0365 (at node 0)
	maximum = 0.0575 (at node 9)
Accepted packet rate average = 0.048
	minimum = 0.039 (at node 15)
	maximum = 0.061 (at node 6)
Injected flit rate average = 0.0476875
	minimum = 0.0365 (at node 0)
	maximum = 0.0575 (at node 9)
Accepted flit rate average= 0.048
	minimum = 0.039 (at node 15)
	maximum = 0.061 (at node 6)
Injected packet length average = 1
Accepted packet length average = 1
Total in-flight flits = 12 (12 measured)
latency change    = 0.00928209
throughput change = 0.00260417
Class 0:
Packet latency average = 20.3114
	minimum = 7
	maximum = 51
Network latency average = 20.3114
	minimum = 7
	maximum = 51
Slowest packet = 3088
Flit latency average = 20.3503
	minimum = 7
	maximum = 51
Slowest flit = 3088
Fragmentation average = 0
	minimum = 0
	maximum = 0
Injected packet rate average = 0.0481667
	minimum = 0.041 (at node 0)
	maximum = 0.057 (at node 15)
Accepted packet rate average = 0.0483542
	minimum = 0.0413333 (at node 4)
	maximum = 0.0573333 (at node 6)
Injected flit rate average = 0.0481667
	minimum = 0.041 (at node 0)
	maximum = 0.057 (at node 15)
Accepted flit rate average= 0.0483542
	minimum = 0.0413333 (at node 4)
	maximum = 0.0573333 (at node 6)
Injected packet length average = 1
Accepted packet length average = 1
Total in-flight flits = 13 (13 measured)
latency change    = 0.00671576
throughput change = 0.00732443
Class 0:
Packet latency average = 20.2984
	minimum = 7
	maximum = 51
Network latency average = 20.2984
	minimum = 7
	maximum = 51
Slowest packet = 3088
Flit latency average = 20.3273
	minimum = 7
	maximum = 51
Slowest flit = 3088
Fragmentation average = 0
	minimum = 0
	maximum = 0
Injected packet rate average = 0.0488906
	minimum = 0.04275 (at node 0)
	maximum = 0.054 (at node 15)
Accepted packet rate average = 0.0489844
	minimum = 0.04275 (at node 4)
	maximum = 0.0535 (at node 7)
Injected flit rate average = 0.0488906
	minimum = 0.04275 (at node 0)
	maximum = 0.054 (at node 15)
Accepted flit rate average= 0.0489844
	minimum = 0.04275 (at node 4)
	maximum = 0.0535 (at node 7)
Injected packet length average = 1
Accepted packet length average = 1
Total in-flight flits = 16 (16 measured)
latency change    = 0.000641124
throughput change = 0.0128655
Draining all recorded packets ...
Draining remaining packets ...
Time taken is 7061 cycles
Class 0:
Packet latency average = 19.8559
	minimum = 7
	maximum = 43
Network latency average = 19.8559
	minimum = 7
	maximum = 43
Slowest packet = 5648
Flit latency average = 19.8559
	minimum = 7
	maximum = 43
Slowest flit = 5648
Fragmentation average = 0
	minimum = 0
	maximum = 0
Injected packet rate average = 0.0503125
	minimum = 0.04 (at node 12)
	maximum = 0.06 (at node 6)
Accepted packet rate average = 0.049
	minimum = 0.034 (at node 13)
	maximum = 0.061 (at node 8)
Injected flit rate average = 0.0503125
	minimum = 0.04 (at node 12)
	maximum = 0.06 (at node 6)
Accepted flit rate average= 0.049
	minimum = 0.034 (at node 13)
	maximum = 0.061 (at node 8)
Injected packet length average = 1
Accepted packet length average = 1
Total in-flight flits = 21 (0 measured)
latency change    = 1
throughput change = 1
Class 0:
Packet latency average = 20.0903
	minimum = 7
	maximum = 52
Network latency average = 20.0903
	minimum = 7
	maximum = 52
Slowest packet = 6352
Flit latency average = 20.0903
	minimum = 7
	maximum = 52
Slowest flit = 6352
Fragmentation average = 0
	minimum = 0
	maximum = 0
Injected packet rate average = 0.051125
	minimum = 0.045 (at node 7)
	maximum = 0.0625 (at node 6)
Accepted packet rate average = 0.0505
	minimum = 0.0425 (at node 14)
	maximum = 0.063 (at node 8)
Injected flit rate average = 0.051125
	minimum = 0.045 (at node 7)
	maximum = 0.0625 (at node 6)
Accepted flit rate average= 0.0505
	minimum = 0.0425 (at node 14)
	maximum = 0.063 (at node 8)
Injected packet length average = 1
Accepted packet length average = 1
Total in-flight flits = 20 (0 measured)
latency change    = 0.0116712
throughput change = 0.029703
Class 0:
Packet latency average = 20.1325
	minimum = 7
	maximum = 47
Network latency average = 20.1325
	minimum = 7
	maximum = 47
Slowest packet = 7172
Flit latency average = 20.1325
	minimum = 7
	maximum = 47
Slowest flit = 7172
Fragmentation average = 0
	minimum = 0
	maximum = 0
Injected packet rate average = 0.0464375
	minimum = 0.035 (at node 4)
	maximum = 0.057 (at node 10)
Accepted packet rate average = 0.0466875
	minimum = 0.033 (at node 5)
	maximum = 0.059 (at node 12)
Injected flit rate average = 0.0464375
	minimum = 0.035 (at node 4)
	maximum = 0.057 (at node 10)
Accepted flit rate average= 0.0466875
	minimum = 0.033 (at node 5)
	maximum = 0.059 (at node 12)
Injected packet length average = 1
Accepted packet length average = 1
Total in-flight flits = 16 (0 measured)
latency change    = 0.00209529
throughput change = 0.08166
Warmed up ...Time used is 3000 cycles
Class 0:
Packet latency average = 19.3641
	minimum = 7
	maximum = 49
Network latency average = 19.3641
	minimum = 7
	maximum = 49
Slowest packet = 7991
Flit latency average = 19.4449
	minimum = 7
	maximum = 49
Slowest flit = 7991
Fragmentation average = 0
	minimum = 0
	maximum = 0
Injected packet rate average = 0.050125
	minimum = 0.039 (at node 2)
	maximum = 0.059 (at node 11)
Accepted packet rate average = 0.0504375
	minimum = 0.036 (at node 4)
	maximum = 0.06 (at node 0)
Injected flit rate average = 0.050125
	minimum = 0.039 (at node 2)
	maximum = 0.059 (at node 11)
Accepted flit rate average= 0.0504375
	minimum = 0.036 (at node 4)
	maximum = 0.06 (at node 0)
Injected packet length average = 1
Accepted packet length average = 1
Total in-flight flits = 11 (11 measured)
latency change    = 0.0396834
throughput change = 0.0743494
Class 0:
Packet latency average = 20.0783
	minimum = 7
	maximum = 59
Network latency average = 20.0783
	minimum = 7
	maximum = 59
Slowest packet = 9441
Flit latency average = 20.1114
	minimum = 7
	maximum = 59
Slowest flit = 9441
Fragmentation average = 0
	minimum = 0
	maximum = 0
Injected packet rate average = 0.0509375
	minimum = 0.042 (at node 3)
	maximum = 0.063 (at node 12)
Accepted packet rate average = 0.0507812
	minimum = 0.0425 (at node 4)
	maximum = 0.061 (at node 0)
Injected flit rate average = 0.0509375
	minimum = 0.042 (at node 3)
	maximum = 0.063 (at node 12)
Accepted flit rate average= 0.0507812
	minimum = 0.0425 (at node 4)
	maximum = 0.061 (at node 0)
Injected packet length average = 1
Accepted packet length average = 1
Total in-flight flits = 21 (21 measured)
latency change    = 0.0355714
throughput change = 0.00676923
Class 0:
Packet latency average = 20.1037
	minimum = 7
	maximum = 59
Network latency average = 20.1037
	minimum = 7
	maximum = 59
Slowest packet = 9441
Flit latency average = 20.1254
	minimum = 7
	maximum = 59
Slowest flit = 9441
Fragmentation average = 0
	minimum = 0
	maximum = 0
Injected packet rate average = 0.0513125
	minimum = 0.0443333 (at node 14)
	maximum = 0.058 (at node 0)
Accepted packet rate average = 0.0513542
	minimum = 0.045 (at node 4)
	maximum = 0.0573333 (at node 0)
Injected flit rate average = 0.0513125
	minimum = 0.0443333 (at node 14)
	maximum = 0.058 (at node 0)
Accepted flit rate average= 0.0513542
	minimum = 0.045 (at node 4)
	maximum = 0.0573333 (at node 0)
Injected packet length average = 1
Accepted packet length average = 1
Total in-flight flits = 14 (14 measured)
latency change    = 0.00126376
throughput change = 0.0111562
Class 0:
Packet latency average = 20.0581
	minimum = 7
	maximum = 59
Network latency average = 20.0581
	minimum = 7
	maximum = 59
Slowest packet = 9441
Flit latency average = 20.0744
	minimum = 7
	maximum = 59
Slowest flit = 9441
Fragmentation average = 0
	minimum = 0
	maximum = 0
Injected packet rate average = 0.0519063
	minimum = 0.04575 (at node 1)
	maximum = 0.05925 (at node 12)
Accepted packet rate average = 0.051875
	minimum = 0.04575 (at node 9)
	maximum = 0.056 (at node 3)
Injected flit rate average = 0.0519063
	minimum = 0.04575 (at node 1)
	maximum = 0.05925 (at node 12)
Accepted flit rate average= 0.051875
	minimum = 0.04575 (at node 9)
	maximum = 0.056 (at node 3)
Injected packet length average = 1
Accepted packet length average = 1
Total in-flight flits = 18 (18 measured)
latency change    = 0.00227361
throughput change = 0.0100402
Draining all recorded packets ...
Draining remaining packets ...
Time taken is 7050 cycles
Class 0:
Packet latency average = 20.0794
	minimum = 7
	maximum = 54
Network latency average = 20.0794
	minimum = 7
	maximum = 54
Slowest packet = 11365
Flit latency average = 20.0794
	minimum = 7
	maximum = 54
Slowest flit = 11365
Fragmentation average = 0
	minimum = 0
	maximum = 0
Injected packet rate average = 0.0488125
	minimum = 0.036 (at node 6)
	maximum = 0.064 (at node 2)
Accepted packet rate average = 0.048
	minimum = 0.03 (at node 7)
	maximum = 0.06 (at node 6)
Injected flit rate average = 0.0488125
	minimum = 0.036 (at node 6)
	maximum = 0.064 (at node 2)
Accepted flit rate average= 0.048
	minimum = 0.03 (at node 7)
	maximum = 0.06 (at node 6)
Injected packet length average = 1
Accepted packet length average = 1
Total in-flight flits = 13 (0 measured)
latency change    = 1
throughput change = 1
Class 0:
Packet latency average = 19.9519
	minimum = 7
	maximum = 54
Network latency average = 19.9519
	minimum = 7
	maximum = 54
Slowest packet = 11365
Flit latency average = 19.9519
	minimum = 7
	maximum = 54
Slowest flit = 11365
Fragmentation average = 0
	minimum = 0
	maximum = 0
Injected packet rate average = 0.0492812
	minimum = 0.04 (at node 0)
	maximum = 0.057 (at node 10)
Accepted packet rate average = 0.0487187
	minimum = 0.034 (at node 4)
	maximum = 0.0635 (at node 9)
Injected flit rate average = 0.0492812
	minimum = 0.04 (at node 0)
	maximum = 0.057 (at node 10)
Accepted flit rate average= 0.0487187
	minimum = 0.034 (at node 4)
	maximum = 0.0635 (at node 9)
Injected packet length average = 1
Accepted packet length average = 1
Total in-flight flits = 18 (0 measured)
latency change    = 0.00639212
throughput change = 0.014753
Class 0:
Packet latency average = 19.67
	minimum = 7
	maximum = 42
Network latency average = 19.67
	minimum = 7
	maximum = 42
Slowest packet = 13545
Flit latency average = 19.67
	minimum = 7
	maximum = 42
Slowest flit = 13545
Fragmentation average = 0
	minimum = 0
	maximum = 0
Injected packet rate average = 0.0493125
	minimum = 0.04 (at node 2)
	maximum = 0.06 (at node 5)
Accepted packet rate average = 0.0494375
	minimum = 0.035 (at node 15)
	maximum = 0.062 (at node 10)
Injected flit rate average = 0.0493125
	minimum = 0.04 (at node 2)
	maximum = 0.06 (at node 5)
Accepted flit rate average= 0.0494375
	minimum = 0.035 (at node 15)
	maximum = 0.062 (at node 10)
Injected packet length average = 1
Accepted packet length average = 1
Total in-flight flits = 16 (0 measured)
latency change    = 0.0143291
throughput change = 0.0145386
Warmed up ...Time used is 3000 cycles
Class 0:
Packet latency average = 20.1617
	minimum = 7
	maximum = 45
Network latency average = 20.1617
	minimum = 7
	maximum = 45
Slowest packet = 13958
Flit latency average = 20.124
	minimum = 7
	maximum = 45
Slowest flit = 13958
Fragmentation average = 0
	minimum = 0
	maximum = 0
Injected packet rate average = 0.047625
	minimum = 0.039 (at node 15)
	maximum = 0.062 (at node 12)
Accepted packet rate average = 0.047375
	minimum = 0.03 (at node 14)
	maximum = 0.063 (at node 13)
Injected flit rate average = 0.047625
	minimum = 0.039 (at node 15)
	maximum = 0.062 (at node 12)
Accepted flit rate average= 0.047375
	minimum = 0.03 (at node 14)
	maximum = 0.063 (at node 13)
Injected packet length average = 1
Accepted packet length average = 1
Total in-flight flits = 20 (20 measured)
latency change    = 0.0243872
throughput change = 0.0435356
Class 0:
Packet latency average = 20.3215
	minimum = 7
	maximum = 45
Network latency average = 20.3215
	minimum = 7
	maximum = 45
Slowest packet = 13958
Flit latency average = 20.302
	minimum = 7
	maximum = 45
Slowest flit = 13958
Fragmentation average = 0
	minimum = 0
	maximum = 0
Injected packet rate average = 0.0500312
	minimum = 0.043 (at node 5)
	maximum = 0.0585 (at node 12)
Accepted packet rate average = 0.049875
	minimum = 0.038 (at node 14)
	maximum = 0.06 (at node 13)
Injected flit rate average = 0.0500312
	minimum = 0.043 (at node 5)
	maximum = 0.0585 (at node 12)
Accepted flit rate average= 0.049875
	minimum = 0.038 (at node 14)
	maximum = 0.06 (at node 13)
Injected packet length average = 1
Accepted packet length average = 1
Total in-flight flits = 21 (21 measured)
latency change    = 0.00786329
throughput change = 0.0501253
Class 0:
Packet latency average = 20.2714
	minimum = 7
	maximum = 45
Network latency average = 20.2714
	minimum = 7
	maximum = 45
Slowest packet = 13958
Flit latency average = 20.2587
	minimum = 7
	maximum = 45
Slowest flit = 13958
Fragmentation average = 0
	minimum = 0
	maximum = 0
Injected packet rate average = 0.0501042
	minimum = 0.044 (at node 15)
	maximum = 0.057 (at node 7)
Accepted packet rate average = 0.0500833
	minimum = 0.0433333 (at node 14)
	maximum = 0.059 (at node 13)
Injected flit rate average = 0.0501042
	minimum = 0.044 (at node 15)
	maximum = 0.057 (at node 7)
Accepted flit rate average= 0.0500833
	minimum = 0.0433333 (at node 14)
	maximum = 0.059 (at node 13)
Injected packet length average = 1
Accepted packet length average = 1
Total in-flight flits = 17 (17 measured)
latency change    = 0.00247454
throughput change = 0.00415973
Class 0:
Packet latency average = 20.3833
	minimum = 7
	maximum = 54
Network latency average = 20.3833
	minimum = 7
	maximum = 54
Slowest packet = 16362
Flit latency average = 20.3734
	minimum = 7
	maximum = 54
Slowest flit = 16362
Fragmentation average = 0
	minimum = 0
	maximum = 0
Injected packet rate average = 0.0507656
	minimum = 0.0425 (at node 5)
	maximum = 0.058 (at node 7)
Accepted packet rate average = 0.0507187
	minimum = 0.0455 (at node 14)
	maximum = 0.057 (at node 13)
Injected flit rate average = 0.0507656
	minimum = 0.0425 (at node 5)
	maximum = 0.058 (at node 7)
Accepted flit rate average= 0.0507187
	minimum = 0.0455 (at node 14)
	maximum = 0.057 (at node 13)
Injected packet length average = 1
Accepted packet length average = 1
Total in-flight flits = 19 (19 measured)
latency change    = 0.00549102
throughput change = 0.0125282
Class 0:
Packet latency average = 20.3656
	minimum = 7
	maximum = 60
Network latency average = 20.3656
	minimum = 7
	maximum = 60
Slowest packet = 17546
Flit latency average = 20.3578
	minimum = 7
	maximum = 60
Slowest flit = 17546
Fragmentation average = 0
	minimum = 0
	maximum = 0
Injected packet rate average = 0.0509
	minimum = 0.045 (at node 15)
	maximum = 0.0562 (at node 7)
Accepted packet rate average = 0.0509
	minimum = 0.0452 (at node 9)
	maximum = 0.057 (at node 12)
Injected flit rate average = 0.0509
	minimum = 0.045 (at node 15)
	maximum = 0.0562 (at node 7)
Accepted flit rate average= 0.0509
	minimum = 0.0452 (at node 9)
	maximum = 0.057 (at node 12)
Injected packet length average = 1
Accepted packet length average = 1
Total in-flight flits = 16 (16 measured)
latency change    = 0.000866684
throughput change = 0.0035609
Draining all recorded packets ...
Draining remaining packets ...
Time taken is 8071 cycles
Class 0:
Packet latency average = 20.4974
	minimum = 7
	maximum = 49
Network latency average = 20.4974
	minimum = 7
	maximum = 49
Slowest packet = 18355
Flit latency average = 20.4974
	minimum = 7
	maximum = 49
Slowest flit = 18355
Fragmentation average = 0
	minimum = 0
	maximum = 0
Injected packet rate average = 0.0496875
	minimum = 0.034 (at node 1)
	maximum = 0.065 (at node 0)
Accepted packet rate average = 0.048875
	minimum = 0.038 (at node 13)
	maximum = 0.058 (at node 3)
Injected flit rate average = 0.0496875
	minimum = 0.034 (at node 1)
	maximum = 0.065 (at node 0)
Accepted flit rate average= 0.048875
	minimum = 0.038 (at node 13)
	maximum = 0.058 (at node 3)
Injected packet length average = 1
Accepted packet length average = 1
Total in-flight flits = 13 (0 measured)
latency change    = 1
throughput change = 1
Class 0:
Packet latency average = 20.3286
	minimum = 7
	maximum = 49
Network latency average = 20.3286
	minimum = 7
	maximum = 49
Slowest packet = 18355
Flit latency average = 20.3286
	minimum = 7
	maximum = 49
Slowest flit = 18355
Fragmentation average = 0
	minimum = 0
	maximum = 0
Injected packet rate average = 0.0486562
	minimum = 0.0385 (at node 1)
	maximum = 0.059 (at node 10)
Accepted packet rate average = 0.0482187
	minimum = 0.041 (at node 0)
	maximum = 0.062 (at node 11)
Injected flit rate average = 0.0486562
	minimum = 0.0385 (at node 1)
	maximum = 0.059 (at node 10)
Accepted flit rate average= 0.0482187
	minimum = 0.041 (at node 0)
	maximum = 0.062 (at node 11)
Injected packet length average = 1
Accepted packet length average = 1
Total in-flight flits = 14 (0 measured)
latency change    = 0.00830662
throughput change = 0.0136099
Class 0:
Packet latency average = 19.601
	minimum = 7
	maximum = 47
Network latency average = 19.601
	minimum = 7
	maximum = 47
Slowest packet = 19396
Flit latency average = 19.601
	minimum = 7
	maximum = 47
Slowest flit = 19396
Fragmentation average = 0
	minimum = 0
	maximum = 0
Injected packet rate average = 0.051875
	minimum = 0.036 (at node 15)
	maximum = 0.065 (at node 13)
Accepted packet rate average = 0.052
	minimum = 0.041 (at node 11)
	maximum = 0.065 (at node 7)
Injected flit rate average = 0.051875
	minimum = 0.036 (at node 15)
	maximum = 0.065 (at node 13)
Accepted flit rate average= 0.052
	minimum = 0.041 (at node 11)
	maximum = 0.065 (at node 7)
Injected packet length average = 1
Accepted packet length average = 1
Total in-flight flits = 12 (0 measured)
latency change    = 0.0371216
throughput change = 0.0727163
Warmed up ...Time used is 3000 cycles
Class 0:
Packet latency average = 19.9877
	minimum = 7
	maximum = 50
Network latency average = 19.9877
	minimum = 7
	maximum = 50
Slowest packet = 20377
Flit latency average = 20.0094
	minimum = 7
	maximum = 50
Slowest flit = 20377
Fragmentation average = 0
	minimum = 0
	maximum = 0
Injected packet rate average = 0.0471875
	minimum = 0.034 (at node 15)
	maximum = 0.062 (at node 7)
Accepted packet rate average = 0.0464375
	minimum = 0.039 (at node 13)
	maximum = 0.056 (at node 14)
Injected flit rate average = 0.0471875
	minimum = 0.034 (at node 15)
	maximum = 0.062 (at node 7)
Accepted flit rate average= 0.0464375
	minimum = 0.039 (at node 13)
	maximum = 0.056 (at node 14)
Injected packet length average = 1
Accepted packet length average = 1
Total in-flight flits = 24 (24 measured)
latency change    = 0.0193482
throughput change = 0.119785
Class 0:
Packet latency average = 20.3274
	minimum = 7
	maximum = 50
Network latency average = 20.3274
	minimum = 7
	maximum = 50
Slowest packet = 20377
Flit latency average = 20.3353
	minimum = 7
	maximum = 50
Slowest flit = 20377
Fragmentation average = 0
	minimum = 0
	maximum = 0
Injected packet rate average = 0.04775
	minimum = 0.0405 (at node 5)
	maximum = 0.0615 (at node 7)
Accepted packet rate average = 0.0474375
	minimum = 0.038 (at node 0)
	maximum = 0.054 (at node 4)
Injected flit rate average = 0.04775
	minimum = 0.0405 (at node 5)
	maximum = 0.0615 (at node 7)
Accepted flit rate average= 0.0474375
	minimum = 0.038 (at node 0)
	maximum = 0.054 (at node 4)
Injected packet length average = 1
Accepted packet length average = 1
Total in-flight flits = 22 (22 measured)
latency change    = 0.01671
throughput change = 0.0210804
Class 0:
Packet latency average = 20.2055
	minimum = 7
	maximum = 50
Network latency average = 20.2055
	minimum = 7
	maximum = 50
Slowest packet = 20377
Flit latency average = 20.2114
	minimum = 7
	maximum = 50
Slowest flit = 20377
Fragmentation average = 0
	minimum = 0
	maximum = 0
Injected packet rate average = 0.0480417
	minimum = 0.043 (at node 9)
	maximum = 0.0553333 (at node 3)
Accepted packet rate average = 0.048
	minimum = 0.0396667 (at node 0)
	maximum = 0.056 (at node 4)
Injected flit rate average = 0.0480417
	minimum = 0.043 (at node 9)
	maximum = 0.0553333 (at node 3)
Accepted flit rate average= 0.048
	minimum = 0.0396667 (at node 0)
	maximum = 0.056 (at node 4)
Injected packet length average = 1
Accepted packet length average = 1
Total in-flight flits = 14 (14 measured)
latency change    = 0.00603102
throughput change = 0.0117188
Class 0:
Packet latency average = 20.0868
	minimum = 7
	maximum = 50
Network latency average = 20.0868
	minimum = 7
	maximum = 50
Slowest packet = 20377
Flit latency average = 20.0916
	minimum = 7
	maximum = 50
Slowest flit = 20377
Fragmentation average = 0
	minimum = 0
	maximum = 0
Injected packet rate average = 0.0484062
	minimum = 0.04175 (at node 2)
	maximum = 0.0535 (at node 3)
Accepted packet rate average = 0.0484219
	minimum = 0.04125 (at node 12)
	maximum = 0.05525 (at node 9)
Injected flit rate average = 0.0484062
	minimum = 0.04175 (at node 2)
	maximum = 0.0535 (at node 3)
Accepted flit rate average= 0.0484219
	minimum = 0.04125 (at node 12)
	maximum = 0.05525 (at node 9)
Injected packet length average = 1
Accepted packet length average = 1
Total in-flight flits = 11 (11 measured)
latency change    = 0.00590844
throughput change = 0.00871249
Draining all recorded packets ...
Draining remaining packets ...
Time taken is 7057 cycles
Class 0:
Packet latency average = 20.2572
	minimum = 7
	maximum = 47
Network latency average = 20.2572
	minimum = 7
	maximum = 47
Slowest packet = 23820
Flit latency average = 20.2572
	minimum = 7
	maximum = 47
Slowest flit = 23820
Fragmentation average = 0
	minimum = 0
	maximum = 0
Injected packet rate average = 0.04875
	minimum = 0.04 (at node 6)
	maximum = 0.058 (at node 1)
Accepted packet rate average = 0.047875
	minimum = 0.037 (at node 4)
	maximum = 0.061 (at node 10)
Injected flit rate average = 0.04875
	minimum = 0.04 (at node 6)
	maximum = 0.058 (at node 1)
Accepted flit rate average= 0.047875
	minimum = 0.037 (at node 4)
	maximum = 0.061 (at node 10)
Injected packet length average = 1
Accepted packet length average = 1
Total in-flight flits = 14 (0 measured)
latency change    = 1
throughput change = 1
Class 0:
Packet latency average = 20.5508
	minimum = 7
	maximum = 50
Network latency average = 20.5508
	minimum = 7
	maximum = 50
Slowest packet = 24739
Flit latency average = 20.5508
	minimum = 7
	maximum = 50
Slowest flit = 24739
Fragmentation average = 0
	minimum = 0
	maximum = 0
Injected packet rate average = 0.0494375
	minimum = 0.04 (at node 6)
	maximum = 0.0575 (at node 14)
Accepted packet rate average = 0.0491875
	minimum = 0.0395 (at node 5)
	maximum = 0.06 (at node 10)
Injected flit rate average = 0.0494375
	minimum = 0.04 (at node 6)
	maximum = 0.0575 (at node 14)
Accepted flit rate average= 0.0491875
	minimum = 0.0395 (at node 5)
	maximum = 0.06 (at node 10)
Injected packet length average = 1
Accepted packet length average = 1
Total in-flight flits = 8 (0 measured)
latency change    = 0.0142888
throughput change = 0.0266836
Class 0:
Packet latency average = 20.0484
	minimum = 7
	maximum = 45
Network latency average = 20.0484
	minimum = 7
	maximum = 45
Slowest packet = 25364
Flit latency average = 20.0484
	minimum = 7
	maximum = 45
Slowest flit = 25364
Fragmentation average = 0
	minimum = 0
	maximum = 0
Injected packet rate average = 0.0521875
	minimum = 0.043 (at node 2)
	maximum = 0.062 (at node 9)
Accepted packet rate average = 0.051625
	minimum = 0.04 (at node 11)
	maximum = 0.062 (at node 10)
Injected flit rate average = 0.0521875
	minimum = 0.043 (at node 2)
	maximum = 0.062 (at node 9)
Accepted flit rate average= 0.051625
	minimum = 0.04 (at node 11)
	maximum = 0.062 (at node 10)
Injected packet length average = 1
Accepted packet length average = 1
Total in-flight flits = 17 (0 measured)
latency change    = 0.0250593
throughput change = 0.0472155
Warmed up ...Time used is 3000 cycles
Class 0:
Packet latency average = 20.1555
	minimum = 7
	maximum = 46
Network latency average = 20.1555
	minimum = 7
	maximum = 46
Slowest packet = 25806
Flit latency average = 20.2203
	minimum = 7
	maximum = 46
Slowest flit = 25647
Fragmentation average = 0
	minimum = 0
	maximum = 0
Injected packet rate average = 0.05075
	minimum = 0.041 (at node 8)
	maximum = 0.064 (at node 2)
Accepted packet rate average = 0.0505
	minimum = 0.04 (at node 14)
	maximum = 0.064 (at node 6)
Injected flit rate average = 0.05075
	minimum = 0.041 (at node 8)
	maximum = 0.064 (at node 2)
Accepted flit rate average= 0.0505
	minimum = 0.04 (at node 14)
	maximum = 0.064 (at node 6)
Injected packet length average = 1
Accepted packet length average = 1
Total in-flight flits = 21 (21 measured)
latency change    = 0.00531236
throughput change = 0.0222772
Class 0:
Packet latency average = 20.3264
	minimum = 7
	maximum = 47
Network latency average = 20.3264
	minimum = 7
	maximum = 47
Slowest packet = 26589
Flit latency average = 20.3574
	minimum = 7
	maximum = 47
Slowest flit = 26589
Fragmentation average = 0
	minimum = 0
	maximum = 0
Injected packet rate average = 0.0497187
	minimum = 0.043 (at node 4)
	maximum = 0.058 (at node 2)
Accepted packet rate average = 0.0498437
	minimum = 0.038 (at node 14)
	maximum = 0.0595 (at node 11)
Injected flit rate average = 0.0497187
	minimum = 0.043 (at node 4)
	maximum = 0.058 (at node 2)
Accepted flit rate average= 0.0498437
	minimum = 0.038 (at node 14)
	maximum = 0.0595 (at node 11)
Injected packet length average = 1
Accepted packet length average = 1
Total in-flight flits = 13 (13 measured)
latency change    = 0.00840599
throughput change = 0.0131661
Class 0:
Packet latency average = 20.2245
	minimum = 7
	maximum = 49
Network latency average = 20.2245
	minimum = 7
	maximum = 49
Slowest packet = 27880
Flit latency average = 20.2457
	minimum = 7
	maximum = 49
Slowest flit = 27880
Fragmentation average = 0
	minimum = 0
	maximum = 0
Injected packet rate average = 0.0501667
	minimum = 0.0436667 (at node 8)
	maximum = 0.0573333 (at node 2)
Accepted packet rate average = 0.0501042
	minimum = 0.0436667 (at node 1)
	maximum = 0.056 (at node 5)
Injected flit rate average = 0.0501667
	minimum = 0.0436667 (at node 8)
	maximum = 0.0573333 (at node 2)
Accepted flit rate average= 0.0501042
	minimum = 0.0436667 (at node 1)
	maximum = 0.056 (at node 5)
Injected packet length average = 1
Accepted packet length average = 1
Total in-flight flits = 20 (20 measured)
latency change    = 0.00503879
throughput change = 0.00519751
Draining all recorded packets ...
Draining remaining packets ...
Time taken is 6065 cycles
Class 0:
Packet latency average = 19.9583
	minimum = 7
	maximum = 60
Network latency average = 19.9583
	minimum = 7
	maximum = 60
Slowest packet = 28819
Flit latency average = 19.9583
	minimum = 7
	maximum = 60
Slowest flit = 28819
Fragmentation average = 0
	minimum = 0
	maximum = 0
Injected packet rate average = 0.050625
	minimum = 0.04 (at node 2)
	maximum = 0.064 (at node 9)
Accepted packet rate average = 0.0495
	minimum = 0.04 (at node 3)
	maximum = 0.064 (at node 13)
Injected flit rate average = 0.050625
	minimum = 0.04 (at node 2)
	maximum = 0.064 (at node 9)
Accepted flit rate average= 0.0495
	minimum = 0.04 (at node 3)
	maximum = 0.064 (at node 13)
Injected packet length average = 1
Accepted packet length average = 1
Total in-flight flits = 18 (0 measured)
latency change    = 1
throughput change = 1
Class 0:
Packet latency average = 20.2055
	minimum = 7
	maximum = 60
Network latency average = 20.2055
	minimum = 7
	maximum = 60
Slowest packet = 28819
Flit latency average = 20.2055
	minimum = 7
	maximum = 60
Slowest flit = 28819
Fragmentation average = 0
	minimum = 0
	maximum = 0
Injected packet rate average = 0.0493437
	minimum = 0.039 (at node 5)
	maximum = 0.0585 (at node 8)
Accepted packet rate average = 0.0488125
	minimum = 0.044 (at node 1)
	maximum = 0.059 (at node 13)
Injected flit rate average = 0.0493437
	minimum = 0.039 (at node 5)
	maximum = 0.0585 (at node 8)
Accepted flit rate average= 0.0488125
	minimum = 0.044 (at node 1)
	maximum = 0.059 (at node 13)
Injected packet length average = 1
Accepted packet length average = 1
Total in-flight flits = 17 (0 measured)
latency change    = 0.0122329
throughput change = 0.0140845
Class 0:
Packet latency average = 19.6968
	minimum = 7
	maximum = 45
Network latency average = 19.6968
	minimum = 7
	maximum = 45
Slowest packet = 30215
Flit latency average = 19.6968
	minimum = 7
	maximum = 45
Slowest flit = 30215
Fragmentation average = 0
	minimum = 0
	maximum = 0
Injected packet rate average = 0.0491875
	minimum = 0.039 (at node 13)
	maximum = 0.057 (at node 1)
Accepted packet rate average = 0.0490625
	minimum = 0.035 (at node 0)
	maximum = 0.059 (at node 14)
Injected flit rate average = 0.0491875
	minimum = 0.039 (at node 13)
	maximum = 0.057 (at node 1)
Accepted flit rate average= 0.0490625
	minimum = 0.035 (at node 0)
	maximum = 0.059 (at node 14)
Injected packet length average = 1
Accepted packet length average = 1
Total in-flight flits = 19 (0 measured)
latency change    = 0.025826
throughput change = 0.00509554
Warmed up ...Time used is 3000 cycles
Class 0:
Packet latency average = 19.5
	minimum = 7
	maximum = 46
Network latency average = 19.5
	minimum = 7
	maximum = 46
Slowest packet = 31090
Flit latency average = 19.5689
	minimum = 7
	maximum = 46
Slowest flit = 31090
Fragmentation average = 0
	minimum = 0
	maximum = 0
Injected packet rate average = 0.0525
	minimum = 0.046 (at node 14)
	maximum = 0.06 (at node 5)
Accepted packet rate average = 0.0530625
	minimum = 0.044 (at node 7)
	maximum = 0.063 (at node 14)
Injected flit rate average = 0.0525
	minimum = 0.046 (at node 14)
	maximum = 0.06 (at node 5)
Accepted flit rate average= 0.0530625
	minimum = 0.044 (at node 7)
	maximum = 0.063 (at node 14)
Injected packet length average = 1
Accepted packet length average = 1
Total in-flight flits = 10 (10 measured)
latency change    = 0.0100931
throughput change = 0.0753828
Class 0:
Packet latency average = 19.5528
	minimum = 7
	maximum = 46
Network latency average = 19.5528
	minimum = 7
	maximum = 46
Slowest packet = 31090
Flit latency average = 19.5883
	minimum = 7
	maximum = 46
Slowest flit = 31090
Fragmentation average = 0
	minimum = 0
	maximum = 0
Injected packet rate average = 0.0505937
	minimum = 0.041 (at node 2)
	maximum = 0.057 (at node 11)
Accepted packet rate average = 0.050625
	minimum = 0.042 (at node 7)
	maximum = 0.0565 (at node 1)
Injected flit rate average = 0.0505937
	minimum = 0.041 (at node 2)
	maximum = 0.057 (at node 11)
Accepted flit rate average= 0.050625
	minimum = 0.042 (at node 7)
	maximum = 0.0565 (at node 1)
Injected packet length average = 1
Accepted packet length average = 1
Total in-flight flits = 18 (18 measured)
latency change    = 0.00269934
throughput change = 0.0481481
Class 0:
Packet latency average = 19.8089
	minimum = 7
	maximum = 49
Network latency average = 19.8089
	minimum = 7
	maximum = 49
Slowest packet = 32246
Flit latency average = 19.8305
	minimum = 7
	maximum = 49
Slowest flit = 32246
Fragmentation average = 0
	minimum = 0
	maximum = 0
Injected packet rate average = 0.0507708
	minimum = 0.0426667 (at node 15)
	maximum = 0.0566667 (at node 7)
Accepted packet rate average = 0.0506458
	minimum = 0.0436667 (at node 7)
	maximum = 0.0596667 (at node 14)
Injected flit rate average = 0.0507708
	minimum = 0.0426667 (at node 15)
	maximum = 0.0566667 (at node 7)
Accepted flit rate average= 0.0506458
	minimum = 0.0436667 (at node 7)
	maximum = 0.0596667 (at node 14)
Injected packet length average = 1
Accepted packet length average = 1
Total in-flight flits = 25 (25 measured)
latency change    = 0.0129282
throughput change = 0.000411353
Class 0:
Packet latency average = 19.9732
	minimum = 7
	maximum = 61
Network latency average = 19.9732
	minimum = 7
	maximum = 61
Slowest packet = 33198
Flit latency average = 19.9885
	minimum = 7
	maximum = 61
Slowest flit = 33198
Fragmentation average = 0
	minimum = 0
	maximum = 0
Injected packet rate average = 0.0503125
	minimum = 0.04325 (at node 15)
	maximum = 0.0575 (at node 13)
Accepted packet rate average = 0.050375
	minimum = 0.04525 (at node 7)
	maximum = 0.057 (at node 14)
Injected flit rate average = 0.0503125
	minimum = 0.04325 (at node 15)
	maximum = 0.0575 (at node 13)
Accepted flit rate average= 0.050375
	minimum = 0.04525 (at node 7)
	maximum = 0.057 (at node 14)
Injected packet length average = 1
Accepted packet length average = 1
Total in-flight flits = 15 (15 measured)
latency change    = 0.00822577
throughput change = 0.00537634
Draining all recorded packets ...
Draining remaining packets ...
Time taken is 7055 cycles
Class 0:
Packet latency average = 20.0762
	minimum = 7
	maximum = 45
Network latency average = 20.0762
	minimum = 7
	maximum = 45
Slowest packet = 34500
Flit latency average = 20.0762
	minimum = 7
	maximum = 45
Slowest flit = 34500
Fragmentation average = 0
	minimum = 0
	maximum = 0
Injected packet rate average = 0.052
	minimum = 0.041 (at node 11)
	maximum = 0.068 (at node 15)
Accepted packet rate average = 0.050875
	minimum = 0.04 (at node 7)
	maximum = 0.063 (at node 11)
Injected flit rate average = 0.052
	minimum = 0.041 (at node 11)
	maximum = 0.068 (at node 15)
Accepted flit rate average= 0.050875
	minimum = 0.04 (at node 7)
	maximum = 0.063 (at node 11)
Injected packet length average = 1
Accepted packet length average = 1
Total in-flight flits = 18 (0 measured)
latency change    = 1
throughput change = 1
Class 0:
Packet latency average = 20.1087
	minimum = 7
	maximum = 47
Network latency average = 20.1087
	minimum = 7
	maximum = 47
Slowest packet = 35230
Flit latency average = 20.1087
	minimum = 7
	maximum = 47
Slowest flit = 35230
Fragmentation average = 0
	minimum = 0
	maximum = 0
Injected packet rate average = 0.0512813
	minimum = 0.0415 (at node 10)
	maximum = 0.06 (at node 14)
Accepted packet rate average = 0.0509063
	minimum = 0.0425 (at node 7)
	maximum = 0.062 (at node 11)
Injected flit rate average = 0.0512813
	minimum = 0.0415 (at node 10)
	maximum = 0.06 (at node 14)
Accepted flit rate average= 0.0509063
	minimum = 0.0425 (at node 7)
	maximum = 0.062 (at node 11)
Injected packet length average = 1
Accepted packet length average = 1
Total in-flight flits = 12 (0 measured)
latency change    = 0.00161565
throughput change = 0.000613874
Class 0:
Packet latency average = 20.0985
	minimum = 7
	maximum = 48
Network latency average = 20.0985
	minimum = 7
	maximum = 48
Slowest packet = 35796
Flit latency average = 20.0985
	minimum = 7
	maximum = 48
Slowest flit = 35796
Fragmentation average = 0
	minimum = 0
	maximum = 0
Injected packet rate average = 0.05025
	minimum = 0.037 (at node 6)
	maximum = 0.059 (at node 15)
Accepted packet rate average = 0.050125
	minimum = 0.038 (at node 2)
	maximum = 0.067 (at node 7)
Injected flit rate average = 0.05025
	minimum = 0.037 (at node 6)
	maximum = 0.059 (at node 15)
Accepted flit rate average= 0.050125
	minimum = 0.038 (at node 2)
	maximum = 0.067 (at node 7)
Injected packet length average = 1
Accepted packet length average = 1
Total in-flight flits = 14 (0 measured)
latency change    = 0.000505106
throughput change = 0.015586
Warmed up ...Time used is 3000 cycles
Class 0:
Packet latency average = 20.4573
	minimum = 7
	maximum = 53
Network latency average = 20.4573
	minimum = 7
	maximum = 53
Slowest packet = 36478
Flit latency average = 20.4868
	minimum = 7
	maximum = 53
Slowest flit = 36478
Fragmentation average = 0
	minimum = 0
	maximum = 0
Injected packet rate average = 0.052375
	minimum = 0.04 (at node 13)
	maximum = 0.068 (at node 7)
Accepted packet rate average = 0.052125
	minimum = 0.044 (at node 1)
	maximum = 0.06 (at node 13)
Injected flit rate average = 0.052375
	minimum = 0.04 (at node 13)
	maximum = 0.068 (at node 7)
Accepted flit rate average= 0.052125
	minimum = 0.044 (at node 1)
	maximum = 0.06 (at node 13)
Injected packet length average = 1
Accepted packet length average = 1
Total in-flight flits = 18 (18 measured)
latency change    = 0.0175396
throughput change = 0.0383693
Class 0:
Packet latency average = 20.1334
	minimum = 7
	maximum = 53
Network latency average = 20.1334
	minimum = 7
	maximum = 53
Slowest packet = 36478
Flit latency average = 20.1513
	minimum = 7
	maximum = 53
Slowest flit = 36478
Fragmentation average = 0
	minimum = 0
	maximum = 0
Injected packet rate average = 0.0509688
	minimum = 0.044 (at node 5)
	maximum = 0.0585 (at node 7)
Accepted packet rate average = 0.0510313
	minimum = 0.0425 (at node 11)
	maximum = 0.0585 (at node 13)
Injected flit rate average = 0.0509688
	minimum = 0.044 (at node 5)
	maximum = 0.0585 (at node 7)
Accepted flit rate average= 0.0510313
	minimum = 0.0425 (at node 11)
	maximum = 0.0585 (at node 13)
Injected packet length average = 1
Accepted packet length average = 1
Total in-flight flits = 12 (12 measured)
latency change    = 0.0160878
throughput change = 0.0214329
Class 0:
Packet latency average = 20.401
	minimum = 7
	maximum = 60
Network latency average = 20.4006
	minimum = 7
	maximum = 60
Slowest packet = 38103
Flit latency average = 20.4109
	minimum = 7
	maximum = 60
Slowest flit = 38103
Fragmentation average = 0
	minimum = 0
	maximum = 0
Injected packet rate average = 0.0511667
	minimum = 0.0456667 (at node 1)
	maximum = 0.0573333 (at node 15)
Accepted packet rate average = 0.0511042
	minimum = 0.046 (at node 11)
	maximum = 0.0586667 (at node 3)
Injected flit rate average = 0.0511667
	minimum = 0.0456667 (at node 1)
	maximum = 0.0573333 (at node 15)
Accepted flit rate average= 0.0511042
	minimum = 0.046 (at node 11)
	maximum = 0.0586667 (at node 3)
Injected packet length average = 1
Accepted packet length average = 1
Total in-flight flits = 17 (17 measured)
latency change    = 0.0131155
throughput change = 0.00142682
Draining all recorded packets ...
Draining remaining packets ...
Time taken is 6060 cycles
Class 0:
Packet latency average = 19.6765
	minimum = 7
	maximum = 47
Network latency average = 19.6765
	minimum = 7
	maximum = 47
Slowest packet = 39278
Flit latency average = 19.6765
	minimum = 7
	maximum = 47
Slowest flit = 39278
Fragmentation average = 0
	minimum = 0
	maximum = 0
Injected packet rate average = 0.04975
	minimum = 0.037 (at node 0)
	maximum = 0.059 (at node 8)
Accepted packet rate average = 0.0486875
	minimum = 0.04 (at node 6)
	maximum = 0.059 (at node 1)
Injected flit rate average = 0.04975
	minimum = 0.037 (at node 0)
	maximum = 0.059 (at node 8)
Accepted flit rate average= 0.0486875
	minimum = 0.04 (at node 6)
	maximum = 0.059 (at node 1)
Injected packet length average = 1
Accepted packet length average = 1
Total in-flight flits = 17 (0 measured)
latency change    = 1
throughput change = 1
Class 0:
Packet latency average = 19.8674
	minimum = 7
	maximum = 47
Network latency average = 19.8674
	minimum = 7
	maximum = 47
Slowest packet = 39278
Flit latency average = 19.8674
	minimum = 7
	maximum = 47
Slowest flit = 39278
Fragmentation average = 0
	minimum = 0
	maximum = 0
Injected packet rate average = 0.0489062
	minimum = 0.04 (at node 2)
	maximum = 0.0585 (at node 4)
Accepted packet rate average = 0.0485312
	minimum = 0.041 (at node 2)
	maximum = 0.057 (at node 1)
Injected flit rate average = 0.0489062
	minimum = 0.04 (at node 2)
	maximum = 0.0585 (at node 4)
Accepted flit rate average= 0.0485312
	minimum = 0.041 (at node 2)
	maximum = 0.057 (at node 1)
Injected packet length average = 1
Accepted packet length average = 1
Total in-flight flits = 12 (0 measured)
latency change    = 0.00960597
throughput change = 0.00321958
Class 0:
Packet latency average = 20.1272
	minimum = 7
	maximum = 46
Network latency average = 20.1272
	minimum = 7
	maximum = 46
Slowest packet = 40656
Flit latency average = 20.1272
	minimum = 7
	maximum = 46
Slowest flit = 40656
Fragmentation average = 0
	minimum = 0
	maximum = 0
Injected packet rate average = 0.049125
	minimum = 0.037 (at node 6)
	maximum = 0.058 (at node 0)
Accepted packet rate average = 0.049125
	minimum = 0.039 (at node 10)
	maximum = 0.061 (at node 11)
Injected flit rate average = 0.049125
	minimum = 0.037 (at node 6)
	maximum = 0.058 (at node 0)
Accepted flit rate average= 0.049125
	minimum = 0.039 (at node 10)
	maximum = 0.061 (at node 11)
Injected packet length average = 1
Accepted packet length average = 1
Total in-flight flits = 12 (0 measured)
latency change    = 0.0129115
throughput change = 0.0120865
Warmed up ...Time used is 3000 cycles
Class 0:
Packet latency average = 20.4056
	minimum = 7
	maximum = 45
Network latency average = 20.4056
	minimum = 7
	maximum = 45
Slowest packet = 41348
Flit latency average = 20.4496
	minimum = 7
	maximum = 45
Slowest flit = 41348
Fragmentation average = 0
	minimum = 0
	maximum = 0
Injected packet rate average = 0.0573125
	minimum = 0.046 (at node 14)
	maximum = 0.07 (at node 15)
Accepted packet rate average = 0.057
	minimum = 0.047 (at node 12)
	maximum = 0.074 (at node 8)
Injected flit rate average = 0.0573125
	minimum = 0.046 (at node 14)
	maximum = 0.07 (at node 15)
Accepted flit rate average= 0.057
	minimum = 0.047 (at node 12)
	maximum = 0.074 (at node 8)
Injected packet length average = 1
Accepted packet length average = 1
Total in-flight flits = 17 (17 measured)
latency change    = 0.0136399
throughput change = 0.138158
Class 0:
Packet latency average = 20.129
	minimum = 7
	maximum = 55
Network latency average = 20.129
	minimum = 7
	maximum = 55
Slowest packet = 42574
Flit latency average = 20.1545
	minimum = 7
	maximum = 55
Slowest flit = 42574
Fragmentation average = 0
	minimum = 0
	maximum = 0
Injected packet rate average = 0.0533438
	minimum = 0.0485 (at node 0)
	maximum = 0.0655 (at node 15)
Accepted packet rate average = 0.0531875
	minimum = 0.0435 (at node 14)
	maximum = 0.0615 (at node 8)
Injected flit rate average = 0.0533438
	minimum = 0.0485 (at node 0)
	maximum = 0.0655 (at node 15)
Accepted flit rate average= 0.0531875
	minimum = 0.0435 (at node 14)
	maximum = 0.0615 (at node 8)
Injected packet length average = 1
Accepted packet length average = 1
Total in-flight flits = 17 (17 measured)
latency change    = 0.0137395
throughput change = 0.0716804
Class 0:
Packet latency average = 20.1879
	minimum = 7
	maximum = 55
Network latency average = 20.1879
	minimum = 7
	maximum = 55
Slowest packet = 42574
Flit latency average = 20.2053
	minimum = 7
	maximum = 55
Slowest flit = 42574
Fragmentation average = 0
	minimum = 0
	maximum = 0
Injected packet rate average = 0.0514375
	minimum = 0.0443333 (at node 8)
	maximum = 0.0593333 (at node 2)
Accepted packet rate average = 0.0513542
	minimum = 0.0433333 (at node 14)
	maximum = 0.0583333 (at node 8)
Injected flit rate average = 0.0514375
	minimum = 0.0443333 (at node 8)
	maximum = 0.0593333 (at node 2)
Accepted flit rate average= 0.0513542
	minimum = 0.0433333 (at node 14)
	maximum = 0.0583333 (at node 8)
Injected packet length average = 1
Accepted packet length average = 1
Total in-flight flits = 16 (16 measured)
latency change    = 0.00291952
throughput change = 0.0356998
Class 0:
Packet latency average = 20.2475
	minimum = 7
	maximum = 55
Network latency average = 20.2475
	minimum = 7
	maximum = 55
Slowest packet = 42574
Flit latency average = 20.2605
	minimum = 7
	maximum = 55
Slowest flit = 42574
Fragmentation average = 0
	minimum = 0
	maximum = 0
Injected packet rate average = 0.0505312
	minimum = 0.044 (at node 8)
	maximum = 0.05675 (at node 2)
Accepted packet rate average = 0.050375
	minimum = 0.04225 (at node 14)
	maximum = 0.0575 (at node 8)
Injected flit rate average = 0.0505312
	minimum = 0.044 (at node 8)
	maximum = 0.05675 (at node 2)
Accepted flit rate average= 0.050375
	minimum = 0.04225 (at node 14)
	maximum = 0.0575 (at node 8)
Injected packet length average = 1
Accepted packet length average = 1
Total in-flight flits = 22 (22 measured)
latency change    = 0.0029424
throughput change = 0.0194376
Class 0:
Packet latency average = 20.2684
	minimum = 7
	maximum = 55
Network latency average = 20.2684
	minimum = 7
	maximum = 55
Slowest packet = 42574
Flit latency average = 20.2787
	minimum = 7
	maximum = 55
Slowest flit = 42574
Fragmentation average = 0
	minimum = 0
	maximum = 0
Injected packet rate average = 0.0509625
	minimum = 0.0462 (at node 0)
	maximum = 0.0548 (at node 2)
Accepted packet rate average = 0.050825
	minimum = 0.0458 (at node 14)
	maximum = 0.0586 (at node 8)
Injected flit rate average = 0.0509625
	minimum = 0.0462 (at node 0)
	maximum = 0.0548 (at node 2)
Accepted flit rate average= 0.050825
	minimum = 0.0458 (at node 14)
	maximum = 0.0586 (at node 8)
Injected packet length average = 1
Accepted packet length average = 1
Total in-flight flits = 23 (23 measured)
latency change    = 0.00102956
throughput change = 0.00885391
Draining all recorded packets ...
Draining remaining packets ...
Time taken is 8072 cycles
Class 0:
Packet latency average = 20.4356
	minimum = 7
	maximum = 49
Network latency average = 20.4356
	minimum = 7
	maximum = 49
Slowest packet = 45568
Flit latency average = 20.4356
	minimum = 7
	maximum = 49
Slowest flit = 45568
Fragmentation average = 0
	minimum = 0
	maximum = 0
Injected packet rate average = 0.04925
	minimum = 0.038 (at node 2)
	maximum = 0.061 (at node 13)
Accepted packet rate average = 0.0480625
	minimum = 0.034 (at node 10)
	maximum = 0.063 (at node 5)
Injected flit rate average = 0.04925
	minimum = 0.038 (at node 2)
	maximum = 0.061 (at node 13)
Accepted flit rate average= 0.0480625
	minimum = 0.034 (at node 10)
	maximum = 0.063 (at node 5)
Injected packet length average = 1
Accepted packet length average = 1
Total in-flight flits = 19 (0 measured)
latency change    = 1
throughput change = 1
Class 0:
Packet latency average = 20.1158
	minimum = 7
	maximum = 49
Network latency average = 20.1158
	minimum = 7
	maximum = 49
Slowest packet = 45568
Flit latency average = 20.1158
	minimum = 7
	maximum = 49
Slowest flit = 45568
Fragmentation average = 0
	minimum = 0
	maximum = 0
Injected packet rate average = 0.0490625
	minimum = 0.0405 (at node 2)
	maximum = 0.0555 (at node 15)
Accepted packet rate average = 0.0485625
	minimum = 0.041 (at node 14)
	maximum = 0.0595 (at node 2)
Injected flit rate average = 0.0490625
	minimum = 0.0405 (at node 2)
	maximum = 0.0555 (at node 15)
Accepted flit rate average= 0.0485625
	minimum = 0.041 (at node 14)
	maximum = 0.0595 (at node 2)
Injected packet length average = 1
Accepted packet length average = 1
Total in-flight flits = 16 (0 measured)
latency change    = 0.015898
throughput change = 0.010296
Class 0:
Packet latency average = 20.0456
	minimum = 7
	maximum = 41
Network latency average = 20.0456
	minimum = 7
	maximum = 41
Slowest packet = 46998
Flit latency average = 20.0456
	minimum = 7
	maximum = 41
Slowest flit = 46998
Fragmentation average = 0
	minimum = 0
	maximum = 0
Injected packet rate average = 0.0490625
	minimum = 0.029 (at node 3)
	maximum = 0.067 (at node 5)
Accepted packet rate average = 0.049375
	minimum = 0.035 (at node 15)
	maximum = 0.063 (at node 14)
Injected flit rate average = 0.0490625
	minimum = 0.029 (at node 3)
	maximum = 0.067 (at node 5)
Accepted flit rate average= 0.049375
	minimum = 0.035 (at node 15)
	maximum = 0.063 (at node 14)
Injected packet length average = 1
Accepted packet length average = 1
Total in-flight flits = 11 (0 measured)
latency change    = 0.00350504
throughput change = 0.0164557
Warmed up ...Time used is 3000 cycles
Class 0:
Packet latency average = 20.4324
	minimum = 7
	maximum = 48
Network latency average = 20.4324
	minimum = 7
	maximum = 48
Slowest packet = 48116
Flit latency average = 20.4667
	minimum = 7
	maximum = 48
Slowest flit = 48116
Fragmentation average = 0
	minimum = 0
	maximum = 0
Injected packet rate average = 0.05
	minimum = 0.04 (at node 3)
	maximum = 0.058 (at node 5)
Accepted packet rate average = 0.0496875
	minimum = 0.042 (at node 10)
	maximum = 0.065 (at node 2)
Injected flit rate average = 0.05
	minimum = 0.04 (at node 3)
	maximum = 0.058 (at node 5)
Accepted flit rate average= 0.0496875
	minimum = 0.042 (at node 10)
	maximum = 0.065 (at node 2)
Injected packet length average = 1
Accepted packet length average = 1
Total in-flight flits = 16 (16 measured)
latency change    = 0.0189321
throughput change = 0.00628931
Class 0:
Packet latency average = 20.3593
	minimum = 7
	maximum = 48
Network latency average = 20.3593
	minimum = 7
	maximum = 48
Slowest packet = 48116
Flit latency average = 20.3769
	minimum = 7
	maximum = 48
Slowest flit = 48116
Fragmentation average = 0
	minimum = 0
	maximum = 0
Injected packet rate average = 0.050125
	minimum = 0.042 (at node 3)
	maximum = 0.0555 (at node 12)
Accepted packet rate average = 0.04975
	minimum = 0.0435 (at node 5)
	maximum = 0.057 (at node 2)
Injected flit rate average = 0.050125
	minimum = 0.042 (at node 3)
	maximum = 0.0555 (at node 12)
Accepted flit rate average= 0.04975
	minimum = 0.0435 (at node 5)
	maximum = 0.057 (at node 2)
Injected packet length average = 1
Accepted packet length average = 1
Total in-flight flits = 23 (23 measured)
latency change    = 0.00359206
throughput change = 0.00125628
Class 0:
Packet latency average = 20.4151
	minimum = 7
	maximum = 48
Network latency average = 20.4151
	minimum = 7
	maximum = 48
Slowest packet = 48116
Flit latency average = 20.4265
	minimum = 7
	maximum = 48
Slowest flit = 48116
Fragmentation average = 0
	minimum = 0
	maximum = 0
Injected packet rate average = 0.0497917
	minimum = 0.0413333 (at node 3)
	maximum = 0.0556667 (at node 12)
Accepted packet rate average = 0.0497708
	minimum = 0.0443333 (at node 11)
	maximum = 0.055 (at node 6)
Injected flit rate average = 0.0497917
	minimum = 0.0413333 (at node 3)
	maximum = 0.0556667 (at node 12)
Accepted flit rate average= 0.0497708
	minimum = 0.0443333 (at node 11)
	maximum = 0.055 (at node 6)
Injected packet length average = 1
Accepted packet length average = 1
Total in-flight flits = 12 (12 measured)
latency change    = 0.00273271
throughput change = 0.000418585
Draining all recorded packets ...
Draining remaining packets ...
Time taken is 6058 cycles
Class 0:
Packet latency average = 20.1043
	minimum = 7
	maximum = 45
Network latency average = 20.1043
	minimum = 7
	maximum = 45
Slowest packet = 50254
Flit latency average = 20.1043
	minimum = 7
	maximum = 45
Slowest flit = 50254
Fragmentation average = 0
	minimum = 0
	maximum = 0
Injected packet rate average = 0.0518125
	minimum = 0.041 (at node 1)
	maximum = 0.066 (at node 4)
Accepted packet rate average = 0.0509375
	minimum = 0.04 (at node 13)
	maximum = 0.065 (at node 1)
Injected flit rate average = 0.0518125
	minimum = 0.041 (at node 1)
	maximum = 0.066 (at node 4)
Accepted flit rate average= 0.0509375
	minimum = 0.04 (at node 13)
	maximum = 0.065 (at node 1)
Injected packet length average = 1
Accepted packet length average = 1
Total in-flight flits = 14 (0 measured)
latency change    = 1
throughput change = 1
Class 0:
Packet latency average = 20.2714
	minimum = 7
	maximum = 49
Network latency average = 20.2714
	minimum = 7
	maximum = 49
Slowest packet = 50944
Flit latency average = 20.2714
	minimum = 7
	maximum = 49
Slowest flit = 50944
Fragmentation average = 0
	minimum = 0
	maximum = 0
Injected packet rate average = 0.0509063
	minimum = 0.0435 (at node 2)
	maximum = 0.056 (at node 4)
Accepted packet rate average = 0.0503125
	minimum = 0.0415 (at node 13)
	maximum = 0.0615 (at node 1)
Injected flit rate average = 0.0509063
	minimum = 0.0435 (at node 2)
	maximum = 0.056 (at node 4)
Accepted flit rate average= 0.0503125
	minimum = 0.0415 (at node 13)
	maximum = 0.0615 (at node 1)
Injected packet length average = 1
Accepted packet length average = 1
Total in-flight flits = 19 (0 measured)
latency change    = 0.00824481
throughput change = 0.0124224
Class 0:
Packet latency average = 20.2184
	minimum = 7
	maximum = 63
Network latency average = 20.2184
	minimum = 7
	maximum = 63
Slowest packet = 52051
Flit latency average = 20.2184
	minimum = 7
	maximum = 63
Slowest flit = 52051
Fragmentation average = 0
	minimum = 0
	maximum = 0
Injected packet rate average = 0.0453125
	minimum = 0.036 (at node 3)
	maximum = 0.054 (at node 5)
Accepted packet rate average = 0.0455
	minimum = 0.036 (at node 6)
	maximum = 0.063 (at node 2)
Injected flit rate average = 0.0453125
	minimum = 0.036 (at node 3)
	maximum = 0.054 (at node 5)
Accepted flit rate average= 0.0455
	minimum = 0.036 (at node 6)
	maximum = 0.063 (at node 2)
Injected packet length average = 1
Accepted packet length average = 1
Total in-flight flits = 16 (0 measured)
latency change    = 0.00262246
throughput change = 0.105769
Warmed up ...Time used is 3000 cycles
Class 0:
Packet latency average = 20.245
	minimum = 7
	maximum = 60
Network latency average = 20.245
	minimum = 7
	maximum = 60
Slowest packet = 52374
Flit latency average = 20.3061
	minimum = 7
	maximum = 60
Slowest flit = 52374
Fragmentation average = 0
	minimum = 0
	maximum = 0
Injected packet rate average = 0.050875
	minimum = 0.034 (at node 3)
	maximum = 0.065 (at node 9)
Accepted packet rate average = 0.05125
	minimum = 0.037 (at node 4)
	maximum = 0.06 (at node 11)
Injected flit rate average = 0.050875
	minimum = 0.034 (at node 3)
	maximum = 0.065 (at node 9)
Accepted flit rate average= 0.05125
	minimum = 0.037 (at node 4)
	maximum = 0.06 (at node 11)
Injected packet length average = 1
Accepted packet length average = 1
Total in-flight flits = 10 (10 measured)
latency change    = 0.00131481
throughput change = 0.112195
Class 0:
Packet latency average = 20.1314
	minimum = 7
	maximum = 60
Network latency average = 20.1314
	minimum = 7
	maximum = 60
Slowest packet = 52374
Flit latency average = 20.1634
	minimum = 7
	maximum = 60
Slowest flit = 52374
Fragmentation average = 0
	minimum = 0
	maximum = 0
Injected packet rate average = 0.0505312
	minimum = 0.041 (at node 3)
	maximum = 0.061 (at node 6)
Accepted packet rate average = 0.0506875
	minimum = 0.0415 (at node 4)
	maximum = 0.0575 (at node 7)
Injected flit rate average = 0.0505312
	minimum = 0.041 (at node 3)
	maximum = 0.061 (at node 6)
Accepted flit rate average= 0.0506875
	minimum = 0.0415 (at node 4)
	maximum = 0.0575 (at node 7)
Injected packet length average = 1
Accepted packet length average = 1
Total in-flight flits = 11 (11 measured)
latency change    = 0.00564505
throughput change = 0.0110974
Class 0:
Packet latency average = 20.08
	minimum = 7
	maximum = 60
Network latency average = 20.08
	minimum = 7
	maximum = 60
Slowest packet = 52374
Flit latency average = 20.1017
	minimum = 7
	maximum = 60
Slowest flit = 52374
Fragmentation average = 0
	minimum = 0
	maximum = 0
Injected packet rate average = 0.0507083
	minimum = 0.0436667 (at node 3)
	maximum = 0.058 (at node 6)
Accepted packet rate average = 0.0506042
	minimum = 0.0403333 (at node 0)
	maximum = 0.0556667 (at node 7)
Injected flit rate average = 0.0507083
	minimum = 0.0436667 (at node 3)
	maximum = 0.058 (at node 6)
Accepted flit rate average= 0.0506042
	minimum = 0.0403333 (at node 0)
	maximum = 0.0556667 (at node 7)
Injected packet length average = 1
Accepted packet length average = 1
Total in-flight flits = 21 (21 measured)
latency change    = 0.00255971
throughput change = 0.00164677
Class 0:
Packet latency average = 20.0821
	minimum = 7
	maximum = 60
Network latency average = 20.0821
	minimum = 7
	maximum = 60
Slowest packet = 52374
Flit latency average = 20.0983
	minimum = 7
	maximum = 60
Slowest flit = 52374
Fragmentation average = 0
	minimum = 0
	maximum = 0
Injected packet rate average = 0.0506875
	minimum = 0.045 (at node 2)
	maximum = 0.05625 (at node 6)
Accepted packet rate average = 0.0506875
	minimum = 0.04125 (at node 0)
	maximum = 0.05525 (at node 5)
Injected flit rate average = 0.0506875
	minimum = 0.045 (at node 2)
	maximum = 0.05625 (at node 6)
Accepted flit rate average= 0.0506875
	minimum = 0.04125 (at node 0)
	maximum = 0.05525 (at node 5)
Injected packet length average = 1
Accepted packet length average = 1
Total in-flight flits = 16 (16 measured)
latency change    = 0.000105106
throughput change = 0.00164406
Draining all recorded packets ...
Draining remaining packets ...
Time taken is 7047 cycles
Class 0:
Packet latency average = 20.2351
	minimum = 7
	maximum = 50
Network latency average = 20.2351
	minimum = 7
	maximum = 50
Slowest packet = 55584
Flit latency average = 20.2351
	minimum = 7
	maximum = 50
Slowest flit = 55584
Fragmentation average = 0
	minimum = 0
	maximum = 0
Injected packet rate average = 0.0505625
	minimum = 0.035 (at node 12)
	maximum = 0.07 (at node 0)
Accepted packet rate average = 0.0491875
	minimum = 0.036 (at node 0)
	maximum = 0.063 (at node 3)
Injected flit rate average = 0.0505625
	minimum = 0.035 (at node 12)
	maximum = 0.07 (at node 0)
Accepted flit rate average= 0.0491875
	minimum = 0.036 (at node 0)
	maximum = 0.063 (at node 3)
Injected packet length average = 1
Accepted packet length average = 1
Total in-flight flits = 22 (0 measured)
latency change    = 1
throughput change = 1
Class 0:
Packet latency average = 20.4246
	minimum = 7
	maximum = 50
Network latency average = 20.4246
	minimum = 7
	maximum = 50
Slowest packet = 55584
Flit latency average = 20.4246
	minimum = 7
	maximum = 50
Slowest flit = 55584
Fragmentation average = 0
	minimum = 0
	maximum = 0
Injected packet rate average = 0.0505937
	minimum = 0.0405 (at node 15)
	maximum = 0.0585 (at node 0)
Accepted packet rate average = 0.050125
	minimum = 0.043 (at node 13)
	maximum = 0.0635 (at node 3)
Injected flit rate average = 0.0505937
	minimum = 0.0405 (at node 15)
	maximum = 0.0585 (at node 0)
Accepted flit rate average= 0.050125
	minimum = 0.043 (at node 13)
	maximum = 0.0635 (at node 3)
Injected packet length average = 1
Accepted packet length average = 1
Total in-flight flits = 15 (0 measured)
latency change    = 0.00927774
throughput change = 0.0187032
Class 0:
Packet latency average = 19.8448
	minimum = 7
	maximum = 48
Network latency average = 19.8448
	minimum = 7
	maximum = 48
Slowest packet = 57466
Flit latency average = 19.8448
	minimum = 7
	maximum = 48
Slowest flit = 57466
Fragmentation average = 0
	minimum = 0
	maximum = 0
Injected packet rate average = 0.0489375
	minimum = 0.039 (at node 7)
	maximum = 0.067 (at node 10)
Accepted packet rate average = 0.049125
	minimum = 0.04 (at node 10)
	maximum = 0.062 (at node 1)
Injected flit rate average = 0.0489375
	minimum = 0.039 (at node 7)
	maximum = 0.067 (at node 10)
Accepted flit rate average= 0.049125
	minimum = 0.04 (at node 10)
	maximum = 0.062 (at node 1)
Injected packet length average = 1
Accepted packet length average = 1
Total in-flight flits = 12 (0 measured)
latency change    = 0.0292157
throughput change = 0.0203562
Warmed up ...Time used is 3000 cycles
Class 0:
Packet latency average = 19.7775
	minimum = 7
	maximum = 44
Network latency average = 19.7775
	minimum = 7
	maximum = 44
Slowest packet = 58207
Flit latency average = 19.7874
	minimum = 7
	maximum = 44
Slowest flit = 58207
Fragmentation average = 0
	minimum = 0
	maximum = 0
Injected packet rate average = 0.04925
	minimum = 0.036 (at node 2)
	maximum = 0.059 (at node 11)
Accepted packet rate average = 0.0485
	minimum = 0.036 (at node 6)
	maximum = 0.07 (at node 0)
Injected flit rate average = 0.04925
	minimum = 0.036 (at node 2)
	maximum = 0.059 (at node 11)
Accepted flit rate average= 0.0485
	minimum = 0.036 (at node 6)
	maximum = 0.07 (at node 0)
Injected packet length average = 1
Accepted packet length average = 1
Total in-flight flits = 24 (24 measured)
latency change    = 0.0034027
throughput change = 0.0128866
Class 0:
Packet latency average = 19.7894
	minimum = 7
	maximum = 47
Network latency average = 19.7894
	minimum = 7
	maximum = 47
Slowest packet = 58718
Flit latency average = 19.7941
	minimum = 7
	maximum = 47
Slowest flit = 58718
Fragmentation average = 0
	minimum = 0
	maximum = 0
Injected packet rate average = 0.049875
	minimum = 0.041 (at node 2)
	maximum = 0.0625 (at node 12)
Accepted packet rate average = 0.0497812
	minimum = 0.042 (at node 1)
	maximum = 0.0595 (at node 0)
Injected flit rate average = 0.049875
	minimum = 0.041 (at node 2)
	maximum = 0.0625 (at node 12)
Accepted flit rate average= 0.0497812
	minimum = 0.042 (at node 1)
	maximum = 0.0595 (at node 0)
Injected packet length average = 1
Accepted packet length average = 1
Total in-flight flits = 15 (15 measured)
latency change    = 0.000600671
throughput change = 0.0257376
Class 0:
Packet latency average = 19.9238
	minimum = 7
	maximum = 47
Network latency average = 19.9238
	minimum = 7
	maximum = 47
Slowest packet = 58718
Flit latency average = 19.9263
	minimum = 7
	maximum = 47
Slowest flit = 58718
Fragmentation average = 0
	minimum = 0
	maximum = 0
Injected packet rate average = 0.0501042
	minimum = 0.0423333 (at node 14)
	maximum = 0.0583333 (at node 12)
Accepted packet rate average = 0.0500417
	minimum = 0.04 (at node 1)
	maximum = 0.0576667 (at node 0)
Injected flit rate average = 0.0501042
	minimum = 0.0423333 (at node 14)
	maximum = 0.0583333 (at node 12)
Accepted flit rate average= 0.0500417
	minimum = 0.04 (at node 1)
	maximum = 0.0576667 (at node 0)
Injected packet length average = 1
Accepted packet length average = 1
Total in-flight flits = 15 (15 measured)
latency change    = 0.00674948
throughput change = 0.005204
Draining all recorded packets ...
Draining remaining packets ...
Time taken is 6053 cycles
Class 0:
Packet latency average = 20.1904
	minimum = 7
	maximum = 52
Network latency average = 20.1904
	minimum = 7
	maximum = 52
Slowest packet = 60808
Flit latency average = 20.1904
	minimum = 7
	maximum = 52
Slowest flit = 60808
Fragmentation average = 0
	minimum = 0
	maximum = 0
Injected packet rate average = 0.0518125
	minimum = 0.037 (at node 8)
	maximum = 0.067 (at node 3)
Accepted packet rate average = 0.050875
	minimum = 0.037 (at node 4)
	maximum = 0.071 (at node 5)
Injected flit rate average = 0.0518125
	minimum = 0.037 (at node 8)
	maximum = 0.067 (at node 3)
Accepted flit rate average= 0.050875
	minimum = 0.037 (at node 4)
	maximum = 0.071 (at node 5)
Injected packet length average = 1
Accepted packet length average = 1
Total in-flight flits = 15 (0 measured)
latency change    = 1
throughput change = 1
Class 0:
Packet latency average = 19.8745
	minimum = 7
	maximum = 52
Network latency average = 19.8745
	minimum = 7
	maximum = 52
Slowest packet = 60808
Flit latency average = 19.8745
	minimum = 7
	maximum = 52
Slowest flit = 60808
Fragmentation average = 0
	minimum = 0
	maximum = 0
Injected packet rate average = 0.0490625
	minimum = 0.0345 (at node 8)
	maximum = 0.057 (at node 6)
Accepted packet rate average = 0.0485625
	minimum = 0.0385 (at node 4)
	maximum = 0.0565 (at node 5)
Injected flit rate average = 0.0490625
	minimum = 0.0345 (at node 8)
	maximum = 0.057 (at node 6)
Accepted flit rate average= 0.0485625
	minimum = 0.0385 (at node 4)
	maximum = 0.0565 (at node 5)
Injected packet length average = 1
Accepted packet length average = 1
Total in-flight flits = 16 (0 measured)
latency change    = 0.0158947
throughput change = 0.047619
Class 0:
Packet latency average = 20.0559
	minimum = 7
	maximum = 44
Network latency average = 20.0559
	minimum = 7
	maximum = 44
Slowest packet = 62239
Flit latency average = 20.0559
	minimum = 7
	maximum = 44
Slowest flit = 62239
Fragmentation average = 0
	minimum = 0
	maximum = 0
Injected packet rate average = 0.0505
	minimum = 0.04 (at node 13)
	maximum = 0.059 (at node 4)
Accepted packet rate average = 0.0503125
	minimum = 0.04 (at node 4)
	maximum = 0.06 (at node 13)
Injected flit rate average = 0.0505
	minimum = 0.04 (at node 13)
	maximum = 0.059 (at node 4)
Accepted flit rate average= 0.0503125
	minimum = 0.04 (at node 4)
	maximum = 0.06 (at node 13)
Injected packet length average = 1
Accepted packet length average = 1
Total in-flight flits = 19 (0 measured)
latency change    = 0.00904388
throughput change = 0.0347826
Warmed up ...Time used is 3000 cycles
Class 0:
Packet latency average = 19.9224
	minimum = 7
	maximum = 46
Network latency average = 19.9224
	minimum = 7
	maximum = 46
Slowest packet = 63038
Flit latency average = 20.0245
	minimum = 7
	maximum = 46
Slowest flit = 63038
Fragmentation average = 0
	minimum = 0
	maximum = 0
Injected packet rate average = 0.0531875
	minimum = 0.041 (at node 12)
	maximum = 0.071 (at node 8)
Accepted packet rate average = 0.0535625
	minimum = 0.045 (at node 5)
	maximum = 0.066 (at node 7)
Injected flit rate average = 0.0531875
	minimum = 0.041 (at node 12)
	maximum = 0.071 (at node 8)
Accepted flit rate average= 0.0535625
	minimum = 0.045 (at node 5)
	maximum = 0.066 (at node 7)
Injected packet length average = 1
Accepted packet length average = 1
Total in-flight flits = 13 (13 measured)
latency change    = 0.00669929
throughput change = 0.0606768
Class 0:
Packet latency average = 19.9962
	minimum = 7
	maximum = 46
Network latency average = 19.9962
	minimum = 7
	maximum = 46
Slowest packet = 63038
Flit latency average = 20.0497
	minimum = 7
	maximum = 46
Slowest flit = 63038
Fragmentation average = 0
	minimum = 0
	maximum = 0
Injected packet rate average = 0.050375
	minimum = 0.043 (at node 10)
	maximum = 0.061 (at node 8)
Accepted packet rate average = 0.0502812
	minimum = 0.044 (at node 0)
	maximum = 0.0565 (at node 2)
Injected flit rate average = 0.050375
	minimum = 0.043 (at node 10)
	maximum = 0.061 (at node 8)
Accepted flit rate average= 0.0502812
	minimum = 0.044 (at node 0)
	maximum = 0.0565 (at node 2)
Injected packet length average = 1
Accepted packet length average = 1
Total in-flight flits = 22 (22 measured)
latency change    = 0.0036903
throughput change = 0.0652579
Class 0:
Packet latency average = 20.2358
	minimum = 7
	maximum = 52
Network latency average = 20.2358
	minimum = 7
	maximum = 52
Slowest packet = 64890
Flit latency average = 20.2695
	minimum = 7
	maximum = 52
Slowest flit = 64890
Fragmentation average = 0
	minimum = 0
	maximum = 0
Injected packet rate average = 0.0502292
	minimum = 0.0426667 (at node 10)
	maximum = 0.0576667 (at node 8)
Accepted packet rate average = 0.0503958
	minimum = 0.043 (at node 0)
	maximum = 0.0573333 (at node 15)
Injected flit rate average = 0.0502292
	minimum = 0.0426667 (at node 10)
	maximum = 0.0576667 (at node 8)
Accepted flit rate average= 0.0503958
	minimum = 0.043 (at node 0)
	maximum = 0.0573333 (at node 15)
Injected packet length average = 1
Accepted packet length average = 1
Total in-flight flits = 11 (11 measured)
latency change    = 0.0118407
throughput change = 0.00227367
Class 0:
Packet latency average = 20.2793
	minimum = 7
	maximum = 53
Network latency average = 20.2793
	minimum = 7
	maximum = 53
Slowest packet = 65117
Flit latency average = 20.3042
	minimum = 7
	maximum = 53
Slowest flit = 65117
Fragmentation average = 0
	minimum = 0
	maximum = 0
Injected packet rate average = 0.050375
	minimum = 0.04525 (at node 0)
	maximum = 0.057 (at node 8)
Accepted packet rate average = 0.0504844
	minimum = 0.04375 (at node 4)
	maximum = 0.05425 (at node 2)
Injected flit rate average = 0.050375
	minimum = 0.04525 (at node 0)
	maximum = 0.057 (at node 8)
Accepted flit rate average= 0.0504844
	minimum = 0.04375 (at node 4)
	maximum = 0.05425 (at node 2)
Injected packet length average = 1
Accepted packet length average = 1
Total in-flight flits = 12 (12 measured)
latency change    = 0.00214169
throughput change = 0.00175384
Class 0:
Packet latency average = 20.2364
	minimum = 7
	maximum = 55
Network latency average = 20.2364
	minimum = 7
	maximum = 55
Slowest packet = 66077
Flit latency average = 20.2563
	minimum = 7
	maximum = 55
Slowest flit = 66077
Fragmentation average = 0
	minimum = 0
	maximum = 0
Injected packet rate average = 0.05125
	minimum = 0.0466 (at node 10)
	maximum = 0.057 (at node 8)
Accepted packet rate average = 0.0512125
	minimum = 0.0466 (at node 4)
	maximum = 0.0558 (at node 2)
Injected flit rate average = 0.05125
	minimum = 0.0466 (at node 10)
	maximum = 0.057 (at node 8)
Accepted flit rate average= 0.0512125
	minimum = 0.0466 (at node 4)
	maximum = 0.0558 (at node 2)
Injected packet length average = 1
Accepted packet length average = 1
Total in-flight flits = 22 (22 measured)
latency change    = 0.0021187
throughput change = 0.0142177
Draining all recorded packets ...
Draining remaining packets ...
Time taken is 8067 cycles
Class 0:
Packet latency average = 20.438
	minimum = 7
	maximum = 61
Network latency average = 20.438
	minimum = 7
	maximum = 61
Slowest packet = 67406
Flit latency average = 20.438
	minimum = 7
	maximum = 61
Slowest flit = 67406
Fragmentation average = 0
	minimum = 0
	maximum = 0
Injected packet rate average = 0.0495
	minimum = 0.035 (at node 10)
	maximum = 0.059 (at node 15)
Accepted packet rate average = 0.048375
	minimum = 0.031 (at node 10)
	maximum = 0.062 (at node 12)
Injected flit rate average = 0.0495
	minimum = 0.035 (at node 10)
	maximum = 0.059 (at node 15)
Accepted flit rate average= 0.048375
	minimum = 0.031 (at node 10)
	maximum = 0.062 (at node 12)
Injected packet length average = 1
Accepted packet length average = 1
Total in-flight flits = 18 (0 measured)
latency change    = 1
throughput change = 1
Class 0:
Packet latency average = 20.5861
	minimum = 7
	maximum = 61
Network latency average = 20.5861
	minimum = 7
	maximum = 61
Slowest packet = 67406
Flit latency average = 20.5861
	minimum = 7
	maximum = 61
Slowest flit = 67406
Fragmentation average = 0
	minimum = 0
	maximum = 0
Injected packet rate average = 0.051
	minimum = 0.0415 (at node 10)
	maximum = 0.062 (at node 15)
Accepted packet rate average = 0.0502812
	minimum = 0.036 (at node 10)
	maximum = 0.057 (at node 12)
Injected flit rate average = 0.051
	minimum = 0.0415 (at node 10)
	maximum = 0.062 (at node 15)
Accepted flit rate average= 0.0502812
	minimum = 0.036 (at node 10)
	maximum = 0.057 (at node 12)
Injected packet length average = 1
Accepted packet length average = 1
Total in-flight flits = 23 (0 measured)
latency change    = 0.00719388
throughput change = 0.0379117
Class 0:
Packet latency average = 19.9093
	minimum = 7
	maximum = 48
Network latency average = 19.9093
	minimum = 7
	maximum = 48
Slowest packet = 69081
Flit latency average = 19.9093
	minimum = 7
	maximum = 48
Slowest flit = 69081
Fragmentation average = 0
	minimum = 0
	maximum = 0
Injected packet rate average = 0.051125
	minimum = 0.037 (at node 11)
	maximum = 0.061 (at node 9)
Accepted packet rate average = 0.0516875
	minimum = 0.035 (at node 15)
	maximum = 0.07 (at node 13)
Injected flit rate average = 0.051125
	minimum = 0.037 (at node 11)
	maximum = 0.061 (at node 9)
Accepted flit rate average= 0.0516875
	minimum = 0.035 (at node 15)
	maximum = 0.07 (at node 13)
Injected packet length average = 1
Accepted packet length average = 1
Total in-flight flits = 14 (0 measured)
latency change    = 0.0339925
throughput change = 0.0272068
Warmed up ...Time used is 3000 cycles
Class 0:
Packet latency average = 20.195
	minimum = 7
	maximum = 52
Network latency average = 20.195
	minimum = 7
	maximum = 52
Slowest packet = 69547
Flit latency average = 20.2384
	minimum = 7
	maximum = 52
Slowest flit = 69547
Fragmentation average = 0
	minimum = 0
	maximum = 0
Injected packet rate average = 0.0539375
	minimum = 0.043 (at node 10)
	maximum = 0.065 (at node 4)
Accepted packet rate average = 0.05375
	minimum = 0.039 (at node 9)
	maximum = 0.064 (at node 13)
Injected flit rate average = 0.0539375
	minimum = 0.043 (at node 10)
	maximum = 0.065 (at node 4)
Accepted flit rate average= 0.05375
	minimum = 0.039 (at node 9)
	maximum = 0.064 (at node 13)
Injected packet length average = 1
Accepted packet length average = 1
Total in-flight flits = 17 (17 measured)
latency change    = 0.0141483
throughput change = 0.0383721
Class 0:
Packet latency average = 20.0964
	minimum = 7
	maximum = 52
Network latency average = 20.0964
	minimum = 7
	maximum = 52
Slowest packet = 69547
Flit latency average = 20.1196
	minimum = 7
	maximum = 52
Slowest flit = 69547
Fragmentation average = 0
	minimum = 0
	maximum = 0
Injected packet rate average = 0.0520938
	minimum = 0.039 (at node 10)
	maximum = 0.0655 (at node 6)
Accepted packet rate average = 0.052
	minimum = 0.0435 (at node 2)
	maximum = 0.0605 (at node 11)
Injected flit rate average = 0.0520938
	minimum = 0.039 (at node 10)
	maximum = 0.0655 (at node 6)
Accepted flit rate average= 0.052
	minimum = 0.0435 (at node 2)
	maximum = 0.0605 (at node 11)
Injected packet length average = 1
Accepted packet length average = 1
Total in-flight flits = 17 (17 measured)
latency change    = 0.00490993
throughput change = 0.0336538
Class 0:
Packet latency average = 20.2009
	minimum = 7
	maximum = 52
Network latency average = 20.2009
	minimum = 7
	maximum = 52
Slowest packet = 69547
Flit latency average = 20.216
	minimum = 7
	maximum = 52
Slowest flit = 69547
Fragmentation average = 0
	minimum = 0
	maximum = 0
Injected packet rate average = 0.051375
	minimum = 0.0443333 (at node 2)
	maximum = 0.062 (at node 6)
Accepted packet rate average = 0.0513125
	minimum = 0.0413333 (at node 2)
	maximum = 0.0613333 (at node 11)
Injected flit rate average = 0.051375
	minimum = 0.0443333 (at node 2)
	maximum = 0.062 (at node 6)
Accepted flit rate average= 0.0513125
	minimum = 0.0413333 (at node 2)
	maximum = 0.0613333 (at node 11)
Injected packet length average = 1
Accepted packet length average = 1
Total in-flight flits = 17 (17 measured)
latency change    = 0.00517475
throughput change = 0.0133983
Draining all recorded packets ...
Draining remaining packets ...
Time taken is 6062 cycles
Class 0:
Packet latency average = 20.1001
	minimum = 7
	maximum = 44
Network latency average = 20.1001
	minimum = 7
	maximum = 44
Slowest packet = 71908
Flit latency average = 20.1001
	minimum = 7
	maximum = 44
Slowest flit = 71908
Fragmentation average = 0
	minimum = 0
	maximum = 0
Injected packet rate average = 0.0495625
	minimum = 0.038 (at node 11)
	maximum = 0.058 (at node 4)
Accepted packet rate average = 0.0486875
	minimum = 0.037 (at node 11)
	maximum = 0.064 (at node 0)
Injected flit rate average = 0.0495625
	minimum = 0.038 (at node 11)
	maximum = 0.058 (at node 4)
Accepted flit rate average= 0.0486875
	minimum = 0.037 (at node 11)
	maximum = 0.064 (at node 0)
Injected packet length average = 1
Accepted packet length average = 1
Total in-flight flits = 14 (0 measured)
latency change    = 1
throughput change = 1
Class 0:
Packet latency average = 20.1774
	minimum = 7
	maximum = 53
Network latency average = 20.1774
	minimum = 7
	maximum = 53
Slowest packet = 73130
Flit latency average = 20.1774
	minimum = 7
	maximum = 53
Slowest flit = 73130
Fragmentation average = 0
	minimum = 0
	maximum = 0
Injected packet rate average = 0.0481562
	minimum = 0.041 (at node 15)
	maximum = 0.06 (at node 8)
Accepted packet rate average = 0.04775
	minimum = 0.037 (at node 11)
	maximum = 0.0605 (at node 0)
Injected flit rate average = 0.0481562
	minimum = 0.041 (at node 15)
	maximum = 0.06 (at node 8)
Accepted flit rate average= 0.04775
	minimum = 0.037 (at node 11)
	maximum = 0.0605 (at node 0)
Injected packet length average = 1
Accepted packet length average = 1
Total in-flight flits = 13 (0 measured)
latency change    = 0.00382744
throughput change = 0.0196335
Class 0:
Packet latency average = 20.1791
	minimum = 7
	maximum = 49
Network latency average = 20.1791
	minimum = 7
	maximum = 49
Slowest packet = 73425
Flit latency average = 20.1791
	minimum = 7
	maximum = 49
Slowest flit = 73425
Fragmentation average = 0
	minimum = 0
	maximum = 0
Injected packet rate average = 0.05075
[...]
	maximum = 0.0543333 (at node 2)
Accepted packet rate average = 0.0501458
	minimum = 0.043 (at node 10)
	maximum = 0.056 (at node 0)
Injected flit rate average = 0.0499375
	minimum = 0.0433333 (at node 9)
	maximum = 0.0543333 (at node 2)
Accepted flit rate average= 0.0501458
	minimum = 0.043 (at node 10)
	maximum = 0.056 (at node 0)
Injected packet length average = 1
Accepted packet length average = 1
Total in-flight flits = 13 (13 measured)
latency change    = 0.00261793
throughput change = 0.00851683
Draining all recorded packets ...
Draining remaining packets ...
Time taken is 6053 cycles
Class 0:
Packet latency average = 20.0639
	minimum = 7
	maximum = 45
Network latency average = 20.0639
	minimum = 7
	maximum = 45
Slowest packet = 499064
Flit latency average = 20.0639
	minimum = 7
	maximum = 45
Slowest flit = 499064
Fragmentation average = 0
	minimum = 0
	maximum = 0
Injected packet rate average = 0.052
	minimum = 0.039 (at node 8)
	maximum = 0.057 (at node 9)
Accepted packet rate average = 0.050875
	minimum = 0.04 (at node 2)
	maximum = 0.066 (at node 6)
Injected flit rate average = 0.052
	minimum = 0.039 (at node 8)
	maximum = 0.057 (at node 9)
Accepted flit rate average= 0.050875
	minimum = 0.04 (at node 2)
	maximum = 0.066 (at node 6)
Injected packet length average = 1
Accepted packet length average = 1
Total in-flight flits = 18 (0 measured)
latency change    = 1
throughput change = 1
Class 0:
Packet latency average = 20.0925
	minimum = 7
	maximum = 45
Network latency average = 20.0925
	minimum = 7
	maximum = 45
Slowest packet = 499064
Flit latency average = 20.0925
	minimum = 7
	maximum = 45
Slowest flit = 499064
Fragmentation average = 0
	minimum = 0
	maximum = 0
Injected packet rate average = 0.0510938
	minimum = 0.045 (at node 5)
	maximum = 0.055 (at node 9)
Accepted packet rate average = 0.0506875
	minimum = 0.043 (at node 8)
	maximum = 0.064 (at node 6)
Injected flit rate average = 0.0510938
	minimum = 0.045 (at node 5)
	maximum = 0.055 (at node 9)
Accepted flit rate average= 0.0506875
	minimum = 0.043 (at node 8)
	maximum = 0.064 (at node 6)
Injected packet length average = 1
Accepted packet length average = 1
Total in-flight flits = 13 (0 measured)
latency change    = 0.00142324
throughput change = 0.00369914
Class 0:
Packet latency average = 20.897
	minimum = 7
	maximum = 48
Network latency average = 20.897
	minimum = 7
	maximum = 48
Slowest packet = 500893
Flit latency average = 20.897
	minimum = 7
	maximum = 48
Slowest flit = 500893
Fragmentation average = 0
	minimum = 0
	maximum = 0
Injected packet rate average = 0.0505
	minimum = 0.038 (at node 0)
	maximum = 0.063 (at node 3)
Accepted packet rate average = 0.050375
	minimum = 0.039 (at node 8)
	maximum = 0.064 (at node 3)
Injected flit rate average = 0.0505
	minimum = 0.038 (at node 0)
	maximum = 0.063 (at node 3)
Accepted flit rate average= 0.050375
	minimum = 0.039 (at node 8)
	maximum = 0.064 (at node 3)
Injected packet length average = 1
Accepted packet length average = 1
Total in-flight flits = 15 (0 measured)
latency change    = 0.0385004
throughput change = 0.00620347
Warmed up ...Time used is 3000 cycles
Class 0:
Packet latency average = 19.8426
	minimum = 7
	maximum = 47
Network latency average = 19.8426
	minimum = 7
	maximum = 47
Slowest packet = 501282
Flit latency average = 19.8954
	minimum = 7
	maximum = 47
Slowest flit = 501282
Fragmentation average = 0
	minimum = 0
	maximum = 0
Injected packet rate average = 0.0514375
	minimum = 0.04 (at node 12)
	maximum = 0.061 (at node 6)
Accepted packet rate average = 0.051375
	minimum = 0.039 (at node 4)
	maximum = 0.06 (at node 13)
Injected flit rate average = 0.0514375
	minimum = 0.04 (at node 12)
	maximum = 0.061 (at node 6)
Accepted flit rate average= 0.051375
	minimum = 0.039 (at node 4)
	maximum = 0.06 (at node 13)
Injected packet length average = 1
Accepted packet length average = 1
Total in-flight flits = 16 (16 measured)
latency change    = 0.0531379
throughput change = 0.0194647
Class 0:
Packet latency average = 20.0006
	minimum = 7
	maximum = 47
Network latency average = 20.0006
	minimum = 7
	maximum = 47
Slowest packet = 501282
Flit latency average = 20.0261
	minimum = 7
	maximum = 47
Slowest flit = 501282
Fragmentation average = 0
	minimum = 0
	maximum = 0
Injected packet rate average = 0.05025
	minimum = 0.043 (at node 8)
	maximum = 0.058 (at node 13)
Accepted packet rate average = 0.0502812
	minimum = 0.04 (at node 11)
	maximum = 0.0595 (at node 1)
Injected flit rate average = 0.05025
	minimum = 0.043 (at node 8)
	maximum = 0.058 (at node 13)
Accepted flit rate average= 0.0502812
	minimum = 0.04 (at node 11)
	maximum = 0.0595 (at node 1)
Injected packet length average = 1
Accepted packet length average = 1
Total in-flight flits = 14 (14 measured)
latency change    = 0.00789977
throughput change = 0.0217526
Class 0:
Packet latency average = 20.1685
	minimum = 7
	maximum = 47
Network latency average = 20.1685
	minimum = 7
	maximum = 47
Slowest packet = 501282
Flit latency average = 20.1844
	minimum = 7
	maximum = 47
Slowest flit = 501282
Fragmentation average = 0
	minimum = 0
	maximum = 0
Injected packet rate average = 0.050375
	minimum = 0.0436667 (at node 12)
	maximum = 0.0553333 (at node 4)
Accepted packet rate average = 0.0502708
	minimum = 0.0416667 (at node 14)
	maximum = 0.0586667 (at node 15)
Injected flit rate average = 0.050375
	minimum = 0.0436667 (at node 12)
	maximum = 0.0553333 (at node 4)
Accepted flit rate average= 0.0502708
	minimum = 0.0416667 (at node 14)
	maximum = 0.0586667 (at node 15)
Injected packet length average = 1
Accepted packet length average = 1
Total in-flight flits = 20 (20 measured)
latency change    = 0.00832222
throughput change = 0.000207211
Class 0:
Packet latency average = 20.0367
	minimum = 7
	maximum = 47
Network latency average = 20.0367
	minimum = 7
	maximum = 47
Slowest packet = 501282
Flit latency average = 20.0496
	minimum = 7
	maximum = 47
Slowest flit = 501282
Fragmentation average = 0
	minimum = 0
	maximum = 0
Injected packet rate average = 0.0492187
	minimum = 0.04475 (at node 12)
	maximum = 0.0555 (at node 5)
Accepted packet rate average = 0.0491562
	minimum = 0.0415 (at node 14)
	maximum = 0.055 (at node 1)
Injected flit rate average = 0.0492187
	minimum = 0.04475 (at node 12)
	maximum = 0.0555 (at node 5)
Accepted flit rate average= 0.0491562
	minimum = 0.0415 (at node 14)
	maximum = 0.055 (at node 1)
Injected packet length average = 1
Accepted packet length average = 1
Total in-flight flits = 19 (19 measured)
latency change    = 0.00657514
throughput change = 0.0226743
Draining all recorded packets ...
Draining remaining packets ...
Time taken is 7048 cycles
Class 0:
Packet latency average = 19.965
	minimum = 7
	maximum = 46
Network latency average = 19.965
	minimum = 7
	maximum = 46
Slowest packet = 504814
Flit latency average = 19.965
	minimum = 7
	maximum = 46
Slowest flit = 504814
Fragmentation average = 0
	minimum = 0
	maximum = 0
Injected packet rate average = 0.0513125
	minimum = 0.041 (at node 1)
	maximum = 0.059 (at node 14)
Accepted packet rate average = 0.0499375
	minimum = 0.038 (at node 12)
	maximum = 0.066 (at node 2)
Injected flit rate average = 0.0513125
	minimum = 0.041 (at node 1)
	maximum = 0.059 (at node 14)
Accepted flit rate average= 0.0499375
	minimum = 0.038 (at node 12)
	maximum = 0.066 (at node 2)
Injected packet length average = 1
Accepted packet length average = 1
Total in-flight flits = 22 (0 measured)
latency change    = 1
throughput change = 1
Class 0:
Packet latency average = 20.1364
	minimum = 7
	maximum = 49
Network latency average = 20.1364
	minimum = 7
	maximum = 49
Slowest packet = 505474
Flit latency average = 20.1364
	minimum = 7
	maximum = 49
Slowest flit = 505474
Fragmentation average = 0
	minimum = 0
	maximum = 0
Injected packet rate average = 0.04975
	minimum = 0.0415 (at node 4)
	maximum = 0.0565 (at node 11)
Accepted packet rate average = 0.0495
	minimum = 0.042 (at node 4)
	maximum = 0.057 (at node 5)
Injected flit rate average = 0.04975
	minimum = 0.0415 (at node 4)
	maximum = 0.0565 (at node 11)
Accepted flit rate average= 0.0495
	minimum = 0.042 (at node 4)
	maximum = 0.057 (at node 5)
Injected packet length average = 1
Accepted packet length average = 1
Total in-flight flits = 8 (0 measured)
latency change    = 0.00851233
throughput change = 0.00883838
Class 0:
Packet latency average = 19.9882
	minimum = 7
	maximum = 49
Network latency average = 19.9882
	minimum = 7
	maximum = 49
Slowest packet = 506547
Flit latency average = 19.9882
	minimum = 7
	maximum = 49
Slowest flit = 506547
Fragmentation average = 0
	minimum = 0
	maximum = 0
Injected packet rate average = 0.0485625
	minimum = 0.036 (at node 0)
	maximum = 0.063 (at node 7)
Accepted packet rate average = 0.0478125
	minimum = 0.041 (at node 3)
	maximum = 0.058 (at node 13)
Injected flit rate average = 0.0485625
	minimum = 0.036 (at node 0)
	maximum = 0.063 (at node 7)
Accepted flit rate average= 0.0478125
	minimum = 0.041 (at node 3)
	maximum = 0.058 (at node 13)
Injected packet length average = 1
Accepted packet length average = 1
Total in-flight flits = 20 (0 measured)
latency change    = 0.00741078
throughput change = 0.0352941
Warmed up ...Time used is 3000 cycles
Class 0:
Packet latency average = 20.3456
	minimum = 7
	maximum = 53
Network latency average = 20.3456
	minimum = 7
	maximum = 53
Slowest packet = 507569
Flit latency average = 20.427
	minimum = 7
	maximum = 53
Slowest flit = 507569
Fragmentation average = 0
	minimum = 0
	maximum = 0
Injected packet rate average = 0.052125
	minimum = 0.04 (at node 5)
	maximum = 0.06 (at node 3)
Accepted packet rate average = 0.05225
	minimum = 0.042 (at node 11)
	maximum = 0.065 (at node 14)
Injected flit rate average = 0.052125
	minimum = 0.04 (at node 5)
	maximum = 0.06 (at node 3)
Accepted flit rate average= 0.05225
	minimum = 0.042 (at node 11)
	maximum = 0.065 (at node 14)
Injected packet length average = 1
Accepted packet length average = 1
Total in-flight flits = 18 (18 measured)
latency change    = 0.0175641
throughput change = 0.0849282
Class 0:
Packet latency average = 20.4043
	minimum = 7
	maximum = 53
Network latency average = 20.4043
	minimum = 7
	maximum = 53
Slowest packet = 507569
Flit latency average = 20.4446
	minimum = 7
	maximum = 53
Slowest flit = 507569
Fragmentation average = 0
	minimum = 0
	maximum = 0
Injected packet rate average = 0.0517188
	minimum = 0.045 (at node 9)
	maximum = 0.0595 (at node 6)
Accepted packet rate average = 0.051875
	minimum = 0.047 (at node 8)
	maximum = 0.059 (at node 5)
Injected flit rate average = 0.0517188
	minimum = 0.045 (at node 9)
	maximum = 0.0595 (at node 6)
Accepted flit rate average= 0.051875
	minimum = 0.047 (at node 8)
	maximum = 0.059 (at node 5)
Injected packet length average = 1
Accepted packet length average = 1
Total in-flight flits = 15 (15 measured)
latency change    = 0.00287587
throughput change = 0.00722892
Class 0:
Packet latency average = 20.238
	minimum = 7
	maximum = 53
Network latency average = 20.238
	minimum = 7
	maximum = 53
Slowest packet = 507569
Flit latency average = 20.2666
	minimum = 7
	maximum = 53
Slowest flit = 507569
Fragmentation average = 0
	minimum = 0
	maximum = 0
Injected packet rate average = 0.0509167
	minimum = 0.0436667 (at node 15)
	maximum = 0.0586667 (at node 6)
Accepted packet rate average = 0.0510208
	minimum = 0.046 (at node 15)
	maximum = 0.059 (at node 5)
Injected flit rate average = 0.0509167
	minimum = 0.0436667 (at node 15)
	maximum = 0.0586667 (at node 6)
Accepted flit rate average= 0.0510208
	minimum = 0.046 (at node 15)
	maximum = 0.059 (at node 5)
Injected packet length average = 1
Accepted packet length average = 1
Total in-flight flits = 15 (15 measured)
latency change    = 0.00821774
throughput change = 0.0167415
Class 0:
Packet latency average = 20.1577
	minimum = 7
	maximum = 53
Network latency average = 20.1577
	minimum = 7
	maximum = 53
Slowest packet = 507569
Flit latency average = 20.18
	minimum = 7
	maximum = 53
Slowest flit = 507569
Fragmentation average = 0
	minimum = 0
	maximum = 0
Injected packet rate average = 0.0503125
	minimum = 0.04475 (at node 15)
	maximum = 0.0575 (at node 3)
Accepted packet rate average = 0.0503594
	minimum = 0.04475 (at node 6)
	maximum = 0.05825 (at node 5)
Injected flit rate average = 0.0503125
	minimum = 0.04475 (at node 15)
	maximum = 0.0575 (at node 3)
Accepted flit rate average= 0.0503594
	minimum = 0.04475 (at node 6)
	maximum = 0.05825 (at node 5)
Injected packet length average = 1
Accepted packet length average = 1
Total in-flight flits = 17 (17 measured)
latency change    = 0.00398326
throughput change = 0.0131348
Draining all recorded packets ...
Draining remaining packets ...
Time taken is 7055 cycles
Class 0:
Packet latency average = 19.8932
	minimum = 7
	maximum = 40
Network latency average = 19.8932
	minimum = 7
	maximum = 40
Slowest packet = 510330
Flit latency average = 19.8932
	minimum = 7
	maximum = 40
Slowest flit = 510330
Fragmentation average = 0
	minimum = 0
	maximum = 0
Injected packet rate average = 0.0496875
	minimum = 0.037 (at node 13)
	maximum = 0.061 (at node 11)
Accepted packet rate average = 0.0485625
	minimum = 0.036 (at node 3)
	maximum = 0.057 (at node 4)
Injected flit rate average = 0.0496875
	minimum = 0.037 (at node 13)
	maximum = 0.061 (at node 11)
Accepted flit rate average= 0.0485625
	minimum = 0.036 (at node 3)
	maximum = 0.057 (at node 4)
Injected packet length average = 1
Accepted packet length average = 1
Total in-flight flits = 18 (0 measured)
latency change    = 1
throughput change = 1
Class 0:
Packet latency average = 19.7701
	minimum = 7
	maximum = 42
Network latency average = 19.7701
	minimum = 7
	maximum = 42
Slowest packet = 511104
Flit latency average = 19.7701
	minimum = 7
	maximum = 42
Slowest flit = 511104
Fragmentation average = 0
	minimum = 0
	maximum = 0
Injected packet rate average = 0.0486562
	minimum = 0.0435 (at node 13)
	maximum = 0.0545 (at node 4)
Accepted packet rate average = 0.048125
	minimum = 0.0365 (at node 8)
	maximum = 0.057 (at node 4)
Injected flit rate average = 0.0486562
	minimum = 0.0435 (at node 13)
	maximum = 0.0545 (at node 4)
Accepted flit rate average= 0.048125
	minimum = 0.0365 (at node 8)
	maximum = 0.057 (at node 4)
Injected packet length average = 1
Accepted packet length average = 1
Total in-flight flits = 17 (0 measured)
latency change    = 0.00622399
throughput change = 0.00909091
Class 0:
Packet latency average = 20.5339
	minimum = 7
	maximum = 63
Network latency average = 20.5327
	minimum = 7
	maximum = 63
Slowest packet = 512063
Flit latency average = 20.5327
	minimum = 7
	maximum = 63
Slowest flit = 512063
Fragmentation average = 0
	minimum = 0
	maximum = 0
Injected packet rate average = 0.052625
	minimum = 0.041 (at node 10)
	maximum = 0.065 (at node 3)
Accepted packet rate average = 0.0525625
	minimum = 0.045 (at node 6)
	maximum = 0.063 (at node 5)
Injected flit rate average = 0.052625
	minimum = 0.041 (at node 10)
	maximum = 0.065 (at node 3)
Accepted flit rate average= 0.0525625
	minimum = 0.045 (at node 6)
	maximum = 0.063 (at node 5)
Injected packet length average = 1
Accepted packet length average = 1
Total in-flight flits = 18 (0 measured)
latency change    = 0.037195
throughput change = 0.0844233
Warmed up ...Time used is 3000 cycles
Class 0:
Packet latency average = 19.918
	minimum = 7
	maximum = 46
Network latency average = 19.918
	minimum = 7
	maximum = 46
Slowest packet = 512929
Flit latency average = 20.0491
	minimum = 7
	maximum = 46
Slowest flit = 512929
Fragmentation average = 0
	minimum = 0
	maximum = 0
Injected packet rate average = 0.0483125
	minimum = 0.037 (at node 14)
	maximum = 0.057 (at node 8)
Accepted packet rate average = 0.048375
	minimum = 0.042 (at node 2)
	maximum = 0.062 (at node 1)
Injected flit rate average = 0.0483125
	minimum = 0.037 (at node 14)
	maximum = 0.057 (at node 8)
Accepted flit rate average= 0.048375
	minimum = 0.042 (at node 2)
	maximum = 0.062 (at node 1)
Injected packet length average = 1
Accepted packet length average = 1
Total in-flight flits = 17 (17 measured)
latency change    = 0.0309217
throughput change = 0.0865633
Class 0:
Packet latency average = 19.9527
	minimum = 7
	maximum = 46
Network latency average = 19.9527
	minimum = 7
	maximum = 46
Slowest packet = 512929
Flit latency average = 20.0173
	minimum = 7
	maximum = 46
Slowest flit = 512929
Fragmentation average = 0
	minimum = 0
	maximum = 0
Injected packet rate average = 0.0489375
	minimum = 0.042 (at node 11)
	maximum = 0.057 (at node 12)
Accepted packet rate average = 0.0487812
	minimum = 0.043 (at node 2)
	maximum = 0.055 (at node 1)
Injected flit rate average = 0.0489375
	minimum = 0.042 (at node 11)
	maximum = 0.057 (at node 12)
Accepted flit rate average= 0.0487812
	minimum = 0.043 (at node 2)
	maximum = 0.055 (at node 1)
Injected packet length average = 1
Accepted packet length average = 1
Total in-flight flits = 23 (23 measured)
latency change    = 0.00173912
throughput change = 0.00832799
Class 0:
Packet latency average = 20
	minimum = 7
	maximum = 46
Network latency average = 20
	minimum = 7
	maximum = 46
Slowest packet = 512929
Flit latency average = 20.0424
	minimum = 7
	maximum = 46
Slowest flit = 512929
Fragmentation average = 0
	minimum = 0
	maximum = 0
Injected packet rate average = 0.049
	minimum = 0.0446667 (at node 11)
	maximum = 0.0563333 (at node 12)
Accepted packet rate average = 0.0491667
	minimum = 0.0413333 (at node 11)
	maximum = 0.0543333 (at node 15)
Injected flit rate average = 0.049
	minimum = 0.0446667 (at node 11)
	maximum = 0.0563333 (at node 12)
Accepted flit rate average= 0.0491667
	minimum = 0.0413333 (at node 11)
	maximum = 0.0543333 (at node 15)
Injected packet length average = 1
Accepted packet length average = 1
Total in-flight flits = 10 (10 measured)
latency change    = 0.00236552
throughput change = 0.00783898
Class 0:
Packet latency average = 20.1522
	minimum = 7
	maximum = 49
Network latency average = 20.1522
	minimum = 7
	maximum = 49
Slowest packet = 515505
Flit latency average = 20.1832
	minimum = 7
	maximum = 49
Slowest flit = 515505
Fragmentation average = 0
	minimum = 0
	maximum = 0
Injected packet rate average = 0.0490937
	minimum = 0.04425 (at node 9)
	maximum = 0.05625 (at node 12)
Accepted packet rate average = 0.0490469
	minimum = 0.0395 (at node 11)
	maximum = 0.0545 (at node 1)
Injected flit rate average = 0.0490937
	minimum = 0.04425 (at node 9)
	maximum = 0.05625 (at node 12)
Accepted flit rate average= 0.0490469
	minimum = 0.0395 (at node 11)
	maximum = 0.0545 (at node 1)
Injected packet length average = 1
Accepted packet length average = 1
Total in-flight flits = 21 (21 measured)
latency change    = 0.00755227
throughput change = 0.00244239
Draining all recorded packets ...
Draining remaining packets ...
Time taken is 7059 cycles
====== Overall Traffic Statistics ======
====== Traffic class 0 ======
Packet latency average = 20.2448 (100 samples)
	minimum = 7 (100 samples)
	maximum = 54.65 (100 samples)
Network latency average = 20.2448 (100 samples)
	minimum = 7 (100 samples)
	maximum = 54.63 (100 samples)
Flit latency average = 20.2621 (100 samples)
	minimum = 7 (100 samples)
	maximum = 54.63 (100 samples)
Fragmentation average = 0 (100 samples)
	minimum = 0 (100 samples)
	maximum = 0 (100 samples)
Injected packet rate average = 0.0500257 (100 samples)
	minimum = 0.0435337 (100 samples)
	maximum = 0.0566488 (100 samples)
Accepted packet rate average = 0.0500333 (100 samples)
	minimum = 0.043198 (100 samples)
	maximum = 0.056626 (100 samples)
Injected flit rate average = 0.0500257 (100 samples)
	minimum = 0.0435337 (100 samples)
	maximum = 0.0566488 (100 samples)
Accepted flit rate average = 0.0500333 (100 samples)
	minimum = 0.043198 (100 samples)
	maximum = 0.056626 (100 samples)
Injected packet size average = 1 (100 samples)
Accepted packet size average = 1 (100 samples)
Hops average = 3.49788 (100 samples)
Total run time 6.66054
