Algorithm: adaptive_xy_yx
Traffic: hotspot
Rate: 0.01
Seed: 44
Latency: 35.0132
Elapsed: 0s

BEGIN Configuration File: /tmp/bs_adaptive_xy_yx_hotspot_r0.01_s44.cfg
topology = mesh;
k = 8;
n = 2;
routing_function = adaptive_xy_yx;
num_vcs = 4;
vc_buf_size = 4;
wait_for_tail_credit = 1;
traffic = hotspot(35,10);
packet_size = 1;
sim_type = latency;
injection_rate = 0.01;
warmup_periods = 3;
sample_period = 1000;
sim_count = 1;
seed = 44;
max_samples = 50;

END Configuration File: /tmp/bs_adaptive_xy_yx_hotspot_r0.01_s44.cfg
Class 0:
Packet latency average = 48.9644
	minimum = 7
	maximum = 258
Network latency average = 48.9644
	minimum = 7
	maximum = 258
Slowest packet = 271
Flit latency average = 48.9644
	minimum = 7
	maximum = 258
Slowest flit = 271
Fragmentation average = 0
	minimum = 0
	maximum = 0
Injected packet rate average = 0.0104531
	minimum = 0.005 (at node 9)
	maximum = 0.02 (at node 60)
Accepted packet rate average = 0.0100938
	minimum = 0 (at node 0)
	maximum = 0.646 (at node 35)
Injected flit rate average = 0.0104531
	minimum = 0.005 (at node 9)
	maximum = 0.02 (at node 60)
Accepted flit rate average= 0.0100938
	minimum = 0 (at node 0)
	maximum = 0.646 (at node 35)
Injected packet length average = 1
Accepted packet length average = 1
Total in-flight flits = 23 (0 measured)
latency change    = 1
throughput change = 1
Class 0:
Packet latency average = 43.4283
	minimum = 7
	maximum = 258
Network latency average = 43.4283
	minimum = 7
	maximum = 258
Slowest packet = 271
Flit latency average = 43.4283
	minimum = 7
	maximum = 258
Slowest flit = 271
Fragmentation average = 0
	minimum = 0
	maximum = 0
Injected packet rate average = 0.0101406
	minimum = 0.0045 (at node 9)
	maximum = 0.0165 (at node 46)
Accepted packet rate average = 0.00986719
	minimum = 0 (at node 0)
	maximum = 0.6315 (at node 35)
Injected flit rate average = 0.0101406
	minimum = 0.0045 (at node 9)
	maximum = 0.0165 (at node 46)
Accepted flit rate average= 0.00986719
	minimum = 0 (at node 0)
	maximum = 0.6315 (at node 35)
Injected packet length average = 1
Accepted packet length average = 1
Total in-flight flits = 35 (0 measured)
latency change    = 0.127476
throughput change = 0.0229612
Class 0:
Packet latency average = 43.327
	minimum = 7
	maximum = 264
Network latency average = 43.327
	minimum = 7
	maximum = 264
Slowest packet = 1339
Flit latency average = 43.327
	minimum = 7
	maximum = 264
Slowest flit = 1339
Fragmentation average = 0
	minimum = 0
	maximum = 0
Injected packet rate average = 0.00959375
	minimum = 0.004 (at node 9)
	maximum = 0.019 (at node 28)
Accepted packet rate average = 0.00989063
	minimum = 0 (at node 0)
	maximum = 0.633 (at node 35)
Injected flit rate average = 0.00959375
	minimum = 0.004 (at node 9)
	maximum = 0.019 (at node 28)
Accepted flit rate average= 0.00989063
	minimum = 0 (at node 0)
	maximum = 0.633 (at node 35)
Injected packet length average = 1
Accepted packet length average = 1
Total in-flight flits = 16 (0 measured)
latency change    = 0.00233875
throughput change = 0.00236967
Warmed up ...Time used is 3000 cycles
Class 0:
Packet latency average = 35.2738
	minimum = 7
	maximum = 85
Network latency average = 35.2738
	minimum = 7
	maximum = 85
Slowest packet = 2032
Flit latency average = 35.2119
	minimum = 7
	maximum = 85
Slowest flit = 2032
Fragmentation average = 0
	minimum = 0
	maximum = 0
Injected packet rate average = 0.00998438
	minimum = 0.005 (at node 32)
	maximum = 0.019 (at node 58)
Accepted packet rate average = 0.00995313
	minimum = 0 (at node 0)
	maximum = 0.637 (at node 35)
Injected flit rate average = 0.00998438
	minimum = 0.005 (at node 32)
	maximum = 0.019 (at node 58)
Accepted flit rate average= 0.00995313
	minimum = 0 (at node 0)
	maximum = 0.637 (at node 35)
Injected packet length average = 1
Accepted packet length average = 1
Total in-flight flits = 18 (18 measured)
latency change    = 0.228308
throughput change = 0.00627943
Class 0:
Packet latency average = 35.021
	minimum = 7
	maximum = 146
Network latency average = 35.021
	minimum = 7
	maximum = 146
Slowest packet = 2954
Flit latency average = 34.9928
	minimum = 7
	maximum = 146
Slowest flit = 2954
Fragmentation average = 0
	minimum = 0
	maximum = 0
Injected packet rate average = 0.00986719
	minimum = 0.0055 (at node 32)
	maximum = 0.0165 (at node 58)
Accepted packet rate average = 0.0098125
	minimum = 0 (at node 0)
	maximum = 0.628 (at node 35)
Injected flit rate average = 0.00986719
	minimum = 0.0055 (at node 32)
	maximum = 0.0165 (at node 58)
Accepted flit rate average= 0.0098125
	minimum = 0 (at node 0)
	maximum = 0.628 (at node 35)
Injected packet length average = 1
Accepted packet length average = 1
Total in-flight flits = 23 (23 measured)
latency change    = 0.00721808
throughput change = 0.0143312
Class 0:
Packet latency average = 34.8663
	minimum = 7
	maximum = 146
Network latency average = 34.8663
	minimum = 7
	maximum = 146
Slowest packet = 2954
Flit latency average = 34.8486
	minimum = 7
	maximum = 146
Slowest flit = 2954
Fragmentation average = 0
	minimum = 0
	maximum = 0
Injected packet rate average = 0.00972917
	minimum = 0.00666667 (at node 50)
	maximum = 0.0153333 (at node 9)
Accepted packet rate average = 0.00970312
	minimum = 0 (at node 0)
	maximum = 0.621 (at node 35)
Injected flit rate average = 0.00972917
	minimum = 0.00666667 (at node 50)
	maximum = 0.0153333 (at node 9)
Accepted flit rate average= 0.00970312
	minimum = 0 (at node 0)
	maximum = 0.621 (at node 35)
Injected packet length average = 1
Accepted packet length average = 1
Total in-flight flits = 21 (21 measured)
latency change    = 0.0044369
throughput change = 0.0112721
Class 0:
Packet latency average = 34.7076
	minimum = 7
	maximum = 146
Network latency average = 34.7076
	minimum = 7
	maximum = 146
Slowest packet = 2954
Flit latency average = 34.6953
	minimum = 7
	maximum = 146
Slowest flit = 2954
Fragmentation average = 0
	minimum = 0
	maximum = 0
Injected packet rate average = 0.00973437
	minimum = 0.0065 (at node 40)
	maximum = 0.0145 (at node 9)
Accepted packet rate average = 0.00967969
	minimum = 0 (at node 0)
	maximum = 0.6195 (at node 35)
Injected flit rate average = 0.00973437
	minimum = 0.0065 (at node 40)
	maximum = 0.0145 (at node 9)
Accepted flit rate average= 0.00967969
	minimum = 0 (at node 0)
	maximum = 0.6195 (at node 35)
Injected packet length average = 1
Accepted packet length average = 1
Total in-flight flits = 30 (30 measured)
latency change    = 0.00457292
throughput change = 0.00242131
Draining all recorded packets ...
Draining remaining packets ...
Time taken is 7250 cycles
====== Overall Traffic Statistics ======
====== Traffic class 0 ======
Packet latency average = 35.0132 (1 samples)
	minimum = 7 (1 samples)
	maximum = 192 (1 samples)
Network latency average = 35.0132 (1 samples)
	minimum = 7 (1 samples)
	maximum = 192 (1 samples)
Flit latency average = 35.2294 (1 samples)
	minimum = 7 (1 samples)
	maximum = 192 (1 samples)
Fragmentation average = 0 (1 samples)
	minimum = 0 (1 samples)
	maximum = 0 (1 samples)
Injected packet rate average = 0.00973437 (1 samples)
	minimum = 0.0065 (1 samples)
	maximum = 0.0145 (1 samples)
Accepted packet rate average = 0.00967969 (1 samples)
	minimum = 0 (1 samples)
	maximum = 0.6195 (1 samples)
Injected flit rate average = 0.00973437 (1 samples)
	minimum = 0.0065 (1 samples)
	maximum = 0.0145 (1 samples)
Accepted flit rate average = 0.00967969 (1 samples)
	minimum = 0 (1 samples)
	maximum = 0.6195 (1 samples)
Injected packet size average = 1 (1 samples)
Accepted packet size average = 1 (1 samples)
Hops average = 5.02809 (1 samples)
Total run time 0.206691

