Algorithm: adaptive_xy_yx
Traffic: transpose
Rate: 0.3
Seed: 43
Latency: 623.322
Elapsed: 1s

BEGIN Configuration File: /tmp/bs_adaptive_xy_yx_transpose_r0.3_s43.cfg
topology = mesh;
k = 8;
n = 2;
routing_function = adaptive_xy_yx;
num_vcs = 4;
vc_buf_size = 4;
wait_for_tail_credit = 1;
traffic = transpose;
packet_size = 1;
sim_type = latency;
injection_rate = 0.3;
warmup_periods = 3;
sample_period = 1000;
sim_count = 1;
seed = 43;
max_samples = 50;

END Configuration File: /tmp/bs_adaptive_xy_yx_transpose_r0.3_s43.cfg
Class 0:
Packet latency average = 135.768
	minimum = 7
	maximum = 951
Network latency average = 44.2357
	minimum = 7
	maximum = 915
Slowest packet = 172
Flit latency average = 44.2357
	minimum = 7
	maximum = 915
Slowest flit = 577
Fragmentation average = 0
	minimum = 0
	maximum = 0
Injected packet rate average = 0.145891
	minimum = 0.01 (at node 48)
	maximum = 0.31 (at node 63)
Accepted packet rate average = 0.138406
	minimum = 0.003 (at node 56)
	maximum = 0.306 (at node 63)
Injected flit rate average = 0.145891
	minimum = 0.01 (at node 48)
	maximum = 0.31 (at node 63)
Accepted flit rate average= 0.138406
	minimum = 0.003 (at node 56)
	maximum = 0.306 (at node 63)
Injected packet length average = 1
Accepted packet length average = 1
Total in-flight flits = 524 (0 measured)
latency change    = 1
throughput change = 1
Class 0:
Packet latency average = 263.208
	minimum = 7
	maximum = 1903
Network latency average = 47.6954
	minimum = 7
	maximum = 1892
Slowest packet = 599
Flit latency average = 47.6954
	minimum = 7
	maximum = 1892
Slowest flit = 599
Fragmentation average = 0
	minimum = 0
	maximum = 0
Injected packet rate average = 0.144687
	minimum = 0.009 (at node 7)
	maximum = 0.3105 (at node 36)
Accepted packet rate average = 0.140945
	minimum = 0.003 (at node 56)
	maximum = 0.31 (at node 36)
Injected flit rate average = 0.144687
	minimum = 0.009 (at node 7)
	maximum = 0.3105 (at node 36)
Accepted flit rate average= 0.140945
	minimum = 0.003 (at node 56)
	maximum = 0.31 (at node 36)
Injected packet length average = 1
Accepted packet length average = 1
Total in-flight flits = 526 (0 measured)
latency change    = 0.484181
throughput change = 0.0180145
Class 0:
Packet latency average = 623.322
	minimum = 7
	maximum = 2919
Network latency average = 52.8044
	minimum = 7
	maximum = 2331
Slowest packet = 627
Flit latency average = 52.8044
	minimum = 7
	maximum = 2331
Slowest flit = 627
Fragmentation average = 0
	minimum = 0
	maximum = 0
Injected packet rate average = 0.142203
	minimum = 0.001 (at node 7)
	maximum = 0.33 (at node 8)
Accepted packet rate average = 0.142437
	minimum = 0.006 (at node 5)
	maximum = 0.33 (at node 1)
Injected flit rate average = 0.142203
	minimum = 0.001 (at node 7)
	maximum = 0.33 (at node 8)
Accepted flit rate average= 0.142437
	minimum = 0.006 (at node 5)
	maximum = 0.33 (at node 1)
Injected packet length average = 1
Accepted packet length average = 1
Total in-flight flits = 509 (0 measured)
latency change    = 0.577734
throughput change = 0.0104761
Average latency for class 0 exceeded 500 cycles. Aborting simulation.
Too many sample periods needed to converge
Simulation unstable, ending ...
Total run time 0.612359

