Algorithm: adaptive_xy_yx
Traffic: uniform
Rate: 0.01
Seed: 44
Latency: 33.4786
Elapsed: 0s

BEGIN Configuration File: /tmp/bs_adaptive_xy_yx_uniform_r0.01_s44.cfg
topology = mesh;
k = 8;
n = 2;
routing_function = adaptive_xy_yx;
num_vcs = 4;
vc_buf_size = 4;
wait_for_tail_credit = 1;
traffic = uniform;
packet_size = 1;
sim_type = latency;
injection_rate = 0.01;
warmup_periods = 3;
sample_period = 1000;
sim_count = 1;
seed = 44;
max_samples = 50;

END Configuration File: /tmp/bs_adaptive_xy_yx_uniform_r0.01_s44.cfg
Class 0:
Packet latency average = 33.3205
	minimum = 7
	maximum = 77
Network latency average = 33.3205
	minimum = 7
	maximum = 77
Slowest packet = 275
Flit latency average = 33.3205
	minimum = 7
	maximum = 77
Slowest flit = 275
Fragmentation average = 0
	minimum = 0
	maximum = 0
Injected packet rate average = 0.0104531
	minimum = 0.005 (at node 9)
	maximum = 0.02 (at node 60)
Accepted packet rate average = 0.0101406
	minimum = 0.002 (at node 2)
	maximum = 0.021 (at node 23)
Injected flit rate average = 0.0104531
	minimum = 0.005 (at node 9)
	maximum = 0.02 (at node 60)
Accepted flit rate average= 0.0101406
	minimum = 0.002 (at node 2)
	maximum = 0.021 (at node 23)
Injected packet length average = 1
Accepted packet length average = 1
Total in-flight flits = 20 (0 measured)
latency change    = 1
throughput change = 1
Class 0:
Packet latency average = 33.358
	minimum = 7
	maximum = 77
Network latency average = 33.358
	minimum = 7
	maximum = 77
Slowest packet = 275
Flit latency average = 33.358
	minimum = 7
	maximum = 77
Slowest flit = 275
Fragmentation average = 0
	minimum = 0
	maximum = 0
Injected packet rate average = 0.0101406
	minimum = 0.0045 (at node 9)
	maximum = 0.0165 (at node 46)
Accepted packet rate average = 0.00992969
	minimum = 0.006 (at node 40)
	maximum = 0.0175 (at node 23)
Injected flit rate average = 0.0101406
	minimum = 0.0045 (at node 9)
	maximum = 0.0165 (at node 46)
Accepted flit rate average= 0.00992969
	minimum = 0.006 (at node 40)
	maximum = 0.0175 (at node 23)
Injected packet length average = 1
Accepted packet length average = 1
Total in-flight flits = 27 (0 measured)
latency change    = 0.00112395
throughput change = 0.0212431
Class 0:
Packet latency average = 33.1088
	minimum = 7
	maximum = 72
Network latency average = 33.1088
	minimum = 7
	maximum = 72
Slowest packet = 1302
Flit latency average = 33.1088
	minimum = 7
	maximum = 72
Slowest flit = 1302
Fragmentation average = 0
	minimum = 0
	maximum = 0
Injected packet rate average = 0.00959375
	minimum = 0.004 (at node 9)
	maximum = 0.019 (at node 28)
Accepted packet rate average = 0.009625
	minimum = 0.003 (at node 21)
	maximum = 0.018 (at node 0)
Injected flit rate average = 0.00959375
	minimum = 0.004 (at node 9)
	maximum = 0.019 (at node 28)
Accepted flit rate average= 0.009625
	minimum = 0.003 (at node 21)
	maximum = 0.018 (at node 0)
Injected packet length average = 1
Accepted packet length average = 1
Total in-flight flits = 25 (0 measured)
latency change    = 0.0075273
throughput change = 0.0316558
Warmed up ...Time used is 3000 cycles
Class 0:
Packet latency average = 33.5
	minimum = 7
	maximum = 72
Network latency average = 33.5
	minimum = 7
	maximum = 72
Slowest packet = 2032
Flit latency average = 33.8667
	minimum = 7
	maximum = 72
Slowest flit = 2032
Fragmentation average = 0
	minimum = 0
	maximum = 0
Injected packet rate average = 0.00998438
	minimum = 0.005 (at node 32)
	maximum = 0.019 (at node 58)
Accepted packet rate average = 0.0100781
	minimum = 0.005 (at node 0)
	maximum = 0.02 (at node 43)
Injected flit rate average = 0.00998438
	minimum = 0.005 (at node 32)
	maximum = 0.019 (at node 58)
Accepted flit rate average= 0.0100781
	minimum = 0.005 (at node 0)
	maximum = 0.02 (at node 43)
Injected packet length average = 1
Accepted packet length average = 1
Total in-flight flits = 19 (19 measured)
latency change    = 0.0116786
throughput change = 0.0449612
Class 0:
Packet latency average = 33.6014
	minimum = 7
	maximum = 77
Network latency average = 33.6014
	minimum = 7
	maximum = 77
Slowest packet = 2875
Flit latency average = 33.7861
	minimum = 7
	maximum = 77
Slowest flit = 2875
Fragmentation average = 0
	minimum = 0
	maximum = 0
Injected packet rate average = 0.00986719
	minimum = 0.0055 (at node 32)
	maximum = 0.0165 (at node 58)
Accepted packet rate average = 0.00989844
	minimum = 0.0055 (at node 35)
	maximum = 0.016 (at node 9)
Injected flit rate average = 0.00986719
	minimum = 0.0055 (at node 32)
	maximum = 0.0165 (at node 58)
Accepted flit rate average= 0.00989844
	minimum = 0.0055 (at node 35)
	maximum = 0.016 (at node 9)
Injected packet length average = 1
Accepted packet length average = 1
Total in-flight flits = 21 (21 measured)
latency change    = 0.00301919
throughput change = 0.0181531
Class 0:
Packet latency average = 33.4719
	minimum = 7
	maximum = 77
Network latency average = 33.4719
	minimum = 7
	maximum = 77
Slowest packet = 2875
Flit latency average = 33.5985
	minimum = 7
	maximum = 77
Slowest flit = 2875
Fragmentation average = 0
	minimum = 0
	maximum = 0
Injected packet rate average = 0.00972917
	minimum = 0.00666667 (at node 50)
	maximum = 0.0153333 (at node 9)
Accepted packet rate average = 0.00975521
	minimum = 0.006 (at node 26)
	maximum = 0.0153333 (at node 9)
Injected flit rate average = 0.00972917
	minimum = 0.00666667 (at node 50)
	maximum = 0.0153333 (at node 9)
Accepted flit rate average= 0.00975521
	minimum = 0.006 (at node 26)
	maximum = 0.0153333 (at node 9)
Injected packet length average = 1
Accepted packet length average = 1
Total in-flight flits = 20 (20 measured)
latency change    = 0.00387154
throughput change = 0.0146823
Draining all recorded packets ...
Draining remaining packets ...
Time taken is 6129 cycles
====== Overall Traffic Statistics ======
====== Traffic class 0 ======
Packet latency average = 33.4786 (1 samples)
	minimum = 7 (1 samples)
	maximum = 77 (1 samples)
Network latency average = 33.4786 (1 samples)
	minimum = 7 (1 samples)
	maximum = 77 (1 samples)
Flit latency average = 33.6064 (1 samples)
	minimum = 7 (1 samples)
	maximum = 77 (1 samples)
Fragmentation average = 0 (1 samples)
	minimum = 0 (1 samples)
	maximum = 0 (1 samples)
Injected packet rate average = 0.00972917 (1 samples)
	minimum = 0.00666667 (1 samples)
	maximum = 0.0153333 (1 samples)
Accepted packet rate average = 0.00975521 (1 samples)
	minimum = 0.006 (1 samples)
	maximum = 0.0153333 (1 samples)
Injected flit rate average = 0.00972917 (1 samples)
	minimum = 0.00666667 (1 samples)
	maximum = 0.0153333 (1 samples)
Accepted flit rate average = 0.00975521 (1 samples)
	minimum = 0.006 (1 samples)
	maximum = 0.0153333 (1 samples)
Injected packet size average = 1 (1 samples)
Accepted packet size average = 1 (1 samples)
Hops average = 6.28908 (1 samples)
Total run time 0.188993

