Algorithm: dor
Traffic: hotspot
Rate: 0.05
Seed: 44
Latency: 398.989
Elapsed: 0s

BEGIN Configuration File: /tmp/bs_dor_hotspot_r0.05_s44.cfg
topology = mesh;
k = 8;
n = 2;
routing_function = dor;
num_vcs = 4;
vc_buf_size = 4;
wait_for_tail_credit = 1;
traffic = hotspot(35,10);
packet_size = 1;
sim_type = latency;
injection_rate = 0.05;
warmup_periods = 3;
sample_period = 1000;
sim_count = 1;
seed = 44;
max_samples = 50;

END Configuration File: /tmp/bs_dor_hotspot_r0.05_s44.cfg
Class 0:
Packet latency average = 212.038
	minimum = 7
	maximum = 961
Network latency average = 181.296
	minimum = 7
	maximum = 961
Slowest packet = 53
Flit latency average = 181.296
	minimum = 7
	maximum = 961
Slowest flit = 53
Fragmentation average = 0
	minimum = 0
	maximum = 0
Injected packet rate average = 0.0178594
	minimum = 0.005 (at node 12)
	maximum = 0.063 (at node 34)
Accepted packet rate average = 0.0102344
	minimum = 0 (at node 0)
	maximum = 0.655 (at node 35)
Injected flit rate average = 0.0178594
	minimum = 0.005 (at node 12)
	maximum = 0.063 (at node 34)
Accepted flit rate average= 0.0102344
	minimum = 0 (at node 0)
	maximum = 0.655 (at node 35)
Injected packet length average = 1
Accepted packet length average = 1
Total in-flight flits = 546 (0 measured)
latency change    = 1
throughput change = 1
Class 0:
Packet latency average = 398.989
	minimum = 7
	maximum = 1860
Network latency average = 259.998
	minimum = 7
	maximum = 1860
Slowest packet = 403
Flit latency average = 259.998
	minimum = 7
	maximum = 1860
Slowest flit = 403
Fragmentation average = 0
	minimum = 0
	maximum = 0
Injected packet rate average = 0.0140781
	minimum = 0.003 (at node 4)
	maximum = 0.054 (at node 34)
Accepted packet rate average = 0.0103281
	minimum = 0 (at node 0)
	maximum = 0.661 (at node 35)
Injected flit rate average = 0.0140781
	minimum = 0.003 (at node 4)
	maximum = 0.054 (at node 34)
Accepted flit rate average= 0.0103281
	minimum = 0 (at node 0)
	maximum = 0.661 (at node 35)
Injected packet length average = 1
Accepted packet length average = 1
Total in-flight flits = 538 (0 measured)
latency change    = 0.468561
throughput change = 0.00907716
Average latency for class 0 exceeded 500 cycles. Aborting simulation.
Too many sample periods needed to converge
Simulation unstable, ending ...
Total run time 0.253203

