Algorithm: min_adapt
Traffic: transpose
Rate: 0.2
Seed: 43
Latency: 478.053
Elapsed: 1s

BEGIN Configuration File: /tmp/bs_min_adapt_transpose_r0.2_s43.cfg
topology = mesh;
k = 8;
n = 2;
routing_function = min_adapt;
num_vcs = 4;
vc_buf_size = 4;
wait_for_tail_credit = 1;
traffic = transpose;
packet_size = 1;
sim_type = latency;
injection_rate = 0.2;
warmup_periods = 3;
sample_period = 1000;
sim_count = 1;
seed = 43;
max_samples = 50;

END Configuration File: /tmp/bs_min_adapt_transpose_r0.2_s43.cfg
Class 0:
Packet latency average = 93.1464
	minimum = 7
	maximum = 955
Network latency average = 47.2506
	minimum = 7
	maximum = 955
Slowest packet = 417
Flit latency average = 47.2506
	minimum = 7
	maximum = 955
Slowest flit = 417
Fragmentation average = 0
	minimum = 0
	maximum = 0
Injected packet rate average = 0.121828
	minimum = 0.011 (at node 6)
	maximum = 0.241 (at node 16)
Accepted packet rate average = 0.114609
	minimum = 0.003 (at node 48)
	maximum = 0.233 (at node 2)
Injected flit rate average = 0.121828
	minimum = 0.011 (at node 6)
	maximum = 0.241 (at node 16)
Accepted flit rate average= 0.114609
	minimum = 0.003 (at node 48)
	maximum = 0.233 (at node 2)
Injected packet length average = 1
Accepted packet length average = 1
Total in-flight flits = 500 (0 measured)
latency change    = 1
throughput change = 1
Class 0:
Packet latency average = 166.582
	minimum = 7
	maximum = 1895
Network latency average = 51.6421
	minimum = 7
	maximum = 1843
Slowest packet = 555
Flit latency average = 51.6421
	minimum = 7
	maximum = 1843
Slowest flit = 555
Fragmentation average = 0
	minimum = 0
	maximum = 0
Injected packet rate average = 0.118594
	minimum = 0.0085 (at node 7)
	maximum = 0.224 (at node 16)
Accepted packet rate average = 0.115227
	minimum = 0.004 (at node 56)
	maximum = 0.22 (at node 2)
Injected flit rate average = 0.118594
	minimum = 0.0085 (at node 7)
	maximum = 0.224 (at node 16)
Accepted flit rate average= 0.115227
	minimum = 0.004 (at node 56)
	maximum = 0.22 (at node 2)
Injected packet length average = 1
Accepted packet length average = 1
Total in-flight flits = 471 (0 measured)
latency change    = 0.440839
throughput change = 0.0053563
Class 0:
Packet latency average = 387.235
	minimum = 7
	maximum = 2840
Network latency average = 57.5577
	minimum = 7
	maximum = 2697
Slowest packet = 535
Flit latency average = 57.5577
	minimum = 7
	maximum = 2697
Slowest flit = 535
Fragmentation average = 0
	minimum = 0
	maximum = 0
Injected packet rate average = 0.117844
	minimum = 0.003 (at node 6)
	maximum = 0.228 (at node 45)
Accepted packet rate average = 0.117734
	minimum = 0.003 (at node 7)
	maximum = 0.229 (at node 45)
Injected flit rate average = 0.117844
	minimum = 0.003 (at node 6)
	maximum = 0.228 (at node 45)
Accepted flit rate average= 0.117734
	minimum = 0.003 (at node 7)
	maximum = 0.229 (at node 45)
Injected packet length average = 1
Accepted packet length average = 1
Total in-flight flits = 476 (0 measured)
latency change    = 0.569815
throughput change = 0.0213006
Warmed up ...Time used is 3000 cycles
Class 0:
Packet latency average = 478.053
	minimum = 7
	maximum = 3810
Network latency average = 41.3556
	minimum = 7
	maximum = 840
Slowest packet = 22768
Flit latency average = 58.2731
	minimum = 7
	maximum = 3849
Slowest flit = 593
Fragmentation average = 0
	minimum = 0
	maximum = 0
Injected packet rate average = 0.117406
	minimum = 0.002 (at node 7)
	maximum = 0.22 (at node 27)
Accepted packet rate average = 0.1175
	minimum = 0.004 (at node 7)
	maximum = 0.221 (at node 27)
Injected flit rate average = 0.117406
	minimum = 0.002 (at node 7)
	maximum = 0.22 (at node 27)
Accepted flit rate average= 0.1175
	minimum = 0.004 (at node 7)
	maximum = 0.221 (at node 27)
Injected packet length average = 1
Accepted packet length average = 1
Total in-flight flits = 471 (434 measured)
latency change    = 0.189975
throughput change = 0.00199468
Average latency for class 0 exceeded 500 cycles. Aborting simulation.
Too many sample periods needed to converge
Simulation unstable, ending ...
Total run time 0.793556

