BEGIN Configuration File: /tmp/tmpj855v6jg.cfg
topology = mesh;
k = 4;
n = 2;
routing_function = min_adapt;
num_vcs = 4;
vc_buf_size = 4;
wait_for_tail_credit = 1;
vc_allocator = islip;
sw_allocator = islip;
alloc_iters = 1;
credit_delay = 2;
routing_delay = 1;
vc_alloc_delay = 1;
sw_alloc_delay = 1;
input_speedup = 2;
output_speedup = 1;
internal_speedup = 1.0;
traffic = uniform;
packet_size = 1;
sim_type = latency;
injection_rate = 0.02;
warmup_periods = 3;
sample_period = 1000;
sim_count = 100;
seed = 0;

END Configuration File: /tmp/tmpj855v6jg.cfg
Class 0:
Packet latency average = 20.4953
	minimum = 7
	maximum = 54
Network latency average = 20.4953
	minimum = 7
	maximum = 54
Slowest packet = 138
Flit latency average = 20.4953
	minimum = 7
	maximum = 54
Slowest flit = 138
Fragmentation average = 0
	minimum = 0
	maximum = 0
Injected packet rate average = 0.0203125
	minimum = 0.015 (at node 2)
	maximum = 0.029 (at node 12)
Accepted packet rate average = 0.0199375
	minimum = 0.009 (at node 11)
	maximum = 0.027 (at node 2)
Injected flit rate average = 0.0203125
	minimum = 0.015 (at node 2)
	maximum = 0.029 (at node 12)
Accepted flit rate average= 0.0199375
	minimum = 0.009 (at node 11)
	maximum = 0.027 (at node 2)
Injected packet length average = 1
Accepted packet length average = 1
Total in-flight flits = 6 (0 measured)
latency change    = 1
throughput change = 1
Class 0:
Packet latency average = 20.375
	minimum = 7
	maximum = 54
Network latency average = 20.375
	minimum = 7
	maximum = 54
Slowest packet = 138
Flit latency average = 20.375
	minimum = 7
	maximum = 54
Slowest flit = 138
Fragmentation average = 0
	minimum = 0
	maximum = 0
Injected packet rate average = 0.0195938
	minimum = 0.015 (at node 5)
	maximum = 0.0255 (at node 3)
Accepted packet rate average = 0.0195
	minimum = 0.0145 (at node 6)
	maximum = 0.024 (at node 0)
Injected flit rate average = 0.0195938
	minimum = 0.015 (at node 5)
	maximum = 0.0255 (at node 3)
Accepted flit rate average= 0.0195
	minimum = 0.0145 (at node 6)
	maximum = 0.024 (at node 0)
Injected packet length average = 1
Accepted packet length average = 1
Total in-flight flits = 3 (0 measured)
latency change    = 0.00590419
throughput change = 0.0224359
Class 0:
Packet latency average = 20.1331
	minimum = 7
	maximum = 44
Network latency average = 20.1331
	minimum = 7
	maximum = 44
Slowest packet = 690
Flit latency average = 20.1331
	minimum = 7
	maximum = 44
Slowest flit = 690
Fragmentation average = 0
	minimum = 0
	maximum = 0
Injected packet rate average = 0.0225
	minimum = 0.016 (at node 0)
	maximum = 0.031 (at node 11)
Accepted packet rate average = 0.0220625
	minimum = 0.011 (at node 0)
	maximum = 0.028 (at node 8)
Injected flit rate average = 0.0225
	minimum = 0.016 (at node 0)
	maximum = 0.031 (at node 11)
Accepted flit rate average= 0.0220625
	minimum = 0.011 (at node 0)
	maximum = 0.028 (at node 8)
Injected packet length average = 1
Accepted packet length average = 1
Total in-flight flits = 10 (0 measured)
latency change    = 0.0120128
throughput change = 0.116147
Warmed up ...Time used is 3000 cycles
Class 0:
Packet latency average = 20.1827
	minimum = 7
	maximum = 42
Network latency average = 20.1827
	minimum = 7
	maximum = 42
Slowest packet = 1248
Flit latency average = 20.2251
	minimum = 7
	maximum = 42
Slowest flit = 1248
Fragmentation average = 0
	minimum = 0
	maximum = 0
Injected packet rate average = 0.019375
	minimum = 0.011 (at node 1)
	maximum = 0.029 (at node 10)
Accepted packet rate average = 0.0194375
	minimum = 0.012 (at node 13)
	maximum = 0.026 (at node 6)
Injected flit rate average = 0.019375
	minimum = 0.011 (at node 1)
	maximum = 0.029 (at node 10)
Accepted flit rate average= 0.0194375
	minimum = 0.012 (at node 13)
	maximum = 0.026 (at node 6)
Injected packet length average = 1
Accepted packet length average = 1
Total in-flight flits = 9 (9 measured)
latency change    = 0.00245655
throughput change = 0.135048
Class 0:
Packet latency average = 20.0372
	minimum = 7
	maximum = 42
Network latency average = 20.0372
	minimum = 7
	maximum = 42
Slowest packet = 1248
Flit latency average = 20.0604
	minimum = 7
	maximum = 42
Slowest flit = 1248
Fragmentation average = 0
	minimum = 0
	maximum = 0
Injected packet rate average = 0.0194062
	minimum = 0.014 (at node 14)
	maximum = 0.026 (at node 10)
Accepted packet rate average = 0.0196563
	minimum = 0.0135 (at node 2)
	maximum = 0.0255 (at node 11)
Injected flit rate average = 0.0194062
	minimum = 0.014 (at node 14)
	maximum = 0.026 (at node 10)
Accepted flit rate average= 0.0196563
	minimum = 0.0135 (at node 2)
	maximum = 0.0255 (at node 11)
Injected packet length average = 1
Accepted packet length average = 1
Total in-flight flits = 2 (2 measured)
latency change    = 0.00726488
throughput change = 0.0111288
Class 0:
Packet latency average = 20.1829
	minimum = 7
	maximum = 42
Network latency average = 20.1829
	minimum = 7
	maximum = 42
Slowest packet = 1248
Flit latency average = 20.197
	minimum = 7
	maximum = 42
Slowest flit = 1248
Fragmentation average = 0
	minimum = 0
	maximum = 0
Injected packet rate average = 0.0194375
	minimum = 0.0143333 (at node 14)
	maximum = 0.0263333 (at node 15)
Accepted packet rate average = 0.0194583
	minimum = 0.0153333 (at node 2)
	maximum = 0.0233333 (at node 8)
Injected flit rate average = 0.0194375
	minimum = 0.0143333 (at node 14)
	maximum = 0.0263333 (at node 15)
Accepted flit rate average= 0.0194583
	minimum = 0.0153333 (at node 2)
	maximum = 0.0233333 (at node 8)
Injected packet length average = 1
Accepted packet length average = 1
Total in-flight flits = 9 (9 measured)
latency change    = 0.00722115
throughput change = 0.0101713
Class 0:
Packet latency average = 20.0781
	minimum = 7
	maximum = 42
Network latency average = 20.0781
	minimum = 7
	maximum = 42
Slowest packet = 1248
Flit latency average = 20.0895
	minimum = 7
	maximum = 42
Slowest flit = 1248
Fragmentation average = 0
	minimum = 0
	maximum = 0
Injected packet rate average = 0.0195312
	minimum = 0.0155 (at node 14)
	maximum = 0.0245 (at node 15)
Accepted packet rate average = 0.0195625
	minimum = 0.01625 (at node 2)
	maximum = 0.02275 (at node 15)
Injected flit rate average = 0.0195312
	minimum = 0.0155 (at node 14)
	maximum = 0.0245 (at node 15)
Accepted flit rate average= 0.0195625
	minimum = 0.01625 (at node 2)
	maximum = 0.02275 (at node 15)
Injected packet length average = 1
Accepted packet length average = 1
Total in-flight flits = 8 (8 measured)
latency change    = 0.00521965
throughput change = 0.00532481
Draining all recorded packets ...
Draining remaining packets ...
Time taken is 7061 cycles
Class 0:
Packet latency average = 19.8012
	minimum = 7
	maximum = 42
Network latency average = 19.8012
	minimum = 7
	maximum = 42
Slowest packet = 2501
Flit latency average = 19.8012
	minimum = 7
	maximum = 42
Slowest flit = 2501
Fragmentation average = 0
	minimum = 0
	maximum = 0
Injected packet rate average = 0.0208125
	minimum = 0.015 (at node 9)
	maximum = 0.03 (at node 1)
Accepted packet rate average = 0.0204375
	minimum = 0.013 (at node 14)
	maximum = 0.028 (at node 11)
Injected flit rate average = 0.0208125
	minimum = 0.015 (at node 9)
	maximum = 0.03 (at node 1)
Accepted flit rate average= 0.0204375
	minimum = 0.013 (at node 14)
	maximum = 0.028 (at node 11)
Injected packet length average = 1
Accepted packet length average = 1
Total in-flight flits = 6 (0 measured)
latency change    = 1
throughput change = 1
Class 0:
Packet latency average = 19.7041
	minimum = 7
	maximum = 46
Network latency average = 19.7041
	minimum = 7
	maximum = 46
Slowest packet = 2780
Flit latency average = 19.7041
	minimum = 7
	maximum = 46
Slowest flit = 2780
Fragmentation average = 0
	minimum = 0
	maximum = 0
Injected packet rate average = 0.0208125
	minimum = 0.016 (at node 15)
	maximum = 0.03 (at node 1)
Accepted packet rate average = 0.0205938
	minimum = 0.015 (at node 4)
	maximum = 0.025 (at node 2)
Injected flit rate average = 0.0208125
	minimum = 0.016 (at node 15)
	maximum = 0.03 (at node 1)
Accepted flit rate average= 0.0205938
	minimum = 0.015 (at node 4)
	maximum = 0.025 (at node 2)
Injected packet length average = 1
Accepted packet length average = 1
Total in-flight flits = 7 (0 measured)
latency change    = 0.00492923
throughput change = 0.00758725
Class 0:
Packet latency average = 18.8137
	minimum = 7
	maximum = 37
Network latency average = 18.8137
	minimum = 7
	maximum = 37
Slowest packet = 2909
Flit latency average = 18.8137
	minimum = 7
	maximum = 37
Slowest flit = 2909
Fragmentation average = 0
	minimum = 0
	maximum = 0
Injected packet rate average = 0.018875
	minimum = 0.012 (at node 4)
	maximum = 0.028 (at node 10)
Accepted packet rate average = 0.019125
	minimum = 0.011 (at node 15)
	maximum = 0.024 (at node 0)
Injected flit rate average = 0.018875
	minimum = 0.012 (at node 4)
	maximum = 0.028 (at node 10)
Accepted flit rate average= 0.019125
	minimum = 0.011 (at node 15)
	maximum = 0.024 (at node 0)
Injected packet length average = 1
Accepted packet length average = 1
Total in-flight flits = 3 (0 measured)
latency change    = 0.0473256
throughput change = 0.0767974
Warmed up ...Time used is 3000 cycles
Class 0:
Packet latency average = 19.4744
	minimum = 7
	maximum = 48
Network latency average = 19.4744
	minimum = 7
	maximum = 48
Slowest packet = 3405
Flit latency average = 19.5841
	minimum = 7
	maximum = 48
Slowest flit = 3405
Fragmentation average = 0
	minimum = 0
	maximum = 0
Injected packet rate average = 0.0196875
	minimum = 0.012 (at node 2)
	maximum = 0.03 (at node 11)
Accepted packet rate average = 0.0196875
	minimum = 0.011 (at node 7)
	maximum = 0.029 (at node 6)
Injected flit rate average = 0.0196875
	minimum = 0.012 (at node 2)
	maximum = 0.03 (at node 11)
Accepted flit rate average= 0.0196875
	minimum = 0.011 (at node 7)
	maximum = 0.029 (at node 6)
Injected packet length average = 1
Accepted packet length average = 1
Total in-flight flits = 3 (3 measured)
latency change    = 0.0339232
throughput change = 0.0285714
Class 0:
Packet latency average = 19.65
	minimum = 7
	maximum = 48
Network latency average = 19.65
	minimum = 7
	maximum = 48
Slowest packet = 3405
Flit latency average = 19.703
	minimum = 7
	maximum = 48
Slowest flit = 3405
Fragmentation average = 0
	minimum = 0
	maximum = 0
Injected packet rate average = 0.0202813
	minimum = 0.015 (at node 14)
	maximum = 0.0285 (at node 12)
Accepted packet rate average = 0.0200938
	minimum = 0.015 (at node 5)
	maximum = 0.027 (at node 6)
Injected flit rate average = 0.0202813
	minimum = 0.015 (at node 14)
	maximum = 0.0285 (at node 12)
Accepted flit rate average= 0.0200938
	minimum = 0.015 (at node 5)
	maximum = 0.027 (at node 6)
Injected packet length average = 1
Accepted packet length average = 1
Total in-flight flits = 9 (9 measured)
latency change    = 0.00893847
throughput change = 0.0202177
Class 0:
Packet latency average = 19.6165
	minimum = 7
	maximum = 48
Network latency average = 19.6165
	minimum = 7
	maximum = 48
Slowest packet = 3405
Flit latency average = 19.6516
	minimum = 7
	maximum = 48
Slowest flit = 3405
Fragmentation average = 0
	minimum = 0
	maximum = 0
Injected packet rate average = 0.0203542
	minimum = 0.0146667 (at node 14)
	maximum = 0.0253333 (at node 11)
Accepted packet rate average = 0.0202708
	minimum = 0.016 (at node 4)
	maximum = 0.025 (at node 6)
Injected flit rate average = 0.0203542
	minimum = 0.0146667 (at node 14)
	maximum = 0.0253333 (at node 11)
Accepted flit rate average= 0.0202708
	minimum = 0.016 (at node 4)
	maximum = 0.025 (at node 6)
Injected packet length average = 1
Accepted packet length average = 1
Total in-flight flits = 7 (7 measured)
latency change    = 0.00170801
throughput change = 0.00873587
Draining all recorded packets ...
Draining remaining packets ...
Time taken is 6046 cycles
Class 0:
Packet latency average = 19.9697
	minimum = 7
	maximum = 42
Network latency average = 19.9697
	minimum = 7
	maximum = 42
Slowest packet = 4206
Flit latency average = 19.9697
	minimum = 7
	maximum = 42
Slowest flit = 4206
Fragmentation average = 0
	minimum = 0
	maximum = 0
Injected packet rate average = 0.021
	minimum = 0.013 (at node 4)
	maximum = 0.029 (at node 6)
Accepted packet rate average = 0.020625
	minimum = 0.012 (at node 11)
	maximum = 0.03 (at node 7)
Injected flit rate average = 0.021
	minimum = 0.013 (at node 4)
	maximum = 0.029 (at node 6)
Accepted flit rate average= 0.020625
	minimum = 0.012 (at node 11)
	maximum = 0.03 (at node 7)
Injected packet length average = 1
Accepted packet length average = 1
Total in-flight flits = 6 (0 measured)
latency change    = 1
throughput change = 1
Class 0:
Packet latency average = 20.1092
	minimum = 7
	maximum = 45
Network latency average = 20.1092
	minimum = 7
	maximum = 45
Slowest packet = 4569
Flit latency average = 20.1092
	minimum = 7
	maximum = 45
Slowest flit = 4569
Fragmentation average = 0
	minimum = 0
	maximum = 0
Injected packet rate average = 0.0201875
	minimum = 0.0155 (at node 8)
	maximum = 0.026 (at node 9)
Accepted packet rate average = 0.0200313
	minimum = 0.016 (at node 0)
	maximum = 0.024 (at node 7)
Injected flit rate average = 0.0201875
	minimum = 0.0155 (at node 8)
	maximum = 0.026 (at node 9)
Accepted flit rate average= 0.0200313
	minimum = 0.016 (at node 0)
	maximum = 0.024 (at node 7)
Injected packet length average = 1
Accepted packet length average = 1
Total in-flight flits = 5 (0 measured)
latency change    = 0.00693749
throughput change = 0.0296412
Class 0:
Packet latency average = 19.9589
	minimum = 7
	maximum = 41
Network latency average = 19.9589
	minimum = 7
	maximum = 41
Slowest packet = 4992
Flit latency average = 19.9589
	minimum = 7
	maximum = 41
Slowest flit = 4992
Fragmentation average = 0
	minimum = 0
	maximum = 0
Injected packet rate average = 0.019875
	minimum = 0.011 (at node 0)
	maximum = 0.029 (at node 15)
Accepted packet rate average = 0.01975
	minimum = 0.013 (at node 2)
	maximum = 0.026 (at node 14)
Injected flit rate average = 0.019875
	minimum = 0.011 (at node 0)
	maximum = 0.029 (at node 15)
Accepted flit rate average= 0.01975
	minimum = 0.013 (at node 2)
	maximum = 0.026 (at node 14)
Injected packet length average = 1
Accepted packet length average = 1
Total in-flight flits = 7 (0 measured)
latency change    = 0.00753267
throughput change = 0.0142405
Warmed up ...Time used is 3000 cycles
Class 0:
Packet latency average = 20.1399
	minimum = 7
	maximum = 47
Network latency average = 20.1399
	minimum = 7
	maximum = 47
Slowest packet = 5209
Flit latency average = 20.1843
	minimum = 7
	maximum = 47
Slowest flit = 5209
Fragmentation average = 0
	minimum = 0
	maximum = 0
Injected packet rate average = 0.0185625
	minimum = 0.014 (at node 2)
	maximum = 0.024 (at node 5)
Accepted packet rate average = 0.0183125
	minimum = 0.008 (at node 8)
	maximum = 0.027 (at node 7)
Injected flit rate average = 0.0185625
	minimum = 0.014 (at node 2)
	maximum = 0.024 (at node 5)
Accepted flit rate average= 0.0183125
	minimum = 0.008 (at node 8)
	maximum = 0.027 (at node 7)
Injected packet length average = 1
Accepted packet length average = 1
Total in-flight flits = 11 (11 measured)
latency change    = 0.00898712
throughput change = 0.0784983
Class 0:
Packet latency average = 19.6982
	minimum = 7
	maximum = 47
Network latency average = 19.6982
	minimum = 7
	maximum = 47
Slowest packet = 5209
Flit latency average = 19.7262
	minimum = 7
	maximum = 47
Slowest flit = 5209
Fragmentation average = 0
	minimum = 0
	maximum = 0
Injected packet rate average = 0.0179687
	minimum = 0.014 (at node 2)
	maximum = 0.0225 (at node 11)
Accepted packet rate average = 0.0180312
	minimum = 0.013 (at node 2)
	maximum = 0.0245 (at node 7)
Injected flit rate average = 0.0179687
	minimum = 0.014 (at node 2)
	maximum = 0.0225 (at node 11)
Accepted flit rate average= 0.0180312
	minimum = 0.013 (at node 2)
	maximum = 0.0245 (at node 7)
Injected packet length average = 1
Accepted packet length average = 1
Total in-flight flits = 5 (5 measured)
latency change    = 0.022419
throughput change = 0.0155979
Class 0:
Packet latency average = 20.0434
	minimum = 7
	maximum = 47
Network latency average = 20.0434
	minimum = 7
	maximum = 47
Slowest packet = 5209
Flit latency average = 20.0586
	minimum = 7
	maximum = 47
Slowest flit = 5209
Fragmentation average = 0
	minimum = 0
	maximum = 0
Injected packet rate average = 0.01875
	minimum = 0.0143333 (at node 2)
	maximum = 0.0236667 (at node 11)
Accepted packet rate average = 0.0188542
	minimum = 0.0136667 (at node 13)
	maximum = 0.0223333 (at node 7)
Injected flit rate average = 0.01875
	minimum = 0.0143333 (at node 2)
	maximum = 0.0236667 (at node 11)
Accepted flit rate average= 0.0188542
	minimum = 0.0136667 (at node 13)
	maximum = 0.0223333 (at node 7)
Injected packet length average = 1
Accepted packet length average = 1
Total in-flight flits = 2 (2 measured)
latency change    = 0.0172218
throughput change = 0.0436464
Class 0:
Packet latency average = 20.1729
	minimum = 7
	maximum = 48
Network latency average = 20.1729
	minimum = 7
	maximum = 48
Slowest packet = 6279
Flit latency average = 20.1833
	minimum = 7
	maximum = 48
Slowest flit = 6279
Fragmentation average = 0
	minimum = 0
	maximum = 0
Injected packet rate average = 0.0192969
	minimum = 0.01525 (at node 15)
	maximum = 0.0245 (at node 11)
Accepted packet rate average = 0.0192656
	minimum = 0.01525 (at node 13)
	maximum = 0.023 (at node 7)
Injected flit rate average = 0.0192969
	minimum = 0.01525 (at node 15)
	maximum = 0.0245 (at node 11)
Accepted flit rate average= 0.0192656
	minimum = 0.01525 (at node 13)
	maximum = 0.023 (at node 7)
Injected packet length average = 1
Accepted packet length average = 1
Total in-flight flits = 9 (9 measured)
latency change    = 0.00641901
throughput change = 0.0213571
Draining all recorded packets ...
Draining remaining packets ...
Time taken is 7047 cycles
Class 0:
Packet latency average = 19.9586
	minimum = 7
	maximum = 45
Network latency average = 19.9586
	minimum = 7
	maximum = 45
Slowest packet = 6574
Flit latency average = 19.9586
	minimum = 7
	maximum = 45
Slowest flit = 6574
Fragmentation average = 0
	minimum = 0
	maximum = 0
Injected packet rate average = 0.01975
	minimum = 0.016 (at node 2)
	maximum = 0.023 (at node 3)
Accepted packet rate average = 0.019625
	minimum = 0.014 (at node 15)
	maximum = 0.03 (at node 13)
Injected flit rate average = 0.01975
	minimum = 0.016 (at node 2)
	maximum = 0.023 (at node 3)
Accepted flit rate average= 0.019625
	minimum = 0.014 (at node 15)
	maximum = 0.03 (at node 13)
Injected packet length average = 1
Accepted packet length average = 1
Total in-flight flits = 2 (0 measured)
latency change    = 1
throughput change = 1
Class 0:
Packet latency average = 19.8706
	minimum = 7
	maximum = 56
Network latency average = 19.8706
	minimum = 7
	maximum = 56
Slowest packet = 6988
Flit latency average = 19.8706
	minimum = 7
	maximum = 56
Slowest flit = 6988
Fragmentation average = 0
	minimum = 0
	maximum = 0
Injected packet rate average = 0.0204688
	minimum = 0.017 (at node 6)
	maximum = 0.024 (at node 9)
Accepted packet rate average = 0.0202813
	minimum = 0.016 (at node 1)
	maximum = 0.025 (at node 8)
Injected flit rate average = 0.0204688
	minimum = 0.017 (at node 6)
	maximum = 0.024 (at node 9)
Accepted flit rate average= 0.0202813
	minimum = 0.016 (at node 1)
	maximum = 0.025 (at node 8)
Injected packet length average = 1
Accepted packet length average = 1
Total in-flight flits = 6 (0 measured)
latency change    = 0.0044301
throughput change = 0.0323575
Class 0:
Packet latency average = 19.5662
	minimum = 7
	maximum = 43
Network latency average = 19.5662
	minimum = 7
	maximum = 43
Slowest packet = 7164
Flit latency average = 19.5662
	minimum = 7
	maximum = 43
Slowest flit = 7164
Fragmentation average = 0
	minimum = 0
	maximum = 0
Injected packet rate average = 0.01875
	minimum = 0.014 (at node 2)
	maximum = 0.025 (at node 0)
Accepted packet rate average = 0.018875
	minimum = 0.011 (at node 2)
	maximum = 0.029 (at node 11)
Injected flit rate average = 0.01875
	minimum = 0.014 (at node 2)
	maximum = 0.025 (at node 0)
Accepted flit rate average= 0.018875
	minimum = 0.011 (at node 2)
	maximum = 0.029 (at node 11)
Injected packet length average = 1
Accepted packet length average = 1
Total in-flight flits = 4 (0 measured)
latency change    = 0.0155546
throughput change = 0.0745033
Warmed up ...Time used is 3000 cycles
Class 0:
Packet latency average = 19.405
	minimum = 7
	maximum = 42
Network latency average = 19.405
	minimum = 7
	maximum = 42
Slowest packet = 7601
Flit latency average = 19.4594
	minimum = 7
	maximum = 42
Slowest flit = 7601
Fragmentation average = 0
	minimum = 0
	maximum = 0
Injected packet rate average = 0.0179375
	minimum = 0.011 (at node 0)
	maximum = 0.031 (at node 10)
Accepted packet rate average = 0.0176875
	minimum = 0.012 (at node 3)
	maximum = 0.022 (at node 7)
Injected flit rate average = 0.0179375
	minimum = 0.011 (at node 0)
	maximum = 0.031 (at node 10)
Accepted flit rate average= 0.0176875
	minimum = 0.012 (at node 3)
	maximum = 0.022 (at node 7)
Injected packet length average = 1
Accepted packet length average = 1
Total in-flight flits = 8 (8 measured)
latency change    = 0.0083075
throughput change = 0.0671378
Class 0:
Packet latency average = 19.8959
	minimum = 7
	maximum = 43
Network latency average = 19.8959
	minimum = 7
	maximum = 43
Slowest packet = 7785
Flit latency average = 19.9179
	minimum = 7
	maximum = 43
Slowest flit = 7785
Fragmentation average = 0
	minimum = 0
	maximum = 0
Injected packet rate average = 0.0191562
	minimum = 0.0135 (at node 0)
	maximum = 0.0255 (at node 11)
Accepted packet rate average = 0.0190312
	minimum = 0.014 (at node 5)
	maximum = 0.0245 (at node 12)
Injected flit rate average = 0.0191562
	minimum = 0.0135 (at node 0)
	maximum = 0.0255 (at node 11)
Accepted flit rate average= 0.0190312
	minimum = 0.014 (at node 5)
	maximum = 0.0245 (at node 12)
Injected packet length average = 1
Accepted packet length average = 1
Total in-flight flits = 8 (8 measured)
latency change    = 0.0246709
throughput change = 0.0706076
Class 0:
Packet latency average = 20.0656
	minimum = 7
	maximum = 45
Network latency average = 20.0656
	minimum = 7
	maximum = 45
Slowest packet = 8082
Flit latency average = 20.0795
	minimum = 7
	maximum = 45
Slowest flit = 8082
Fragmentation average = 0
	minimum = 0
	maximum = 0
Injected packet rate average = 0.019125
	minimum = 0.0143333 (at node 15)
	maximum = 0.0256667 (at node 11)
Accepted packet rate average = 0.019125
	minimum = 0.0146667 (at node 4)
	maximum = 0.024 (at node 0)
Injected flit rate average = 0.019125
	minimum = 0.0143333 (at node 15)
	maximum = 0.0256667 (at node 11)
Accepted flit rate average= 0.019125
	minimum = 0.0146667 (at node 4)
	maximum = 0.024 (at node 0)
Injected packet length average = 1
Accepted packet length average = 1
Total in-flight flits = 4 (4 measured)
latency change    = 0.00846112
throughput change = 0.00490196
Class 0:
Packet latency average = 20.0476
	minimum = 7
	maximum = 45
Network latency average = 20.0476
	minimum = 7
	maximum = 45
Slowest packet = 8082
Flit latency average = 20.0583
	minimum = 7
	maximum = 45
Slowest flit = 8082
Fragmentation average = 0
	minimum = 0
	maximum = 0
Injected packet rate average = 0.0187969
	minimum = 0.016 (at node 15)
	maximum = 0.02275 (at node 11)
Accepted packet rate average = 0.0187656
	minimum = 0.014 (at node 4)
	maximum = 0.022 (at node 0)
Injected flit rate average = 0.0187969
	minimum = 0.016 (at node 15)
	maximum = 0.02275 (at node 11)
Accepted flit rate average= 0.0187656
	minimum = 0.014 (at node 4)
	maximum = 0.022 (at node 0)
Injected packet length average = 1
Accepted packet length average = 1
Total in-flight flits = 6 (6 measured)
latency change    = 0.000899182
throughput change = 0.0191507
Class 0:
Packet latency average = 19.9702
	minimum = 7
	maximum = 45
Network latency average = 19.9702
	minimum = 7
	maximum = 45
Slowest packet = 8082
Flit latency average = 19.9787
	minimum = 7
	maximum = 45
Slowest flit = 8082
Fragmentation average = 0
	minimum = 0
	maximum = 0
Injected packet rate average = 0.0193875
	minimum = 0.016 (at node 15)
	maximum = 0.0234 (at node 10)
Accepted packet rate average = 0.019375
	minimum = 0.0158 (at node 10)
	maximum = 0.023 (at node 0)
Injected flit rate average = 0.0193875
	minimum = 0.016 (at node 15)
	maximum = 0.0234 (at node 10)
Accepted flit rate average= 0.019375
	minimum = 0.0158 (at node 10)
	maximum = 0.023 (at node 0)
Injected packet length average = 1
Accepted packet length average = 1
Total in-flight flits = 5 (5 measured)
latency change    = 0.00387443
throughput change = 0.0314516
Draining all recorded packets ...
Draining remaining packets ...
Time taken is 8043 cycles
Class 0:
Packet latency average = 18.9754
	minimum = 7
	maximum = 44
Network latency average = 18.9754
	minimum = 7
	maximum = 44
Slowest packet = 9054
Flit latency average = 18.9754
	minimum = 7
	maximum = 44
Slowest flit = 9054
Fragmentation average = 0
	minimum = 0
	maximum = 0
Injected packet rate average = 0.02075
	minimum = 0.012 (at node 2)
	maximum = 0.033 (at node 10)
Accepted packet rate average = 0.0203125
	minimum = 0.015 (at node 1)
	maximum = 0.027 (at node 0)
Injected flit rate average = 0.02075
	minimum = 0.012 (at node 2)
	maximum = 0.033 (at node 10)
Accepted flit rate average= 0.0203125
	minimum = 0.015 (at node 1)
	maximum = 0.027 (at node 0)
Injected packet length average = 1
Accepted packet length average = 1
Total in-flight flits = 7 (0 measured)
latency change    = 1
throughput change = 1
Class 0:
Packet latency average = 19.1339
	minimum = 7
	maximum = 44
Network latency average = 19.1339
	minimum = 7
	maximum = 44
Slowest packet = 9054
Flit latency average = 19.1339
	minimum = 7
	maximum = 44
Slowest flit = 9054
Fragmentation average = 0
	minimum = 0
	maximum = 0
Injected packet rate average = 0.0200313
	minimum = 0.015 (at node 2)
	maximum = 0.0265 (at node 10)
Accepted packet rate average = 0.0198438
	minimum = 0.016 (at node 9)
	maximum = 0.025 (at node 10)
Injected flit rate average = 0.0200313
	minimum = 0.015 (at node 2)
	maximum = 0.0265 (at node 10)
Accepted flit rate average= 0.0198438
	minimum = 0.016 (at node 9)
	maximum = 0.025 (at node 10)
Injected packet length average = 1
Accepted packet length average = 1
Total in-flight flits = 6 (0 measured)
latency change    = 0.00828237
throughput change = 0.023622
Class 0:
Packet latency average = 20.4479
	minimum = 7
	maximum = 61
Network latency average = 20.4479
	minimum = 7
	maximum = 61
Slowest packet = 9656
Flit latency average = 20.4479
	minimum = 7
	maximum = 61
Slowest flit = 9656
Fragmentation average = 0
	minimum = 0
	maximum = 0
Injected packet rate average = 0.020375
	minimum = 0.008 (at node 9)
	maximum = 0.031 (at node 0)
Accepted packet rate average = 0.020375
	minimum = 0.015 (at node 0)
	maximum = 0.03 (at node 15)
Injected flit rate average = 0.020375
	minimum = 0.008 (at node 9)
	maximum = 0.031 (at node 0)
Accepted flit rate average= 0.020375
	minimum = 0.015 (at node 0)
	maximum = 0.03 (at node 15)
Injected packet length average = 1
Accepted packet length average = 1
Total in-flight flits = 6 (0 measured)
latency change    = 0.0642608
throughput change = 0.0260736
Warmed up ...Time used is 3000 cycles
Class 0:
Packet latency average = 18.9822
	minimum = 7
	maximum = 42
Network latency average = 18.9822
	minimum = 7
	maximum = 42
Slowest packet = 10072
Flit latency average = 18.9767
	minimum = 7
	maximum = 42
Slowest flit = 10072
Fragmentation average = 0
	minimum = 0
	maximum = 0
Injected packet rate average = 0.021625
	minimum = 0.015 (at node 11)
	maximum = 0.029 (at node 6)
Accepted packet rate average = 0.0215
	minimum = 0.015 (at node 15)
	maximum = 0.031 (at node 10)
Injected flit rate average = 0.021625
	minimum = 0.015 (at node 11)
	maximum = 0.029 (at node 6)
Accepted flit rate average= 0.0215
	minimum = 0.015 (at node 15)
	maximum = 0.031 (at node 10)
Injected packet length average = 1
Accepted packet length average = 1
Total in-flight flits = 8 (8 measured)
latency change    = 0.0772092
throughput change = 0.0523256
Class 0:
Packet latency average = 19.6374
	minimum = 7
	maximum = 48
Network latency average = 19.6374
	minimum = 7
	maximum = 48
Slowest packet = 10466
Flit latency average = 19.6283
	minimum = 7
	maximum = 48
Slowest flit = 10466
Fragmentation average = 0
	minimum = 0
	maximum = 0
Injected packet rate average = 0.0201875
	minimum = 0.017 (at node 4)
	maximum = 0.024 (at node 13)
Accepted packet rate average = 0.0200938
	minimum = 0.0145 (at node 15)
	maximum = 0.026 (at node 10)
Injected flit rate average = 0.0201875
	minimum = 0.017 (at node 4)
	maximum = 0.024 (at node 13)
Accepted flit rate average= 0.0200938
	minimum = 0.0145 (at node 15)
	maximum = 0.026 (at node 10)
Injected packet length average = 1
Accepted packet length average = 1
Total in-flight flits = 9 (9 measured)
latency change    = 0.0333606
throughput change = 0.0699844
Class 0:
Packet latency average = 19.7265
	minimum = 7
	maximum = 48
Network latency average = 19.7265
	minimum = 7
	maximum = 48
Slowest packet = 10466
Flit latency average = 19.7199
	minimum = 7
	maximum = 48
Slowest flit = 10466
Fragmentation average = 0
	minimum = 0
	maximum = 0
Injected packet rate average = 0.0200833
	minimum = 0.0156667 (at node 4)
	maximum = 0.023 (at node 10)
Accepted packet rate average = 0.0200833
	minimum = 0.016 (at node 15)
	maximum = 0.0246667 (at node 3)
Injected flit rate average = 0.0200833
	minimum = 0.0156667 (at node 4)
	maximum = 0.023 (at node 10)
Accepted flit rate average= 0.0200833
	minimum = 0.016 (at node 15)
	maximum = 0.0246667 (at node 3)
Injected packet length average = 1
Accepted packet length average = 1
Total in-flight flits = 6 (6 measured)
latency change    = 0.00451935
throughput change = 0.000518672
Class 0:
Packet latency average = 19.8795
	minimum = 7
	maximum = 48
Network latency average = 19.8795
	minimum = 7
	maximum = 48
Slowest packet = 10466
Flit latency average = 19.8738
	minimum = 7
	maximum = 48
Slowest flit = 10466
Fragmentation average = 0
	minimum = 0
	maximum = 0
Injected packet rate average = 0.0199375
	minimum = 0.0165 (at node 1)
	maximum = 0.02375 (at node 12)
Accepted packet rate average = 0.0199375
	minimum = 0.015 (at node 15)
	maximum = 0.02375 (at node 3)
Injected flit rate average = 0.0199375
	minimum = 0.0165 (at node 1)
	maximum = 0.02375 (at node 12)
Accepted flit rate average= 0.0199375
	minimum = 0.015 (at node 15)
	maximum = 0.02375 (at node 3)
Injected packet length average = 1
Accepted packet length average = 1
Total in-flight flits = 6 (6 measured)
latency change    = 0.00769706
throughput change = 0.00731452
Class 0:
Packet latency average = 19.9196
	minimum = 7
	maximum = 48
Network latency average = 19.9196
	minimum = 7
	maximum = 48
Slowest packet = 10466
Flit latency average = 19.9149
	minimum = 7
	maximum = 48
Slowest flit = 10466
Fragmentation average = 0
	minimum = 0
	maximum = 0
Injected packet rate average = 0.019975
	minimum = 0.016 (at node 0)
	maximum = 0.0232 (at node 10)
Accepted packet rate average = 0.019975
	minimum = 0.0156 (at node 15)
	maximum = 0.0226 (at node 1)
Injected flit rate average = 0.019975
	minimum = 0.016 (at node 0)
	maximum = 0.0232 (at node 10)
Accepted flit rate average= 0.019975
	minimum = 0.0156 (at node 15)
	maximum = 0.0226 (at node 1)
Injected packet length average = 1
Accepted packet length average = 1
Total in-flight flits = 6 (6 measured)
latency change    = 0.00201161
throughput change = 0.00187735
Draining all recorded packets ...
Draining remaining packets ...
Time taken is 8049 cycles
Class 0:
Packet latency average = 19.5841
	minimum = 7
	maximum = 49
Network latency average = 19.5841
	minimum = 7
	maximum = 49
Slowest packet = 11536
Flit latency average = 19.5841
	minimum = 7
	maximum = 49
Slowest flit = 11536
Fragmentation average = 0
	minimum = 0
	maximum = 0
Injected packet rate average = 0.02025
	minimum = 0.015 (at node 3)
	maximum = 0.029 (at node 13)
Accepted packet rate average = 0.0196875
	minimum = 0.011 (at node 1)
	maximum = 0.026 (at node 8)
Injected flit rate average = 0.02025
	minimum = 0.015 (at node 3)
	maximum = 0.029 (at node 13)
Accepted flit rate average= 0.0196875
	minimum = 0.011 (at node 1)
	maximum = 0.026 (at node 8)
Injected packet length average = 1
Accepted packet length average = 1
Total in-flight flits = 9 (0 measured)
latency change    = 1
throughput change = 1
Class 0:
Packet latency average = 20.3073
	minimum = 7
	maximum = 49
Network latency average = 20.3073
	minimum = 7
	maximum = 49
Slowest packet = 11536
Flit latency average = 20.3073
	minimum = 7
	maximum = 49
Slowest flit = 11536
Fragmentation average = 0
	minimum = 0
	maximum = 0
Injected packet rate average = 0.0209688
	minimum = 0.0155 (at node 6)
	maximum = 0.025 (at node 1)
Accepted packet rate average = 0.0208438
	minimum = 0.0155 (at node 4)
	maximum = 0.0255 (at node 6)
Injected flit rate average = 0.0209688
	minimum = 0.0155 (at node 6)
	maximum = 0.025 (at node 1)
Accepted flit rate average= 0.0208438
	minimum = 0.0155 (at node 4)
	maximum = 0.0255 (at node 6)
Injected packet length average = 1
Accepted packet length average = 1
Total in-flight flits = 4 (0 measured)
latency change    = 0.0356137
throughput change = 0.0554723
Class 0:
Packet latency average = 19.6706
	minimum = 7
	maximum = 46
Network latency average = 19.6706
	minimum = 7
	maximum = 46
Slowest packet = 12171
Flit latency average = 19.6706
	minimum = 7
	maximum = 46
Slowest flit = 12171
Fragmentation average = 0
	minimum = 0
	maximum = 0
Injected packet rate average = 0.0214375
	minimum = 0.012 (at node 1)
	maximum = 0.029 (at node 9)
Accepted packet rate average = 0.0214375
	minimum = 0.015 (at node 12)
	maximum = 0.031 (at node 9)
Injected flit rate average = 0.0214375
	minimum = 0.012 (at node 1)
	maximum = 0.029 (at node 9)
Accepted flit rate average= 0.0214375
	minimum = 0.015 (at node 12)
	maximum = 0.031 (at node 9)
Injected packet length average = 1
Accepted packet length average = 1
Total in-flight flits = 4 (0 measured)
latency change    = 0.0323729
throughput change = 0.0276968
Warmed up ...Time used is 3000 cycles
Class 0:
Packet latency average = 20.0034
	minimum = 7
	maximum = 39
Network latency average = 20.0034
	minimum = 7
	maximum = 39
Slowest packet = 12575
Flit latency average = 20.0299
	minimum = 7
	maximum = 39
Slowest flit = 12575
Fragmentation average = 0
	minimum = 0
	maximum = 0
Injected packet rate average = 0.0191875
	minimum = 0.01 (at node 5)
	maximum = 0.027 (at node 1)
Accepted packet rate average = 0.0188125
	minimum = 0.013 (at node 13)
	maximum = 0.03 (at node 9)
Injected flit rate average = 0.0191875
	minimum = 0.01 (at node 5)
	maximum = 0.027 (at node 1)
Accepted flit rate average= 0.0188125
	minimum = 0.013 (at node 13)
	maximum = 0.03 (at node 9)
Injected packet length average = 1
Accepted packet length average = 1
Total in-flight flits = 10 (10 measured)
latency change    = 0.0166379
throughput change = 0.139535
Class 0:
Packet latency average = 19.9904
	minimum = 7
	maximum = 45
Network latency average = 19.9904
	minimum = 7
	maximum = 45
Slowest packet = 12986
Flit latency average = 20.0032
	minimum = 7
	maximum = 45
Slowest flit = 12986
Fragmentation average = 0
	minimum = 0
	maximum = 0
Injected packet rate average = 0.0198125
	minimum = 0.013 (at node 5)
	maximum = 0.027 (at node 7)
Accepted packet rate average = 0.01975
	minimum = 0.016 (at node 13)
	maximum = 0.0285 (at node 6)
Injected flit rate average = 0.0198125
	minimum = 0.013 (at node 5)
	maximum = 0.027 (at node 7)
Accepted flit rate average= 0.01975
	minimum = 0.016 (at node 13)
	maximum = 0.0285 (at node 6)
Injected packet length average = 1
Accepted packet length average = 1
Total in-flight flits = 6 (6 measured)
latency change    = 0.000646366
throughput change = 0.0474684
Class 0:
Packet latency average = 19.8991
	minimum = 7
	maximum = 49
Network latency average = 19.8991
	minimum = 7
	maximum = 49
Slowest packet = 13377
Flit latency average = 19.9079
	minimum = 7
	maximum = 49
Slowest flit = 13377
Fragmentation average = 0
	minimum = 0
	maximum = 0
Injected packet rate average = 0.0199792
	minimum = 0.015 (at node 5)
	maximum = 0.026 (at node 7)
Accepted packet rate average = 0.0198958
	minimum = 0.0163333 (at node 4)
	maximum = 0.024 (at node 6)
Injected flit rate average = 0.0199792
	minimum = 0.015 (at node 5)
	maximum = 0.026 (at node 7)
Accepted flit rate average= 0.0198958
	minimum = 0.0163333 (at node 4)
	maximum = 0.024 (at node 6)
Injected packet length average = 1
Accepted packet length average = 1
Total in-flight flits = 8 (8 measured)
latency change    = 0.00459279
throughput change = 0.00732984
Class 0:
Packet latency average = 19.8589
	minimum = 7
	maximum = 49
Network latency average = 19.8589
	minimum = 7
	maximum = 49
Slowest packet = 13377
Flit latency average = 19.8657
	minimum = 7
	maximum = 49
Slowest flit = 13377
Fragmentation average = 0
	minimum = 0
	maximum = 0
Injected packet rate average = 0.0200156
	minimum = 0.01625 (at node 5)
	maximum = 0.026 (at node 7)
Accepted packet rate average = 0.0198906
	minimum = 0.01575 (at node 2)
	maximum = 0.02425 (at node 6)
Injected flit rate average = 0.0200156
	minimum = 0.01625 (at node 5)
	maximum = 0.026 (at node 7)
Accepted flit rate average= 0.0198906
	minimum = 0.01575 (at node 2)
	maximum = 0.02425 (at node 6)
Injected packet length average = 1
Accepted packet length average = 1
Total in-flight flits = 12 (12 measured)
latency change    = 0.00201972
throughput change = 0.000261849
Draining all recorded packets ...
Draining remaining packets ...
Time taken is 7045 cycles
Class 0:
Packet latency average = 19.6911
	minimum = 7
	maximum = 46
Network latency average = 19.6911
	minimum = 7
	maximum = 46
Slowest packet = 13825
Flit latency average = 19.6911
	minimum = 7
	maximum = 46
Slowest flit = 13825
Fragmentation average = 0
	minimum = 0
	maximum = 0
Injected packet rate average = 0.020625
	minimum = 0.014 (at node 7)
	maximum = 0.03 (at node 14)
Accepted packet rate average = 0.0204375
	minimum = 0.011 (at node 14)
	maximum = 0.026 (at node 1)
Injected flit rate average = 0.020625
	minimum = 0.014 (at node 7)
	maximum = 0.03 (at node 14)
Accepted flit rate average= 0.0204375
	minimum = 0.011 (at node 14)
	maximum = 0.026 (at node 1)
Injected packet length average = 1
Accepted packet length average = 1
Total in-flight flits = 3 (0 measured)
latency change    = 1
throughput change = 1
Class 0:
Packet latency average = 19.9814
	minimum = 7
	maximum = 46
Network latency average = 19.9814
	minimum = 7
	maximum = 46
Slowest packet = 13825
Flit latency average = 19.9814
	minimum = 7
	maximum = 46
Slowest flit = 13825
Fragmentation average = 0
	minimum = 0
	maximum = 0
Injected packet rate average = 0.0204063
	minimum = 0.0155 (at node 12)
	maximum = 0.024 (at node 2)
Accepted packet rate average = 0.0201875
	minimum = 0.0115 (at node 14)
	maximum = 0.0275 (at node 13)
Injected flit rate average = 0.0204063
	minimum = 0.0155 (at node 12)
	maximum = 0.024 (at node 2)
Accepted flit rate average= 0.0201875
	minimum = 0.0115 (at node 14)
	maximum = 0.0275 (at node 13)
Injected packet length average = 1
Accepted packet length average = 1
Total in-flight flits = 7 (0 measured)
latency change    = 0.0145281
throughput change = 0.0123839
Class 0:
Packet latency average = 19.1293
	minimum = 7
	maximum = 48
Network latency average = 19.1293
	minimum = 7
	maximum = 48
Slowest packet = 14581
Flit latency average = 19.1293
	minimum = 7
	maximum = 48
Slowest flit = 14581
Fragmentation average = 0
	minimum = 0
	maximum = 0
Injected packet rate average = 0.02175
	minimum = 0.012 (at node 12)
	maximum = 0.027 (at node 3)
Accepted packet rate average = 0.02175
	minimum = 0.013 (at node 12)
	maximum = 0.029 (at node 2)
Injected flit rate average = 0.02175
	minimum = 0.012 (at node 12)
	maximum = 0.027 (at node 3)
Accepted flit rate average= 0.02175
	minimum = 0.013 (at node 12)
	maximum = 0.029 (at node 2)
Injected packet length average = 1
Accepted packet length average = 1
Total in-flight flits = 7 (0 measured)
latency change    = 0.0445449
throughput change = 0.0718391
Warmed up ...Time used is 3000 cycles
Class 0:
Packet latency average = 20.6958
	minimum = 7
	maximum = 40
Network latency average = 20.6958
	minimum = 7
	maximum = 40
Slowest packet = 14864
Flit latency average = 20.7532
	minimum = 7
	maximum = 40
Slowest flit = 14864
Fragmentation average = 0
	minimum = 0
	maximum = 0
Injected packet rate average = 0.0194375
	minimum = 0.016 (at node 1)
	maximum = 0.026 (at node 7)
Accepted packet rate average = 0.01975
	minimum = 0.007 (at node 10)
	maximum = 0.028 (at node 9)
Injected flit rate average = 0.0194375
	minimum = 0.016 (at node 1)
	maximum = 0.026 (at node 7)
Accepted flit rate average= 0.01975
	minimum = 0.007 (at node 10)
	maximum = 0.028 (at node 9)
Injected packet length average = 1
Accepted packet length average = 1
Total in-flight flits = 2 (2 measured)
latency change    = 0.0756909
throughput change = 0.101266
Class 0:
Packet latency average = 20.3298
	minimum = 7
	maximum = 43
Network latency average = 20.3298
	minimum = 7
	maximum = 43
Slowest packet = 15382
Flit latency average = 20.3608
	minimum = 7
	maximum = 43
Slowest flit = 15382
Fragmentation average = 0
	minimum = 0
	maximum = 0
Injected packet rate average = 0.0208438
	minimum = 0.016 (at node 2)
	maximum = 0.0275 (at node 15)
Accepted packet rate average = 0.020875
	minimum = 0.014 (at node 10)
	maximum = 0.026 (at node 12)
Injected flit rate average = 0.0208438
	minimum = 0.016 (at node 2)
	maximum = 0.0275 (at node 15)
Accepted flit rate average= 0.020875
	minimum = 0.014 (at node 10)
	maximum = 0.026 (at node 12)
Injected packet length average = 1
Accepted packet length average = 1
Total in-flight flits = 6 (6 measured)
latency change    = 0.0180026
throughput change = 0.0538922
Class 0:
Packet latency average = 20.2438
	minimum = 7
	maximum = 47
Network latency average = 20.2438
	minimum = 7
	maximum = 47
Slowest packet = 15575
Flit latency average = 20.2657
	minimum = 7
	maximum = 47
Slowest flit = 15575
Fragmentation average = 0
	minimum = 0
	maximum = 0
Injected packet rate average = 0.0202708
	minimum = 0.016 (at node 2)
	maximum = 0.0246667 (at node 15)
Accepted packet rate average = 0.0202292
	minimum = 0.016 (at node 6)
	maximum = 0.0243333 (at node 12)
Injected flit rate average = 0.0202708
	minimum = 0.016 (at node 2)
	maximum = 0.0246667 (at node 15)
Accepted flit rate average= 0.0202292
	minimum = 0.016 (at node 6)
	maximum = 0.0243333 (at node 12)
Injected packet length average = 1
Accepted packet length average = 1
Total in-flight flits = 9 (9 measured)
latency change    = 0.00424957
throughput change = 0.0319258
Class 0:
Packet latency average = 20.129
	minimum = 7
	maximum = 47
Network latency average = 20.129
	minimum = 7
	maximum = 47
Slowest packet = 15575
Flit latency average = 20.1459
	minimum = 7
	maximum = 47
Slowest flit = 15575
Fragmentation average = 0
	minimum = 0
	maximum = 0
Injected packet rate average = 0.0204063
	minimum = 0.01625 (at node 2)
	maximum = 0.02375 (at node 15)
Accepted packet rate average = 0.0204531
	minimum = 0.01675 (at node 2)
	maximum = 0.024 (at node 1)
Injected flit rate average = 0.0204063
	minimum = 0.01625 (at node 2)
	maximum = 0.02375 (at node 15)
Accepted flit rate average= 0.0204531
	minimum = 0.01675 (at node 2)
	maximum = 0.024 (at node 1)
Injected packet length average = 1
Accepted packet length average = 1
Total in-flight flits = 4 (4 measured)
latency change    = 0.00570041
throughput change = 0.0109498
Class 0:
Packet latency average = 20.0876
	minimum = 7
	maximum = 47
Network latency average = 20.0876
	minimum = 7
	maximum = 47
Slowest packet = 15575
Flit latency average = 20.1014
	minimum = 7
	maximum = 47
Slowest flit = 15575
Fragmentation average = 0
	minimum = 0
	maximum = 0
Injected packet rate average = 0.0202375
	minimum = 0.0162 (at node 2)
	maximum = 0.0234 (at node 4)
Accepted packet rate average = 0.0202125
	minimum = 0.0168 (at node 10)
	maximum = 0.0236 (at node 12)
Injected flit rate average = 0.0202375
	minimum = 0.0162 (at node 2)
	maximum = 0.0234 (at node 4)
Accepted flit rate average= 0.0202125
	minimum = 0.0168 (at node 10)
	maximum = 0.0236 (at node 12)
Injected packet length average = 1
Accepted packet length average = 1
Total in-flight flits = 9 (9 measured)
latency change    = 0.00206369
throughput change = 0.0119048
Draining all recorded packets ...
Draining remaining packets ...
Time taken is 8056 cycles
Class 0:
Packet latency average = 20.4625
	minimum = 7
	maximum = 43
Network latency average = 20.4625
	minimum = 7
	maximum = 43
Slowest packet = 16456
Flit latency average = 20.4625
	minimum = 7
	maximum = 43
Slowest flit = 16456
Fragmentation average = 0
	minimum = 0
	maximum = 0
Injected packet rate average = 0.021125
	minimum = 0.016 (at node 7)
	maximum = 0.032 (at node 4)
Accepted packet rate average = 0.0208125
	minimum = 0.014 (at node 4)
	maximum = 0.026 (at node 3)
Injected flit rate average = 0.021125
	minimum = 0.016 (at node 7)
	maximum = 0.032 (at node 4)
Accepted flit rate average= 0.0208125
	minimum = 0.014 (at node 4)
	maximum = 0.026 (at node 3)
Injected packet length average = 1
Accepted packet length average = 1
Total in-flight flits = 5 (0 measured)
latency change    = 1
throughput change = 1
Class 0:
Packet latency average = 20.0078
	minimum = 7
	maximum = 47
Network latency average = 20.0078
	minimum = 7
	maximum = 47
Slowest packet = 16895
Flit latency average = 20.0078
	minimum = 7
	maximum = 47
Slowest flit = 16895
Fragmentation average = 0
	minimum = 0
	maximum = 0
Injected packet rate average = 0.0202188
	minimum = 0.0165 (at node 10)
	maximum = 0.0295 (at node 15)
Accepted packet rate average = 0.0199688
	minimum = 0.0155 (at node 4)
	maximum = 0.0235 (at node 8)
Injected flit rate average = 0.0202188
	minimum = 0.0165 (at node 10)
	maximum = 0.0295 (at node 15)
Accepted flit rate average= 0.0199688
	minimum = 0.0155 (at node 4)
	maximum = 0.0235 (at node 8)
Injected packet length average = 1
Accepted packet length average = 1
Total in-flight flits = 8 (0 measured)
latency change    = 0.022723
throughput change = 0.0422535
Class 0:
Packet latency average = 20.1567
	minimum = 7
	maximum = 52
Network latency average = 20.1567
	minimum = 7
	maximum = 52
Slowest packet = 17167
Flit latency average = 20.1567
	minimum = 7
	maximum = 52
Slowest flit = 17167
Fragmentation average = 0
	minimum = 0
	maximum = 0
Injected packet rate average = 0.0199375
	minimum = 0.01 (at node 10)
	maximum = 0.028 (at node 2)
Accepted packet rate average = 0.0199375
	minimum = 0.014 (at node 9)
	maximum = 0.029 (at node 12)
Injected flit rate average = 0.0199375
	minimum = 0.01 (at node 10)
	maximum = 0.028 (at node 2)
Accepted flit rate average= 0.0199375
	minimum = 0.014 (at node 9)
	maximum = 0.029 (at node 12)
Injected packet length average = 1
Accepted packet length average = 1
Total in-flight flits = 8 (0 measured)
latency change    = 0.00738786
throughput change = 0.0015674
Warmed up ...Time used is 3000 cycles
Class 0:
Packet latency average = 19.2848
	minimum = 7
	maximum = 42
Network latency average = 19.2848
	minimum = 7
	maximum = 42
Slowest packet = 17630
Flit latency average = 19.2484
	minimum = 7
	maximum = 42
Slowest flit = 17630
Fragmentation average = 0
	minimum = 0
	maximum = 0
Injected packet rate average = 0.019125
	minimum = 0.01 (at node 1)
	maximum = 0.026 (at node 3)
Accepted packet rate average = 0.019375
	minimum = 0.011 (at node 8)
	maximum = 0.029 (at node 6)
Injected flit rate average = 0.019125
	minimum = 0.01 (at node 1)
	maximum = 0.026 (at node 3)
Accepted flit rate average= 0.019375
	minimum = 0.011 (at node 8)
	maximum = 0.029 (at node 6)
Injected packet length average = 1
Accepted packet length average = 1
Total in-flight flits = 4 (4 measured)
latency change    = 0.0452156
throughput change = 0.0290323
Class 0:
Packet latency average = 19.6709
	minimum = 7
	maximum = 46
Network latency average = 19.6709
	minimum = 7
	maximum = 46
Slowest packet = 17953
Flit latency average = 19.6484
	minimum = 7
	maximum = 46
Slowest flit = 17953
Fragmentation average = 0
	minimum = 0
	maximum = 0
Injected packet rate average = 0.0199063
	minimum = 0.0135 (at node 1)
	maximum = 0.024 (at node 10)
Accepted packet rate average = 0.02
	minimum = 0.014 (at node 8)
	maximum = 0.025 (at node 6)
Injected flit rate average = 0.0199063
	minimum = 0.0135 (at node 1)
	maximum = 0.024 (at node 10)
Accepted flit rate average= 0.02
	minimum = 0.014 (at node 8)
	maximum = 0.025 (at node 6)
Injected packet length average = 1
Accepted packet length average = 1
Total in-flight flits = 5 (5 measured)
latency change    = 0.0196289
throughput change = 0.03125
Class 0:
Packet latency average = 19.8181
	minimum = 7
	maximum = 46
Network latency average = 19.8181
	minimum = 7
	maximum = 46
Slowest packet = 17953
Flit latency average = 19.8015
	minimum = 7
	maximum = 46
Slowest flit = 17953
Fragmentation average = 0
	minimum = 0
	maximum = 0
Injected packet rate average = 0.0194792
	minimum = 0.0146667 (at node 1)
	maximum = 0.0256667 (at node 13)
Accepted packet rate average = 0.0195208
	minimum = 0.0146667 (at node 8)
	maximum = 0.023 (at node 11)
Injected flit rate average = 0.0194792
	minimum = 0.0146667 (at node 1)
	maximum = 0.0256667 (at node 13)
Accepted flit rate average= 0.0195208
	minimum = 0.0146667 (at node 8)
	maximum = 0.023 (at node 11)
Injected packet length average = 1
Accepted packet length average = 1
Total in-flight flits = 6 (6 measured)
latency change    = 0.00742745
throughput change = 0.0245464
Draining all recorded packets ...
Draining remaining packets ...
Time taken is 6052 cycles
Class 0:
Packet latency average = 19.8544
	minimum = 7
	maximum = 46
Network latency average = 19.8544
	minimum = 7
	maximum = 46
Slowest packet = 18618
Flit latency average = 19.8544
	minimum = 7
	maximum = 46
Slowest flit = 18618
Fragmentation average = 0
	minimum = 0
	maximum = 0
Injected packet rate average = 0.0200625
	minimum = 0.014 (at node 13)
	maximum = 0.024 (at node 14)
Accepted packet rate average = 0.01975
	minimum = 0.011 (at node 2)
	maximum = 0.026 (at node 4)
Injected flit rate average = 0.0200625
	minimum = 0.014 (at node 13)
	maximum = 0.024 (at node 14)
Accepted flit rate average= 0.01975
	minimum = 0.011 (at node 2)
	maximum = 0.026 (at node 4)
Injected packet length average = 1
Accepted packet length average = 1
Total in-flight flits = 5 (0 measured)
latency change    = 1
throughput change = 1
Class 0:
Packet latency average = 20.138
	minimum = 7
	maximum = 48
Network latency average = 20.138
	minimum = 7
	maximum = 48
Slowest packet = 18814
Flit latency average = 20.138
	minimum = 7
	maximum = 48
Slowest flit = 18814
Fragmentation average = 0
	minimum = 0
	maximum = 0
Injected packet rate average = 0.0194687
	minimum = 0.013 (at node 0)
	maximum = 0.0295 (at node 5)
Accepted packet rate average = 0.01925
	minimum = 0.012 (at node 2)
	maximum = 0.0285 (at node 11)
Injected flit rate average = 0.0194687
	minimum = 0.013 (at node 0)
	maximum = 0.0295 (at node 5)
Accepted flit rate average= 0.01925
	minimum = 0.012 (at node 2)
	maximum = 0.0285 (at node 11)
Injected packet length average = 1
Accepted packet length average = 1
Total in-flight flits = 7 (0 measured)
latency change    = 0.0140807
throughput change = 0.025974
Class 0:
Packet latency average = 20.038
	minimum = 7
	maximum = 44
Network latency average = 20.038
	minimum = 7
	maximum = 44
Slowest packet = 19061
Flit latency average = 20.038
	minimum = 7
	maximum = 44
Slowest flit = 19061
Fragmentation average = 0
	minimum = 0
	maximum = 0
Injected packet rate average = 0.0194375
	minimum = 0.01 (at node 8)
	maximum = 0.033 (at node 7)
Accepted packet rate average = 0.01975
	minimum = 0.012 (at node 12)
	maximum = 0.027 (at node 4)
Injected flit rate average = 0.0194375
	minimum = 0.01 (at node 8)
	maximum = 0.033 (at node 7)
Accepted flit rate average= 0.01975
	minimum = 0.012 (at node 12)
	maximum = 0.027 (at node 4)
Injected packet length average = 1
Accepted packet length average = 1
Total in-flight flits = 2 (0 measured)
latency change    = 0.00499114
throughput change = 0.0253165
Warmed up ...Time used is 3000 cycles
Class 0:
Packet latency average = 20.0093
	minimum = 7
	maximum = 49
Network latency average = 20.0093
	minimum = 7
	maximum = 49
Slowest packet = 19392
Flit latency average = 20.0276
	minimum = 7
	maximum = 49
Slowest flit = 19392
Fragmentation average = 0
	minimum = 0
	maximum = 0
Injected packet rate average = 0.020625
	minimum = 0.015 (at node 4)
	maximum = 0.03 (at node 13)
Accepted packet rate average = 0.020375
	minimum = 0.01 (at node 12)
	maximum = 0.026 (at node 7)
Injected flit rate average = 0.020625
	minimum = 0.015 (at node 4)
	maximum = 0.03 (at node 13)
Accepted flit rate average= 0.020375
	minimum = 0.01 (at node 12)
	maximum = 0.026 (at node 7)
Injected packet length average = 1
Accepted packet length average = 1
Total in-flight flits = 6 (6 measured)
latency change    = 0.00143511
throughput change = 0.0306748
Class 0:
Packet latency average = 19.7947
	minimum = 7
	maximum = 49
Network latency average = 19.7947
	minimum = 7
	maximum = 49
Slowest packet = 19392
Flit latency average = 19.8047
	minimum = 7
	maximum = 49
Slowest flit = 19392
Fragmentation average = 0
	minimum = 0
	maximum = 0
Injected packet rate average = 0.0204063
	minimum = 0.016 (at node 1)
	maximum = 0.026 (at node 13)
Accepted packet rate average = 0.0201563
	minimum = 0.0155 (at node 12)
	maximum = 0.0245 (at node 7)
Injected flit rate average = 0.0204063
	minimum = 0.016 (at node 1)
	maximum = 0.026 (at node 13)
Accepted flit rate average= 0.0201563
	minimum = 0.0155 (at node 12)
	maximum = 0.0245 (at node 7)
Injected packet length average = 1
Accepted packet length average = 1
Total in-flight flits = 10 (10 measured)
latency change    = 0.0108386
throughput change = 0.0108527
Class 0:
Packet latency average = 19.6615
	minimum = 7
	maximum = 49
Network latency average = 19.6615
	minimum = 7
	maximum = 49
Slowest packet = 19392
Flit latency average = 19.6684
	minimum = 7
	maximum = 49
Slowest flit = 19392
Fragmentation average = 0
	minimum = 0
	maximum = 0
Injected packet rate average = 0.020375
	minimum = 0.015 (at node 5)
	maximum = 0.0253333 (at node 12)
Accepted packet rate average = 0.0203542
	minimum = 0.016 (at node 11)
	maximum = 0.0246667 (at node 4)
Injected flit rate average = 0.020375
	minimum = 0.015 (at node 5)
	maximum = 0.0253333 (at node 12)
Accepted flit rate average= 0.0203542
	minimum = 0.016 (at node 11)
	maximum = 0.0246667 (at node 4)
Injected packet length average = 1
Accepted packet length average = 1
Total in-flight flits = 3 (3 measured)
latency change    = 0.00677332
throughput change = 0.00972364
Draining all recorded packets ...
Draining remaining packets ...
Time taken is 6028 cycles
Class 0:
Packet latency average = 19.0694
	minimum = 7
	maximum = 42
Network latency average = 19.0694
	minimum = 7
	maximum = 42
Slowest packet = 20518
Flit latency average = 19.0694
	minimum = 7
	maximum = 42
Slowest flit = 20518
Fragmentation average = 0
	minimum = 0
	maximum = 0
Injected packet rate average = 0.020125
	minimum = 0.014 (at node 4)
	maximum = 0.027 (at node 11)
Accepted packet rate average = 0.0198125
	minimum = 0.013 (at node 2)
	maximum = 0.027 (at node 7)
Injected flit rate average = 0.020125
	minimum = 0.014 (at node 4)
	maximum = 0.027 (at node 11)
Accepted flit rate average= 0.0198125
	minimum = 0.013 (at node 2)
	maximum = 0.027 (at node 7)
Injected packet length average = 1
Accepted packet length average = 1
Total in-flight flits = 5 (0 measured)
latency change    = 1
throughput change = 1
Class 0:
Packet latency average = 19.2749
	minimum = 7
	maximum = 42
Network latency average = 19.2749
	minimum = 7
	maximum = 42
Slowest packet = 20518
Flit latency average = 19.2749
	minimum = 7
	maximum = 42
Slowest flit = 20518
Fragmentation average = 0
	minimum = 0
	maximum = 0
Injected packet rate average = 0.0183125
	minimum = 0.013 (at node 1)
	maximum = 0.022 (at node 5)
Accepted packet rate average = 0.0181875
	minimum = 0.013 (at node 12)
	maximum = 0.022 (at node 4)
Injected flit rate average = 0.0183125
	minimum = 0.013 (at node 1)
	maximum = 0.022 (at node 5)
Accepted flit rate average= 0.0181875
	minimum = 0.013 (at node 12)
	maximum = 0.022 (at node 4)
Injected packet length average = 1
Accepted packet length average = 1
Total in-flight flits = 4 (0 measured)
latency change    = 0.0106622
throughput change = 0.0893471
Class 0:
Packet latency average = 19.7121
	minimum = 7
	maximum = 49
Network latency average = 19.7121
	minimum = 7
	maximum = 49
Slowest packet = 20913
Flit latency average = 19.7121
	minimum = 7
	maximum = 49
Slowest flit = 20913
Fragmentation average = 0
	minimum = 0
	maximum = 0
Injected packet rate average = 0.02075
	minimum = 0.011 (at node 3)
	maximum = 0.026 (at node 4)
Accepted packet rate average = 0.020625
	minimum = 0.01 (at node 1)
	maximum = 0.031 (at node 2)
Injected flit rate average = 0.02075
	minimum = 0.011 (at node 3)
	maximum = 0.026 (at node 4)
Accepted flit rate average= 0.020625
	minimum = 0.01 (at node 1)
	maximum = 0.031 (at node 2)
Injected packet length average = 1
Accepted packet length average = 1
Total in-flight flits = 6 (0 measured)
latency change    = 0.0221796
throughput change = 0.118182
Warmed up ...Time used is 3000 cycles
Class 0:
Packet latency average = 19.2843
	minimum = 7
	maximum = 44
Network latency average = 19.2843
	minimum = 7
	maximum = 44
Slowest packet = 21368
Flit latency average = 19.3197
	minimum = 7
	maximum = 44
Slowest flit = 21368
Fragmentation average = 0
	minimum = 0
	maximum = 0
Injected packet rate average = 0.0198125
	minimum = 0.013 (at node 12)
	maximum = 0.027 (at node 7)
Accepted packet rate average = 0.0199375
	minimum = 0.011 (at node 11)
	maximum = 0.028 (at node 5)
Injected flit rate average = 0.0198125
	minimum = 0.013 (at node 12)
	maximum = 0.027 (at node 7)
Accepted flit rate average= 0.0199375
	minimum = 0.011 (at node 11)
	maximum = 0.028 (at node 5)
Injected packet length average = 1
Accepted packet length average = 1
Total in-flight flits = 4 (4 measured)
latency change    = 0.0221826
throughput change = 0.0344828
Class 0:
Packet latency average = 19.8194
	minimum = 7
	maximum = 44
Network latency average = 19.8194
	minimum = 7
	maximum = 44
Slowest packet = 21368
Flit latency average = 19.8314
	minimum = 7
	maximum = 44
Slowest flit = 21368
Fragmentation average = 0
	minimum = 0
	maximum = 0
Injected packet rate average = 0.0210313
	minimum = 0.0165 (at node 12)
	maximum = 0.027 (at node 11)
Accepted packet rate average = 0.021125
	minimum = 0.0155 (at node 11)
	maximum = 0.026 (at node 4)
Injected flit rate average = 0.0210313
	minimum = 0.0165 (at node 12)
	maximum = 0.027 (at node 11)
Accepted flit rate average= 0.021125
	minimum = 0.0155 (at node 11)
	maximum = 0.026 (at node 4)
Injected packet length average = 1
Accepted packet length average = 1
Total in-flight flits = 3 (3 measured)
latency change    = 0.0269967
throughput change = 0.056213
Class 0:
Packet latency average = 19.7234
	minimum = 7
	maximum = 44
Network latency average = 19.7234
	minimum = 7
	maximum = 44
Slowest packet = 21368
Flit latency average = 19.7321
	minimum = 7
	maximum = 44
Slowest flit = 21368
Fragmentation average = 0
	minimum = 0
	maximum = 0
Injected packet rate average = 0.0208958
	minimum = 0.018 (at node 3)
	maximum = 0.0256667 (at node 11)
Accepted packet rate average = 0.0209167
	minimum = 0.0166667 (at node 15)
	maximum = 0.025 (at node 4)
Injected flit rate average = 0.0208958
	minimum = 0.018 (at node 3)
	maximum = 0.0256667 (at node 11)
Accepted flit rate average= 0.0209167
	minimum = 0.0166667 (at node 15)
	maximum = 0.025 (at node 4)
Injected packet length average = 1
Accepted packet length average = 1
Total in-flight flits = 5 (5 measured)
latency change    = 0.00486508
throughput change = 0.00996016
Class 0:
Packet latency average = 19.6649
	minimum = 7
	maximum = 44
Network latency average = 19.6649
	minimum = 7
	maximum = 44
Slowest packet = 21368
Flit latency average = 19.6717
	minimum = 7
	maximum = 44
Slowest flit = 21368
Fragmentation average = 0
	minimum = 0
	maximum = 0
Injected packet rate average = 0.020875
	minimum = 0.017 (at node 12)
	maximum = 0.02475 (at node 8)
Accepted packet rate average = 0.0208906
	minimum = 0.0165 (at node 15)
	maximum = 0.0245 (at node 3)
Injected flit rate average = 0.020875
	minimum = 0.017 (at node 12)
	maximum = 0.02475 (at node 8)
Accepted flit rate average= 0.0208906
	minimum = 0.0165 (at node 15)
	maximum = 0.0245 (at node 3)
Injected packet length average = 1
Accepted packet length average = 1
Total in-flight flits = 5 (5 measured)
latency change    = 0.00297653
throughput change = 0.00124657
Class 0:
Packet latency average = 19.7678
	minimum = 7
	maximum = 46
Network latency average = 19.7678
	minimum = 7
	maximum = 46
Slowest packet = 22486
Flit latency average = 19.7728
	minimum = 7
	maximum = 46
Slowest flit = 22486
Fragmentation average = 0
	minimum = 0
	maximum = 0
Injected packet rate average = 0.0209875
	minimum = 0.017 (at node 12)
	maximum = 0.0246 (at node 8)
Accepted packet rate average = 0.0209625
	minimum = 0.0178 (at node 14)
	maximum = 0.0252 (at node 9)
Injected flit rate average = 0.0209875
	minimum = 0.017 (at node 12)
	maximum = 0.0246 (at node 8)
Accepted flit rate average= 0.0209625
	minimum = 0.0178 (at node 14)
	maximum = 0.0252 (at node 9)
Injected packet length average = 1
Accepted packet length average = 1
Total in-flight flits = 8 (8 measured)
latency change    = 0.00520493
throughput change = 0.00342874
Draining all recorded packets ...
Draining remaining packets ...
Time taken is 8055 cycles
Class 0:
Packet latency average = 19.5101
	minimum = 7
	maximum = 52
Network latency average = 19.5101
	minimum = 7
	maximum = 52
Slowest packet = 22988
Flit latency average = 19.5101
	minimum = 7
	maximum = 52
Slowest flit = 22988
Fragmentation average = 0
	minimum = 0
	maximum = 0
Injected packet rate average = 0.0185625
	minimum = 0.01 (at node 11)
	maximum = 0.025 (at node 5)
Accepted packet rate average = 0.0185
	minimum = 0.008 (at node 12)
	maximum = 0.027 (at node 9)
Injected flit rate average = 0.0185625
	minimum = 0.01 (at node 11)
	maximum = 0.025 (at node 5)
Accepted flit rate average= 0.0185
	minimum = 0.008 (at node 12)
	maximum = 0.027 (at node 9)
Injected packet length average = 1
Accepted packet length average = 1
Total in-flight flits = 1 (0 measured)
latency change    = 1
throughput change = 1
Class 0:
Packet latency average = 19.661
	minimum = 7
	maximum = 52
Network latency average = 19.661
	minimum = 7
	maximum = 52
Slowest packet = 22988
Flit latency average = 19.661
	minimum = 7
	maximum = 52
Slowest flit = 22988
Fragmentation average = 0
	minimum = 0
	maximum = 0
Injected packet rate average = 0.018625
	minimum = 0.014 (at node 11)
	maximum = 0.0215 (at node 12)
Accepted packet rate average = 0.0184375
	minimum = 0.012 (at node 12)
	maximum = 0.0245 (at node 6)
Injected flit rate average = 0.018625
	minimum = 0.014 (at node 11)
	maximum = 0.0215 (at node 12)
Accepted flit rate average= 0.0184375
	minimum = 0.012 (at node 12)
	maximum = 0.0245 (at node 6)
Injected packet length average = 1
Accepted packet length average = 1
Total in-flight flits = 6 (0 measured)
latency change    = 0.00767416
throughput change = 0.00338983
Class 0:
Packet latency average = 19.9388
	minimum = 7
	maximum = 47
Network latency average = 19.9388
	minimum = 7
	maximum = 47
Slowest packet = 23496
Flit latency average = 19.9388
	minimum = 7
	maximum = 47
Slowest flit = 23496
Fragmentation average = 0
	minimum = 0
	maximum = 0
Injected packet rate average = 0.0204375
	minimum = 0.009 (at node 1)
	maximum = 0.031 (at node 12)
Accepted packet rate average = 0.0204375
	minimum = 0.014 (at node 0)
	maximum = 0.027 (at node 2)
Injected flit rate average = 0.0204375
	minimum = 0.009 (at node 1)
	maximum = 0.031 (at node 12)
Accepted flit rate average= 0.0204375
	minimum = 0.014 (at node 0)
	maximum = 0.027 (at node 2)
Injected packet length average = 1
Accepted packet length average = 1
Total in-flight flits = 6 (0 measured)
latency change    = 0.0139337
throughput change = 0.0978593
Warmed up ...Time used is 3000 cycles
Class 0:
Packet latency average = 19.7967
	minimum = 7
	maximum = 43
Network latency average = 19.7967
	minimum = 7
	maximum = 43
Slowest packet = 23843
Flit latency average = 19.9132
	minimum = 7
	maximum = 43
Slowest flit = 23843
Fragmentation average = 0
	minimum = 0
	maximum = 0
Injected packet rate average = 0.019375
	minimum = 0.014 (at node 15)
	maximum = 0.024 (at node 6)
Accepted packet rate average = 0.0194375
	minimum = 0.011 (at node 15)
	maximum = 0.029 (at node 1)
Injected flit rate average = 0.019375
	minimum = 0.014 (at node 15)
	maximum = 0.024 (at node 6)
Accepted flit rate average= 0.0194375
	minimum = 0.011 (at node 15)
	maximum = 0.029 (at node 1)
Injected packet length average = 1
Accepted packet length average = 1
Total in-flight flits = 5 (5 measured)
latency change    = 0.0071788
throughput change = 0.0514469
Class 0:
Packet latency average = 19.7469
	minimum = 7
	maximum = 46
Network latency average = 19.7469
	minimum = 7
	maximum = 46
Slowest packet = 24103
Flit latency average = 19.8028
	minimum = 7
	maximum = 46
Slowest flit = 24103
Fragmentation average = 0
	minimum = 0
	maximum = 0
Injected packet rate average = 0.020375
	minimum = 0.017 (at node 0)
	maximum = 0.024 (at node 3)
Accepted packet rate average = 0.0204375
	minimum = 0.0125 (at node 6)
	maximum = 0.026 (at node 1)
Injected flit rate average = 0.020375
	minimum = 0.017 (at node 0)
	maximum = 0.024 (at node 3)
Accepted flit rate average= 0.0204375
	minimum = 0.0125 (at node 6)
	maximum = 0.026 (at node 1)
Injected packet length average = 1
Accepted packet length average = 1
Total in-flight flits = 4 (4 measured)
latency change    = 0.0025223
throughput change = 0.0489297
Class 0:
Packet latency average = 19.6911
	minimum = 7
	maximum = 46
Network latency average = 19.6911
	minimum = 7
	maximum = 46
Slowest packet = 24103
Flit latency average = 19.73
	minimum = 7
	maximum = 46
Slowest flit = 24103
Fragmentation average = 0
	minimum = 0
	maximum = 0
Injected packet rate average = 0.0196667
	minimum = 0.015 (at node 8)
	maximum = 0.0236667 (at node 6)
Accepted packet rate average = 0.01975
	minimum = 0.0136667 (at node 6)
	maximum = 0.0253333 (at node 1)
Injected flit rate average = 0.0196667
	minimum = 0.015 (at node 8)
	maximum = 0.0236667 (at node 6)
Accepted flit rate average= 0.01975
	minimum = 0.0136667 (at node 6)
	maximum = 0.0253333 (at node 1)
Injected packet length average = 1
Accepted packet length average = 1
Total in-flight flits = 2 (2 measured)
latency change    = 0.00283533
throughput change = 0.0348101
Class 0:
Packet latency average = 19.7808
	minimum = 7
	maximum = 46
Network latency average = 19.7808
	minimum = 7
	maximum = 46
Slowest packet = 24103
Flit latency average = 19.8095
	minimum = 7
	maximum = 46
Slowest flit = 24103
Fragmentation average = 0
	minimum = 0
	maximum = 0
Injected packet rate average = 0.01975
	minimum = 0.0155 (at node 8)
	maximum = 0.0235 (at node 6)
Accepted packet rate average = 0.0197656
	minimum = 0.0165 (at node 5)
	maximum = 0.025 (at node 10)
Injected flit rate average = 0.01975
	minimum = 0.0155 (at node 8)
	maximum = 0.0235 (at node 6)
Accepted flit rate average= 0.0197656
	minimum = 0.0165 (at node 5)
	maximum = 0.025 (at node 10)
Injected packet length average = 1
Accepted packet length average = 1
Total in-flight flits = 5 (5 measured)
latency change    = 0.00453448
throughput change = 0.000790514
Draining all recorded packets ...
Draining remaining packets ...
Time taken is 7054 cycles
Class 0:
Packet latency average = 19.518
	minimum = 7
	maximum = 44
Network latency average = 19.518
	minimum = 7
	maximum = 44
Slowest packet = 25274
Flit latency average = 19.518
	minimum = 7
	maximum = 44
Slowest flit = 25274
Fragmentation average = 0
	minimum = 0
	maximum = 0
Injected packet rate average = 0.0215
	minimum = 0.017 (at node 12)
	maximum = 0.028 (at node 6)
Accepted packet rate average = 0.020875
	minimum = 0.014 (at node 14)
	maximum = 0.031 (at node 2)
Injected flit rate average = 0.0215
	minimum = 0.017 (at node 12)
	maximum = 0.028 (at node 6)
Accepted flit rate average= 0.020875
	minimum = 0.014 (at node 14)
	maximum = 0.031 (at node 2)
Injected packet length average = 1
Accepted packet length average = 1
Total in-flight flits = 10 (0 measured)
latency change    = 1
throughput change = 1
Class 0:
Packet latency average = 19.6387
	minimum = 7
	maximum = 46
Network latency average = 19.6387
	minimum = 7
	maximum = 46
Slowest packet = 25402
Flit latency average = 19.6387
	minimum = 7
	maximum = 46
Slowest flit = 25402
Fragmentation average = 0
	minimum = 0
	maximum = 0
Injected packet rate average = 0.0206875
	minimum = 0.018 (at node 1)
	maximum = 0.0245 (at node 6)
Accepted packet rate average = 0.0205
	minimum = 0.0175 (at node 14)
	maximum = 0.026 (at node 2)
Injected flit rate average = 0.0206875
	minimum = 0.018 (at node 1)
	maximum = 0.0245 (at node 6)
Accepted flit rate average= 0.0205
	minimum = 0.0175 (at node 14)
	maximum = 0.026 (at node 2)
Injected packet length average = 1
Accepted packet length average = 1
Total in-flight flits = 6 (0 measured)
latency change    = 0.00614884
throughput change = 0.0182927
Class 0:
Packet latency average = 19.9352
	minimum = 7
	maximum = 40
Network latency average = 19.9352
	minimum = 7
	maximum = 40
Slowest packet = 25872
Flit latency average = 19.9352
	minimum = 7
	maximum = 40
Slowest flit = 25872
Fragmentation average = 0
	minimum = 0
	maximum = 0
Injected packet rate average = 0.02225
	minimum = 0.011 (at node 1)
	maximum = 0.036 (at node 12)
Accepted packet rate average = 0.0221875
	minimum = 0.014 (at node 14)
	maximum = 0.03 (at node 3)
Injected flit rate average = 0.02225
	minimum = 0.011 (at node 1)
	maximum = 0.036 (at node 12)
Accepted flit rate average= 0.0221875
	minimum = 0.014 (at node 14)
	maximum = 0.03 (at node 3)
Injected packet length average = 1
Accepted packet length average = 1
Total in-flight flits = 7 (0 measured)
latency change    = 0.0148728
throughput change = 0.0760563
Warmed up ...Time used is 3000 cycles
Class 0:
Packet latency average = 19.5118
	minimum = 7
	maximum = 55
Network latency average = 19.5118
	minimum = 7
	maximum = 55
Slowest packet = 26227
Flit latency average = 19.5855
	minimum = 7
	maximum = 55
Slowest flit = 26227
Fragmentation average = 0
	minimum = 0
	maximum = 0
Injected packet rate average = 0.0189375
	minimum = 0.016 (at node 2)
	maximum = 0.024 (at node 12)
Accepted packet rate average = 0.019
	minimum = 0.011 (at node 1)
	maximum = 0.029 (at node 9)
Injected flit rate average = 0.0189375
	minimum = 0.016 (at node 2)
	maximum = 0.024 (at node 12)
Accepted flit rate average= 0.019
	minimum = 0.011 (at node 1)
	maximum = 0.029 (at node 9)
Injected packet length average = 1
Accepted packet length average = 1
Total in-flight flits = 6 (6 measured)
latency change    = 0.0217011
throughput change = 0.167763
Class 0:
Packet latency average = 19.4777
	minimum = 7
	maximum = 55
Network latency average = 19.4777
	minimum = 7
	maximum = 55
Slowest packet = 26227
Flit latency average = 19.5122
	minimum = 7
	maximum = 55
Slowest flit = 26227
Fragmentation average = 0
	minimum = 0
	maximum = 0
Injected packet rate average = 0.0204063
	minimum = 0.017 (at node 2)
	maximum = 0.0235 (at node 13)
Accepted packet rate average = 0.0205
	minimum = 0.0155 (at node 1)
	maximum = 0.026 (at node 6)
Injected flit rate average = 0.0204063
	minimum = 0.017 (at node 2)
	maximum = 0.0235 (at node 13)
Accepted flit rate average= 0.0205
	minimum = 0.0155 (at node 1)
	maximum = 0.026 (at node 6)
Injected packet length average = 1
Accepted packet length average = 1
Total in-flight flits = 4 (4 measured)
latency change    = 0.00175209
throughput change = 0.0731707
Class 0:
Packet latency average = 19.5763
	minimum = 7
	maximum = 55
Network latency average = 19.5763
	minimum = 7
	maximum = 55
Slowest packet = 26227
Flit latency average = 19.599
	minimum = 7
	maximum = 55
Slowest flit = 26227
Fragmentation average = 0
	minimum = 0
	maximum = 0
Injected packet rate average = 0.0202917
	minimum = 0.0173333 (at node 15)
	maximum = 0.0253333 (at node 13)
Accepted packet rate average = 0.0202083
	minimum = 0.0153333 (at node 14)
	maximum = 0.0236667 (at node 11)
Injected flit rate average = 0.0202917
	minimum = 0.0173333 (at node 15)
	maximum = 0.0253333 (at node 13)
Accepted flit rate average= 0.0202083
	minimum = 0.0153333 (at node 14)
	maximum = 0.0236667 (at node 11)
Injected packet length average = 1
Accepted packet length average = 1
Total in-flight flits = 11 (11 measured)
latency change    = 0.00504007
throughput change = 0.014433
Class 0:
Packet latency average = 19.7266
	minimum = 7
	maximum = 55
Network latency average = 19.7266
	minimum = 7
	maximum = 55
Slowest packet = 26227
Flit latency average = 19.7427
	minimum = 7
	maximum = 55
Slowest flit = 26227
Fragmentation average = 0
	minimum = 0
	maximum = 0
Injected packet rate average = 0.0202969
	minimum = 0.018 (at node 2)
	maximum = 0.0245 (at node 13)
Accepted packet rate average = 0.0202813
	minimum = 0.016 (at node 14)
	maximum = 0.02375 (at node 5)
Injected flit rate average = 0.0202969
	minimum = 0.018 (at node 2)
	maximum = 0.0245 (at node 13)
Accepted flit rate average= 0.0202813
	minimum = 0.016 (at node 14)
	maximum = 0.02375 (at node 5)
Injected packet length average = 1
Accepted packet length average = 1
Total in-flight flits = 8 (8 measured)
latency change    = 0.00761636
throughput change = 0.00359527
Class 0:
Packet latency average = 19.5713
	minimum = 7
	maximum = 55
Network latency average = 19.5713
	minimum = 7
	maximum = 55
Slowest packet = 26227
Flit latency average = 19.5846
	minimum = 7
	maximum = 55
Slowest flit = 26227
Fragmentation average = 0
	minimum = 0
	maximum = 0
Injected packet rate average = 0.020675
	minimum = 0.0184 (at node 8)
	maximum = 0.0266 (at node 13)
Accepted packet rate average = 0.0206125
	minimum = 0.0168 (at node 1)
	maximum = 0.0238 (at node 5)
Injected flit rate average = 0.020675
	minimum = 0.0184 (at node 8)
	maximum = 0.0266 (at node 13)
Accepted flit rate average= 0.0206125
	minimum = 0.0168 (at node 1)
	maximum = 0.0238 (at node 5)
Injected packet length average = 1
Accepted packet length average = 1
Total in-flight flits = 12 (12 measured)
latency change    = 0.00793582
throughput change = 0.0160703
Draining all recorded packets ...
Draining remaining packets ...
Time taken is 8037 cycles
Class 0:
Packet latency average = 19.8746
	minimum = 7
	maximum = 45
Network latency average = 19.8746
	minimum = 7
	maximum = 45
Slowest packet = 27746
Flit latency average = 19.8746
	minimum = 7
	maximum = 45
Slowest flit = 27746
Fragmentation average = 0
	minimum = 0
	maximum = 0
Injected packet rate average = 0.022125
	minimum = 0.015 (at node 1)
	maximum = 0.028 (at node 13)
Accepted packet rate average = 0.0214375
	minimum = 0.015 (at node 10)
	maximum = 0.029 (at node 6)
Injected flit rate average = 0.022125
	minimum = 0.015 (at node 1)
	maximum = 0.028 (at node 13)
Accepted flit rate average= 0.0214375
	minimum = 0.015 (at node 10)
	maximum = 0.029 (at node 6)
Injected packet length average = 1
Accepted packet length average = 1
Total in-flight flits = 11 (0 measured)
latency change    = 1
throughput change = 1
Class 0:
Packet latency average = 20.0552
	minimum = 7
	maximum = 45
Network latency average = 20.0552
	minimum = 7
	maximum = 45
Slowest packet = 27746
Flit latency average = 20.0552
	minimum = 7
	maximum = 45
Slowest flit = 27746
Fragmentation average = 0
	minimum = 0
	maximum = 0
Injected packet rate average = 0.020625
	minimum = 0.0155 (at node 1)
	maximum = 0.0265 (at node 6)
Accepted packet rate average = 0.020375
	minimum = 0.017 (at node 1)
	maximum = 0.025 (at node 14)
Injected flit rate average = 0.020625
	minimum = 0.0155 (at node 1)
	maximum = 0.0265 (at node 6)
Accepted flit rate average= 0.020375
	minimum = 0.017 (at node 1)
	maximum = 0.025 (at node 14)
Injected packet length average = 1
Accepted packet length average = 1
Total in-flight flits = 8 (0 measured)
latency change    = 0.0090041
throughput change = 0.0521472
Class 0:
Packet latency average = 20.0581
	minimum = 7
	maximum = 39
Network latency average = 20.0581
	minimum = 7
	maximum = 39
Slowest packet = 28378
Flit latency average = 20.0581
	minimum = 7
	maximum = 39
Slowest flit = 28378
Fragmentation average = 0
	minimum = 0
	maximum = 0
Injected packet rate average = 0.0191875
	minimum = 0.013 (at node 7)
	maximum = 0.026 (at node 5)
Accepted packet rate average = 0.019375
	minimum = 0.011 (at node 0)
	maximum = 0.028 (at node 13)
Injected flit rate average = 0.0191875
	minimum = 0.013 (at node 7)
	maximum = 0.026 (at node 5)
Accepted flit rate average= 0.019375
	minimum = 0.011 (at node 0)
	maximum = 0.028 (at node 13)
Injected packet length average = 1
Accepted packet length average = 1
Total in-flight flits = 5 (0 measured)
latency change    = 0.000142077
throughput change = 0.0516129
Warmed up ...Time used is 3000 cycles
Class 0:
Packet latency average = 20.1765
	minimum = 7
	maximum = 46
Network latency average = 20.1765
	minimum = 7
	maximum = 46
Slowest packet = 28868
Flit latency average = 20.2029
	minimum = 7
	maximum = 46
Slowest flit = 28868
Fragmentation average = 0
	minimum = 0
	maximum = 0
Injected packet rate average = 0.0215
	minimum = 0.017 (at node 1)
	maximum = 0.03 (at node 7)
Accepted packet rate average = 0.0215625
	minimum = 0.014 (at node 14)
	maximum = 0.031 (at node 13)
Injected flit rate average = 0.0215
	minimum = 0.017 (at node 1)
	maximum = 0.03 (at node 7)
Accepted flit rate average= 0.0215625
	minimum = 0.014 (at node 14)
	maximum = 0.031 (at node 13)
Injected packet length average = 1
Accepted packet length average = 1
Total in-flight flits = 4 (4 measured)
latency change    = 0.00586852
throughput change = 0.101449
Class 0:
Packet latency average = 20.3598
	minimum = 7
	maximum = 46
Network latency average = 20.3598
	minimum = 7
	maximum = 46
Slowest packet = 28868
Flit latency average = 20.3725
	minimum = 7
	maximum = 46
Slowest flit = 28868
Fragmentation average = 0
	minimum = 0
	maximum = 0
Injected packet rate average = 0.0202188
	minimum = 0.014 (at node 12)
	maximum = 0.026 (at node 8)
Accepted packet rate average = 0.0202188
	minimum = 0.015 (at node 14)
	maximum = 0.027 (at node 10)
Injected flit rate average = 0.0202188
	minimum = 0.014 (at node 12)
	maximum = 0.026 (at node 8)
Accepted flit rate average= 0.0202188
	minimum = 0.015 (at node 14)
	maximum = 0.027 (at node 10)
Injected packet length average = 1
Accepted packet length average = 1
Total in-flight flits = 5 (5 measured)
latency change    = 0.00900512
throughput change = 0.0664606
Class 0:
Packet latency average = 20.1551
	minimum = 7
	maximum = 47
Network latency average = 20.1551
	minimum = 7
	maximum = 47
Slowest packet = 29512
Flit latency average = 20.1648
	minimum = 7
	maximum = 47
Slowest flit = 29512
Fragmentation average = 0
	minimum = 0
	maximum = 0
Injected packet rate average = 0.0199583
	minimum = 0.0146667 (at node 12)
	maximum = 0.027 (at node 8)
Accepted packet rate average = 0.0199792
	minimum = 0.0163333 (at node 14)
	maximum = 0.0243333 (at node 10)
Injected flit rate average = 0.0199583
	minimum = 0.0146667 (at node 12)
	maximum = 0.027 (at node 8)
Accepted flit rate average= 0.0199792
	minimum = 0.0163333 (at node 14)
	maximum = 0.0243333 (at node 10)
Injected packet length average = 1
Accepted packet length average = 1
[...]
Fragmentation average = 0
	minimum = 0
	maximum = 0
Injected packet rate average = 0.019875
	minimum = 0.01 (at node 6)
	maximum = 0.026 (at node 5)
Accepted packet rate average = 0.0193125
	minimum = 0.011 (at node 13)
	maximum = 0.026 (at node 10)
Injected flit rate average = 0.019875
	minimum = 0.01 (at node 6)
	maximum = 0.026 (at node 5)
Accepted flit rate average= 0.0193125
	minimum = 0.011 (at node 13)
	maximum = 0.026 (at node 10)
Injected packet length average = 1
Accepted packet length average = 1
Total in-flight flits = 9 (0 measured)
latency change    = 1
throughput change = 1
Class 0:
Packet latency average = 20.2492
	minimum = 7
	maximum = 42
Network latency average = 20.2492
	minimum = 7
	maximum = 42
Slowest packet = 218237
Flit latency average = 20.2492
	minimum = 7
	maximum = 42
Slowest flit = 218237
Fragmentation average = 0
	minimum = 0
	maximum = 0
Injected packet rate average = 0.0199688
	minimum = 0.0135 (at node 4)
	maximum = 0.0275 (at node 13)
Accepted packet rate average = 0.0196875
	minimum = 0.015 (at node 13)
	maximum = 0.024 (at node 14)
Injected flit rate average = 0.0199688
	minimum = 0.0135 (at node 4)
	maximum = 0.0275 (at node 13)
Accepted flit rate average= 0.0196875
	minimum = 0.015 (at node 13)
	maximum = 0.024 (at node 14)
Injected packet length average = 1
Accepted packet length average = 1
Total in-flight flits = 9 (0 measured)
latency change    = 0.0161427
throughput change = 0.0190476
Class 0:
Packet latency average = 20.1589
	minimum = 7
	maximum = 42
Network latency average = 20.1589
	minimum = 7
	maximum = 42
Slowest packet = 218781
Flit latency average = 20.1589
	minimum = 7
	maximum = 42
Slowest flit = 218781
Fragmentation average = 0
	minimum = 0
	maximum = 0
Injected packet rate average = 0.0196875
	minimum = 0.01 (at node 12)
	maximum = 0.029 (at node 3)
Accepted packet rate average = 0.0200625
	minimum = 0.008 (at node 14)
	maximum = 0.028 (at node 2)
Injected flit rate average = 0.0196875
	minimum = 0.01 (at node 12)
	maximum = 0.029 (at node 3)
Accepted flit rate average= 0.0200625
	minimum = 0.008 (at node 14)
	maximum = 0.028 (at node 2)
Injected packet length average = 1
Accepted packet length average = 1
Total in-flight flits = 3 (0 measured)
latency change    = 0.0044808
throughput change = 0.0186916
Warmed up ...Time used is 3000 cycles
Class 0:
Packet latency average = 19.9537
	minimum = 7
	maximum = 43
Network latency average = 19.9537
	minimum = 7
	maximum = 43
Slowest packet = 219200
Flit latency average = 20.0336
	minimum = 7
	maximum = 43
Slowest flit = 219200
Fragmentation average = 0
	minimum = 0
	maximum = 0
Injected packet rate average = 0.0206875
	minimum = 0.015 (at node 12)
	maximum = 0.029 (at node 13)
Accepted packet rate average = 0.0204375
	minimum = 0.014 (at node 3)
	maximum = 0.026 (at node 5)
Injected flit rate average = 0.0206875
	minimum = 0.015 (at node 12)
	maximum = 0.029 (at node 13)
Accepted flit rate average= 0.0204375
	minimum = 0.014 (at node 3)
	maximum = 0.026 (at node 5)
Injected packet length average = 1
Accepted packet length average = 1
Total in-flight flits = 7 (7 measured)
latency change    = 0.0102825
throughput change = 0.0183486
Class 0:
Packet latency average = 19.7423
	minimum = 7
	maximum = 47
Network latency average = 19.7423
	minimum = 7
	maximum = 47
Slowest packet = 219659
Flit latency average = 19.7855
	minimum = 7
	maximum = 47
Slowest flit = 219659
Fragmentation average = 0
	minimum = 0
	maximum = 0
Injected packet rate average = 0.0194375
	minimum = 0.015 (at node 12)
	maximum = 0.025 (at node 10)
Accepted packet rate average = 0.019375
	minimum = 0.016 (at node 15)
	maximum = 0.0235 (at node 6)
Injected flit rate average = 0.0194375
	minimum = 0.015 (at node 12)
	maximum = 0.025 (at node 10)
Accepted flit rate average= 0.019375
	minimum = 0.016 (at node 15)
	maximum = 0.0235 (at node 6)
Injected packet length average = 1
Accepted packet length average = 1
Total in-flight flits = 5 (5 measured)
latency change    = 0.0107081
throughput change = 0.0548387
Class 0:
Packet latency average = 19.914
	minimum = 7
	maximum = 49
Network latency average = 19.914
	minimum = 7
	maximum = 49
Slowest packet = 219827
Flit latency average = 19.9421
	minimum = 7
	maximum = 49
Slowest flit = 219827
Fragmentation average = 0
	minimum = 0
	maximum = 0
Injected packet rate average = 0.0195
	minimum = 0.015 (at node 8)
	maximum = 0.025 (at node 10)
Accepted packet rate average = 0.0194375
	minimum = 0.0156667 (at node 15)
	maximum = 0.025 (at node 12)
Injected flit rate average = 0.0195
	minimum = 0.015 (at node 8)
	maximum = 0.025 (at node 10)
Accepted flit rate average= 0.0194375
	minimum = 0.0156667 (at node 15)
	maximum = 0.025 (at node 12)
Injected packet length average = 1
Accepted packet length average = 1
Total in-flight flits = 6 (6 measured)
latency change    = 0.00862093
throughput change = 0.00321543
Class 0:
Packet latency average = 20.0312
	minimum = 7
	maximum = 49
Network latency average = 20.0312
	minimum = 7
	maximum = 49
Slowest packet = 219827
Flit latency average = 20.0519
	minimum = 7
	maximum = 49
Slowest flit = 219827
Fragmentation average = 0
	minimum = 0
	maximum = 0
Injected packet rate average = 0.0196563
	minimum = 0.01575 (at node 8)
	maximum = 0.0245 (at node 10)
Accepted packet rate average = 0.0195781
	minimum = 0.0165 (at node 13)
	maximum = 0.02475 (at node 6)
Injected flit rate average = 0.0196563
	minimum = 0.01575 (at node 8)
	maximum = 0.0245 (at node 10)
Accepted flit rate average= 0.0195781
	minimum = 0.0165 (at node 13)
	maximum = 0.02475 (at node 6)
Injected packet length average = 1
Accepted packet length average = 1
Total in-flight flits = 8 (8 measured)
latency change    = 0.00585195
throughput change = 0.00718276
Class 0:
Packet latency average = 20.0065
	minimum = 7
	maximum = 49
Network latency average = 20.0065
	minimum = 7
	maximum = 49
Slowest packet = 219827
Flit latency average = 20.0232
	minimum = 7
	maximum = 49
Slowest flit = 219827
Fragmentation average = 0
	minimum = 0
	maximum = 0
Injected packet rate average = 0.019525
	minimum = 0.0166 (at node 14)
	maximum = 0.0222 (at node 10)
Accepted packet rate average = 0.0194125
	minimum = 0.0156 (at node 13)
	maximum = 0.0236 (at node 6)
Injected flit rate average = 0.019525
	minimum = 0.0166 (at node 14)
	maximum = 0.0222 (at node 10)
Accepted flit rate average= 0.0194125
	minimum = 0.0156 (at node 13)
	maximum = 0.0236 (at node 6)
Injected packet length average = 1
Accepted packet length average = 1
Total in-flight flits = 12 (12 measured)
latency change    = 0.00123702
throughput change = 0.00853187
Draining all recorded packets ...
Draining remaining packets ...
Time taken is 8058 cycles
Class 0:
Packet latency average = 20.0031
	minimum = 7
	maximum = 63
Network latency average = 20.0031
	minimum = 7
	maximum = 63
Slowest packet = 220914
Flit latency average = 20.0031
	minimum = 7
	maximum = 63
Slowest flit = 220914
Fragmentation average = 0
	minimum = 0
	maximum = 0
Injected packet rate average = 0.021
	minimum = 0.012 (at node 3)
	maximum = 0.029 (at node 10)
Accepted packet rate average = 0.0204375
	minimum = 0.014 (at node 9)
	maximum = 0.029 (at node 13)
Injected flit rate average = 0.021
	minimum = 0.012 (at node 3)
	maximum = 0.029 (at node 10)
Accepted flit rate average= 0.0204375
	minimum = 0.014 (at node 9)
	maximum = 0.029 (at node 13)
Injected packet length average = 1
Accepted packet length average = 1
Total in-flight flits = 9 (0 measured)
latency change    = 1
throughput change = 1
Class 0:
Packet latency average = 20.1279
	minimum = 7
	maximum = 63
Network latency average = 20.1279
	minimum = 7
	maximum = 63
Slowest packet = 220914
Flit latency average = 20.1279
	minimum = 7
	maximum = 63
Slowest flit = 220914
Fragmentation average = 0
	minimum = 0
	maximum = 0
Injected packet rate average = 0.0207188
	minimum = 0.0145 (at node 15)
	maximum = 0.026 (at node 10)
Accepted packet rate average = 0.0205313
	minimum = 0.014 (at node 9)
	maximum = 0.027 (at node 13)
Injected flit rate average = 0.0207188
	minimum = 0.0145 (at node 15)
	maximum = 0.026 (at node 10)
Accepted flit rate average= 0.0205313
	minimum = 0.014 (at node 9)
	maximum = 0.027 (at node 13)
Injected packet length average = 1
Accepted packet length average = 1
Total in-flight flits = 6 (0 measured)
latency change    = 0.00620015
throughput change = 0.00456621
Class 0:
Packet latency average = 19.6414
	minimum = 7
	maximum = 45
Network latency average = 19.6414
	minimum = 7
	maximum = 45
Slowest packet = 221505
Flit latency average = 19.6414
	minimum = 7
	maximum = 45
Slowest flit = 221505
Fragmentation average = 0
	minimum = 0
	maximum = 0
Injected packet rate average = 0.018875
	minimum = 0.012 (at node 14)
	maximum = 0.026 (at node 3)
Accepted packet rate average = 0.019
	minimum = 0.01 (at node 0)
	maximum = 0.027 (at node 10)
Injected flit rate average = 0.018875
	minimum = 0.012 (at node 14)
	maximum = 0.026 (at node 3)
Accepted flit rate average= 0.019
	minimum = 0.01 (at node 0)
	maximum = 0.027 (at node 10)
Injected packet length average = 1
Accepted packet length average = 1
Total in-flight flits = 4 (0 measured)
latency change    = 0.0247643
throughput change = 0.0805921
Warmed up ...Time used is 3000 cycles
Class 0:
Packet latency average = 19.8121
	minimum = 7
	maximum = 49
Network latency average = 19.8121
	minimum = 7
	maximum = 49
Slowest packet = 221785
Flit latency average = 19.7925
	minimum = 7
	maximum = 49
Slowest flit = 221785
Fragmentation average = 0
	minimum = 0
	maximum = 0
Injected packet rate average = 0.019875
	minimum = 0.009 (at node 11)
	maximum = 0.029 (at node 7)
Accepted packet rate average = 0.019875
	minimum = 0.012 (at node 9)
	maximum = 0.029 (at node 5)
Injected flit rate average = 0.019875
	minimum = 0.009 (at node 11)
	maximum = 0.029 (at node 7)
Accepted flit rate average= 0.019875
	minimum = 0.012 (at node 9)
	maximum = 0.029 (at node 5)
Injected packet length average = 1
Accepted packet length average = 1
Total in-flight flits = 4 (4 measured)
latency change    = 0.00861365
throughput change = 0.0440252
Class 0:
Packet latency average = 19.8378
	minimum = 7
	maximum = 49
Network latency average = 19.8378
	minimum = 7
	maximum = 49
Slowest packet = 221785
Flit latency average = 19.8272
	minimum = 7
	maximum = 49
Slowest flit = 221785
Fragmentation average = 0
	minimum = 0
	maximum = 0
Injected packet rate average = 0.018625
	minimum = 0.0135 (at node 11)
	maximum = 0.0245 (at node 12)
Accepted packet rate average = 0.018625
	minimum = 0.015 (at node 2)
	maximum = 0.0225 (at node 11)
Injected flit rate average = 0.018625
	minimum = 0.0135 (at node 11)
	maximum = 0.0245 (at node 12)
Accepted flit rate average= 0.018625
	minimum = 0.015 (at node 2)
	maximum = 0.0225 (at node 11)
Injected packet length average = 1
Accepted packet length average = 1
Total in-flight flits = 4 (4 measured)
latency change    = 0.00129732
throughput change = 0.0671141
Class 0:
Packet latency average = 19.8319
	minimum = 7
	maximum = 49
Network latency average = 19.8319
	minimum = 7
	maximum = 49
Slowest packet = 221785
Flit latency average = 19.8249
	minimum = 7
	maximum = 49
Slowest flit = 221785
Fragmentation average = 0
	minimum = 0
	maximum = 0
Injected packet rate average = 0.0189583
	minimum = 0.0143333 (at node 11)
	maximum = 0.0233333 (at node 12)
Accepted packet rate average = 0.0189167
	minimum = 0.0143333 (at node 6)
	maximum = 0.0226667 (at node 8)
Injected flit rate average = 0.0189583
	minimum = 0.0143333 (at node 11)
	maximum = 0.0233333 (at node 12)
Accepted flit rate average= 0.0189167
	minimum = 0.0143333 (at node 6)
	maximum = 0.0226667 (at node 8)
Injected packet length average = 1
Accepted packet length average = 1
Total in-flight flits = 6 (6 measured)
latency change    = 0.000301506
throughput change = 0.0154185
Class 0:
Packet latency average = 19.9842
	minimum = 7
	maximum = 49
Network latency average = 19.9842
	minimum = 7
	maximum = 49
Slowest packet = 221785
Flit latency average = 19.9785
	minimum = 7
	maximum = 49
Slowest flit = 221785
Fragmentation average = 0
	minimum = 0
	maximum = 0
Injected packet rate average = 0.0189844
	minimum = 0.0145 (at node 11)
	maximum = 0.02225 (at node 15)
Accepted packet rate average = 0.018875
	minimum = 0.01625 (at node 6)
	maximum = 0.02125 (at node 8)
Injected flit rate average = 0.0189844
	minimum = 0.0145 (at node 11)
	maximum = 0.02225 (at node 15)
Accepted flit rate average= 0.018875
	minimum = 0.01625 (at node 6)
	maximum = 0.02125 (at node 8)
Injected packet length average = 1
Accepted packet length average = 1
Total in-flight flits = 11 (11 measured)
latency change    = 0.00762406
throughput change = 0.00220751
Class 0:
Packet latency average = 19.9201
	minimum = 7
	maximum = 51
Network latency average = 19.9201
	minimum = 7
	maximum = 51
Slowest packet = 222965
Flit latency average = 19.9157
	minimum = 7
	maximum = 51
Slowest flit = 222965
Fragmentation average = 0
	minimum = 0
	maximum = 0
Injected packet rate average = 0.0191625
	minimum = 0.015 (at node 11)
	maximum = 0.0218 (at node 15)
Accepted packet rate average = 0.0191375
	minimum = 0.0166 (at node 7)
	maximum = 0.0222 (at node 8)
Injected flit rate average = 0.0191625
	minimum = 0.015 (at node 11)
	maximum = 0.0218 (at node 15)
Accepted flit rate average= 0.0191375
	minimum = 0.0166 (at node 7)
	maximum = 0.0222 (at node 8)
Injected packet length average = 1
Accepted packet length average = 1
Total in-flight flits = 6 (6 measured)
latency change    = 0.00321858
throughput change = 0.0137165
Draining all recorded packets ...
Draining remaining packets ...
Time taken is 8050 cycles
Class 0:
Packet latency average = 19.3139
	minimum = 7
	maximum = 43
Network latency average = 19.3139
	minimum = 7
	maximum = 43
Slowest packet = 223375
Flit latency average = 19.3139
	minimum = 7
	maximum = 43
Slowest flit = 223375
Fragmentation average = 0
	minimum = 0
	maximum = 0
Injected packet rate average = 0.019625
	minimum = 0.012 (at node 4)
	maximum = 0.03 (at node 0)
Accepted packet rate average = 0.0193125
	minimum = 0.013 (at node 11)
	maximum = 0.025 (at node 7)
Injected flit rate average = 0.019625
	minimum = 0.012 (at node 4)
	maximum = 0.03 (at node 0)
Accepted flit rate average= 0.0193125
	minimum = 0.013 (at node 11)
	maximum = 0.025 (at node 7)
Injected packet length average = 1
Accepted packet length average = 1
Total in-flight flits = 5 (0 measured)
latency change    = 1
throughput change = 1
Class 0:
Packet latency average = 19.5205
	minimum = 7
	maximum = 43
Network latency average = 19.5205
	minimum = 7
	maximum = 43
Slowest packet = 223375
Flit latency average = 19.5205
	minimum = 7
	maximum = 43
Slowest flit = 223375
Fragmentation average = 0
	minimum = 0
	maximum = 0
Injected packet rate average = 0.0194062
	minimum = 0.013 (at node 13)
	maximum = 0.0245 (at node 0)
Accepted packet rate average = 0.0190937
	minimum = 0.0145 (at node 2)
	maximum = 0.025 (at node 10)
Injected flit rate average = 0.0194062
	minimum = 0.013 (at node 13)
	maximum = 0.0245 (at node 0)
Accepted flit rate average= 0.0190937
	minimum = 0.0145 (at node 2)
	maximum = 0.025 (at node 10)
Injected packet length average = 1
Accepted packet length average = 1
Total in-flight flits = 10 (0 measured)
latency change    = 0.0105808
throughput change = 0.0114566
Class 0:
Packet latency average = 19.8972
	minimum = 7
	maximum = 46
Network latency average = 19.8972
	minimum = 7
	maximum = 46
Slowest packet = 223926
Flit latency average = 19.8972
	minimum = 7
	maximum = 46
Slowest flit = 223926
Fragmentation average = 0
	minimum = 0
	maximum = 0
Injected packet rate average = 0.019625
	minimum = 0.012 (at node 10)
	maximum = 0.029 (at node 3)
Accepted packet rate average = 0.0200625
	minimum = 0.011 (at node 10)
	maximum = 0.028 (at node 9)
Injected flit rate average = 0.019625
	minimum = 0.012 (at node 10)
	maximum = 0.029 (at node 3)
Accepted flit rate average= 0.0200625
	minimum = 0.011 (at node 10)
	maximum = 0.028 (at node 9)
Injected packet length average = 1
Accepted packet length average = 1
Total in-flight flits = 3 (0 measured)
latency change    = 0.0189342
throughput change = 0.0482866
Warmed up ...Time used is 3000 cycles
Class 0:
Packet latency average = 20.1246
	minimum = 7
	maximum = 45
Network latency average = 20.1246
	minimum = 7
	maximum = 45
Slowest packet = 224261
Flit latency average = 20.1104
	minimum = 7
	maximum = 45
Slowest flit = 224261
Fragmentation average = 0
	minimum = 0
	maximum = 0
Injected packet rate average = 0.0194375
	minimum = 0.014 (at node 0)
	maximum = 0.026 (at node 12)
Accepted packet rate average = 0.01925
	minimum = 0.011 (at node 7)
	maximum = 0.027 (at node 15)
Injected flit rate average = 0.0194375
	minimum = 0.014 (at node 0)
	maximum = 0.026 (at node 12)
Accepted flit rate average= 0.01925
	minimum = 0.011 (at node 7)
	maximum = 0.027 (at node 15)
Injected packet length average = 1
Accepted packet length average = 1
Total in-flight flits = 6 (6 measured)
latency change    = 0.0112993
throughput change = 0.0422078
Class 0:
Packet latency average = 20.3964
	minimum = 7
	maximum = 45
Network latency average = 20.3964
	minimum = 7
	maximum = 45
Slowest packet = 224261
Flit latency average = 20.388
	minimum = 7
	maximum = 45
Slowest flit = 224261
Fragmentation average = 0
	minimum = 0
	maximum = 0
Injected packet rate average = 0.019375
	minimum = 0.016 (at node 0)
	maximum = 0.0235 (at node 7)
Accepted packet rate average = 0.01925
	minimum = 0.013 (at node 10)
	maximum = 0.024 (at node 4)
Injected flit rate average = 0.019375
	minimum = 0.016 (at node 0)
	maximum = 0.0235 (at node 7)
Accepted flit rate average= 0.01925
	minimum = 0.013 (at node 10)
	maximum = 0.024 (at node 4)
Injected packet length average = 1
Accepted packet length average = 1
Total in-flight flits = 7 (7 measured)
latency change    = 0.0133269
throughput change = 0
Class 0:
Packet latency average = 20.3283
	minimum = 7
	maximum = 47
Network latency average = 20.3283
	minimum = 7
	maximum = 47
Slowest packet = 224730
Flit latency average = 20.3229
	minimum = 7
	maximum = 47
Slowest flit = 224730
Fragmentation average = 0
	minimum = 0
	maximum = 0
Injected packet rate average = 0.0193958
	minimum = 0.016 (at node 10)
	maximum = 0.023 (at node 5)
Accepted packet rate average = 0.0192917
	minimum = 0.014 (at node 10)
	maximum = 0.0273333 (at node 4)
Injected flit rate average = 0.0193958
	minimum = 0.016 (at node 10)
	maximum = 0.023 (at node 5)
Accepted flit rate average= 0.0192917
	minimum = 0.014 (at node 10)
	maximum = 0.0273333 (at node 4)
Injected packet length average = 1
Accepted packet length average = 1
Total in-flight flits = 8 (8 measured)
latency change    = 0.00335167
throughput change = 0.00215983
Draining all recorded packets ...
Draining remaining packets ...
Time taken is 6046 cycles
====== Overall Traffic Statistics ======
====== Traffic class 0 ======
Packet latency average = 19.9255 (100 samples)
	minimum = 7 (100 samples)
	maximum = 49.41 (100 samples)
Network latency average = 19.9255 (100 samples)
	minimum = 7 (100 samples)
	maximum = 49.41 (100 samples)
Flit latency average = 19.9431 (100 samples)
	minimum = 7 (100 samples)
	maximum = 49.49 (100 samples)
Fragmentation average = 0 (100 samples)
	minimum = 0 (100 samples)
	maximum = 0 (100 samples)
Injected packet rate average = 0.0199871 (100 samples)
	minimum = 0.0160802 (100 samples)
	maximum = 0.0241865 (100 samples)
Accepted packet rate average = 0.0199866 (100 samples)
	minimum = 0.0161245 (100 samples)
	maximum = 0.0240397 (100 samples)
Injected flit rate average = 0.0199871 (100 samples)
	minimum = 0.0160802 (100 samples)
	maximum = 0.0241865 (100 samples)
Accepted flit rate average = 0.0199866 (100 samples)
	minimum = 0.0161245 (100 samples)
	maximum = 0.0240397 (100 samples)
Injected packet size average = 1 (100 samples)
Accepted packet size average = 1 (100 samples)
Hops average = 3.50151 (100 samples)
Total run time 14.3248
