BEGIN Configuration File: /tmp/bs_1137237_588691.cfg
topology = mesh;
k = 4;
n = 2;
routing_function = gnn_ppo_route_4x4;
num_vcs = 4;
vc_buf_size = 4;
wait_for_tail_credit = 1;
vc_allocator = islip;
sw_allocator = islip;
alloc_iters = 1;
credit_delay = 2;
routing_delay = 1;
vc_alloc_delay = 1;
sw_alloc_delay = 1;
input_speedup = 2;
output_speedup = 1;
internal_speedup = 1.0;
traffic = hotspot;
packet_size = 1;
sim_type = latency;
injection_rate = 0.02;
warmup_periods = 3;
sample_period = 1000;
sim_count = 100;
seed = 2;

END Configuration File: /tmp/bs_1137237_588691.cfg
Class 0:
Packet latency average = 19.3297
	minimum = 7
	maximum = 33
Network latency average = 19.3297
	minimum = 7
	maximum = 33
Slowest packet = 221
Flit latency average = 19.3297
	minimum = 7
	maximum = 33
Slowest flit = 221
Fragmentation average = 0
	minimum = 0
	maximum = 0
Injected packet rate average = 0.0180625
	minimum = 0.008 (at node 9)
	maximum = 0.025 (at node 10)
Accepted packet rate average = 0.0174375
	minimum = 0 (at node 0)
	maximum = 0.279 (at node 11)
Injected flit rate average = 0.0180625
	minimum = 0.008 (at node 9)
	maximum = 0.025 (at node 10)
Accepted flit rate average= 0.0174375
	minimum = 0 (at node 0)
	maximum = 0.279 (at node 11)
Injected packet length average = 1
Accepted packet length average = 1
Total in-flight flits = 10 (0 measured)
latency change    = 1
throughput change = 1
Class 0:
Packet latency average = 19.9671
	minimum = 7
	maximum = 43
Network latency average = 19.9671
	minimum = 7
	maximum = 43
Slowest packet = 334
Flit latency average = 19.9671
	minimum = 7
	maximum = 43
Slowest flit = 334
Fragmentation average = 0
	minimum = 0
	maximum = 0
Injected packet rate average = 0.0190937
	minimum = 0.0145 (at node 2)
	maximum = 0.028 (at node 10)
Accepted packet rate average = 0.0189687
	minimum = 0 (at node 0)
	maximum = 0.3035 (at node 11)
Injected flit rate average = 0.0190937
	minimum = 0.0145 (at node 2)
	maximum = 0.028 (at node 10)
Accepted flit rate average= 0.0189687
	minimum = 0 (at node 0)
	maximum = 0.3035 (at node 11)
Injected packet length average = 1
Accepted packet length average = 1
Total in-flight flits = 4 (0 measured)
latency change    = 0.0319177
throughput change = 0.0807249
Class 0:
Packet latency average = 19.9522
	minimum = 7
	maximum = 53
Network latency average = 19.9522
	minimum = 7
	maximum = 53
Slowest packet = 866
Flit latency average = 19.9522
	minimum = 7
	maximum = 53
Slowest flit = 866
Fragmentation average = 0
	minimum = 0
	maximum = 0
Injected packet rate average = 0.0185
	minimum = 0.011 (at node 6)
	maximum = 0.025 (at node 10)
Accepted packet rate average = 0.0183125
	minimum = 0 (at node 0)
	maximum = 0.293 (at node 11)
Injected flit rate average = 0.0185
	minimum = 0.011 (at node 6)
	maximum = 0.025 (at node 10)
Accepted flit rate average= 0.0183125
	minimum = 0 (at node 0)
	maximum = 0.293 (at node 11)
Injected packet length average = 1
Accepted packet length average = 1
Total in-flight flits = 7 (0 measured)
latency change    = 0.000743408
throughput change = 0.0358362
Warmed up ...Time used is 3000 cycles
Class 0:
Packet latency average = 21.0859
	minimum = 7
	maximum = 44
Network latency average = 21.0859
	minimum = 7
	maximum = 44
Slowest packet = 1213
Flit latency average = 21.087
	minimum = 7
	maximum = 44
Slowest flit = 1213
Fragmentation average = 0
	minimum = 0
	maximum = 0
Injected packet rate average = 0.0229375
	minimum = 0.013 (at node 6)
	maximum = 0.03 (at node 12)
Accepted packet rate average = 0.023
	minimum = 0 (at node 0)
	maximum = 0.368 (at node 11)
Injected flit rate average = 0.0229375
	minimum = 0.013 (at node 6)
	maximum = 0.03 (at node 12)
Accepted flit rate average= 0.023
	minimum = 0 (at node 0)
	maximum = 0.368 (at node 11)
Injected packet length average = 1
Accepted packet length average = 1
Total in-flight flits = 6 (6 measured)
latency change    = 0.0537637
throughput change = 0.203804
Class 0:
Packet latency average = 20.6045
	minimum = 7
	maximum = 44
Network latency average = 20.6045
	minimum = 7
	maximum = 44
Slowest packet = 1213
Flit latency average = 20.6101
	minimum = 7
	maximum = 44
Slowest flit = 1213
Fragmentation average = 0
	minimum = 0
	maximum = 0
Injected packet rate average = 0.0210625
	minimum = 0.017 (at node 1)
	maximum = 0.026 (at node 7)
Accepted packet rate average = 0.021
	minimum = 0 (at node 0)
	maximum = 0.336 (at node 11)
Injected flit rate average = 0.0210625
	minimum = 0.017 (at node 1)
	maximum = 0.026 (at node 7)
Accepted flit rate average= 0.021
	minimum = 0 (at node 0)
	maximum = 0.336 (at node 11)
Injected packet length average = 1
Accepted packet length average = 1
Total in-flight flits = 9 (9 measured)
latency change    = 0.0233619
throughput change = 0.0952381
Class 0:
Packet latency average = 20.6406
	minimum = 7
	maximum = 44
Network latency average = 20.6406
	minimum = 7
	maximum = 44
Slowest packet = 1213
Flit latency average = 20.6442
	minimum = 7
	maximum = 44
Slowest flit = 1213
Fragmentation average = 0
	minimum = 0
	maximum = 0
Injected packet rate average = 0.0206667
	minimum = 0.018 (at node 8)
	maximum = 0.0243333 (at node 10)
Accepted packet rate average = 0.0206667
	minimum = 0 (at node 0)
	maximum = 0.330667 (at node 11)
Injected flit rate average = 0.0206667
	minimum = 0.018 (at node 8)
	maximum = 0.0243333 (at node 10)
Accepted flit rate average= 0.0206667
	minimum = 0 (at node 0)
	maximum = 0.330667 (at node 11)
Injected packet length average = 1
Accepted packet length average = 1
Total in-flight flits = 7 (7 measured)
latency change    = 0.00174888
throughput change = 0.016129
Class 0:
Packet latency average = 20.416
	minimum = 7
	maximum = 44
Network latency average = 20.416
	minimum = 7
	maximum = 44
Slowest packet = 1213
Flit latency average = 20.4199
	minimum = 7
	maximum = 44
Slowest flit = 1213
Fragmentation average = 0
	minimum = 0
	maximum = 0
Injected packet rate average = 0.0204688
	minimum = 0.01725 (at node 2)
	maximum = 0.0225 (at node 4)
Accepted packet rate average = 0.0203906
	minimum = 0 (at node 0)
	maximum = 0.32625 (at node 11)
Injected flit rate average = 0.0204688
	minimum = 0.01725 (at node 2)
	maximum = 0.0225 (at node 4)
Accepted flit rate average= 0.0203906
	minimum = 0 (at node 0)
	maximum = 0.32625 (at node 11)
Injected packet length average = 1
Accepted packet length average = 1
Total in-flight flits = 12 (12 measured)
latency change    = 0.0110004
throughput change = 0.0135377
Class 0:
Packet latency average = 20.5043
	minimum = 7
	maximum = 46
Network latency average = 20.5043
	minimum = 7
	maximum = 46
Slowest packet = 2252
Flit latency average = 20.507
	minimum = 7
	maximum = 46
Slowest flit = 2252
Fragmentation average = 0
	minimum = 0
	maximum = 0
Injected packet rate average = 0.0206
	minimum = 0.0174 (at node 2)
	maximum = 0.0236 (at node 15)
Accepted packet rate average = 0.0206125
	minimum = 0 (at node 0)
	maximum = 0.3298 (at node 11)
Injected flit rate average = 0.0206
	minimum = 0.0174 (at node 2)
	maximum = 0.0236 (at node 15)
Accepted flit rate average= 0.0206125
	minimum = 0 (at node 0)
	maximum = 0.3298 (at node 11)
Injected packet length average = 1
Accepted packet length average = 1
Total in-flight flits = 6 (6 measured)
latency change    = 0.00430342
throughput change = 0.0107641
Draining all recorded packets ...
Draining remaining packets ...
Time taken is 8044 cycles
Class 0:
Packet latency average = 21.0283
	minimum = 7
	maximum = 44
Network latency average = 21.0283
	minimum = 7
	maximum = 44
Slowest packet = 2639
Flit latency average = 21.0283
	minimum = 7
	maximum = 44
Slowest flit = 2639
Fragmentation average = 0
	minimum = 0
	maximum = 0
Injected packet rate average = 0.02025
	minimum = 0.015 (at node 5)
	maximum = 0.03 (at node 3)
Accepted packet rate average = 0.019875
	minimum = 0 (at node 0)
	maximum = 0.318 (at node 11)
Injected flit rate average = 0.02025
	minimum = 0.015 (at node 5)
	maximum = 0.03 (at node 3)
Accepted flit rate average= 0.019875
	minimum = 0 (at node 0)
	maximum = 0.318 (at node 11)
Injected packet length average = 1
Accepted packet length average = 1
Total in-flight flits = 6 (0 measured)
latency change    = 1
throughput change = 1
Class 0:
Packet latency average = 21.0212
	minimum = 7
	maximum = 44
Network latency average = 21.0212
	minimum = 7
	maximum = 44
Slowest packet = 2639
Flit latency average = 21.0212
	minimum = 7
	maximum = 44
Slowest flit = 2639
Fragmentation average = 0
	minimum = 0
	maximum = 0
Injected packet rate average = 0.0208125
	minimum = 0.017 (at node 9)
	maximum = 0.0245 (at node 0)
Accepted packet rate average = 0.0206563
	minimum = 0 (at node 0)
	maximum = 0.3305 (at node 11)
Injected flit rate average = 0.0208125
	minimum = 0.017 (at node 9)
	maximum = 0.0245 (at node 0)
Accepted flit rate average= 0.0206563
	minimum = 0 (at node 0)
	maximum = 0.3305 (at node 11)
Injected packet length average = 1
Accepted packet length average = 1
Total in-flight flits = 5 (0 measured)
latency change    = 0.000338794
throughput change = 0.0378215
Class 0:
Packet latency average = 21.2225
	minimum = 7
	maximum = 41
Network latency average = 21.2225
	minimum = 7
	maximum = 41
Slowest packet = 3399
Flit latency average = 21.2225
	minimum = 7
	maximum = 41
Slowest flit = 3399
Fragmentation average = 0
	minimum = 0
	maximum = 0
Injected packet rate average = 0.022125
	minimum = 0.015 (at node 1)
	maximum = 0.03 (at node 12)
Accepted packet rate average = 0.021625
	minimum = 0 (at node 0)
	maximum = 0.346 (at node 11)
Injected flit rate average = 0.022125
	minimum = 0.015 (at node 1)
	maximum = 0.03 (at node 12)
Accepted flit rate average= 0.021625
	minimum = 0 (at node 0)
	maximum = 0.346 (at node 11)
Injected packet length average = 1
Accepted packet length average = 1
Total in-flight flits = 13 (0 measured)
latency change    = 0.00948818
throughput change = 0.0447977
Warmed up ...Time used is 3000 cycles
Class 0:
Packet latency average = 20.3223
	minimum = 7
	maximum = 36
Network latency average = 20.3223
	minimum = 7
	maximum = 36
Slowest packet = 3765
Flit latency average = 20.3694
	minimum = 7
	maximum = 36
Slowest flit = 3567
Fragmentation average = 0
	minimum = 0
	maximum = 0
Injected packet rate average = 0.019125
	minimum = 0.013 (at node 9)
	maximum = 0.027 (at node 1)
Accepted packet rate average = 0.019625
	minimum = 0 (at node 0)
	maximum = 0.314 (at node 11)
Injected flit rate average = 0.019125
	minimum = 0.013 (at node 9)
	maximum = 0.027 (at node 1)
Accepted flit rate average= 0.019625
	minimum = 0 (at node 0)
	maximum = 0.314 (at node 11)
Injected packet length average = 1
Accepted packet length average = 1
Total in-flight flits = 5 (5 measured)
latency change    = 0.0443004
throughput change = 0.101911
Class 0:
Packet latency average = 20.594
	minimum = 7
	maximum = 37
Network latency average = 20.594
	minimum = 7
	maximum = 37
Slowest packet = 4163
Flit latency average = 20.6124
	minimum = 7
	maximum = 37
Slowest flit = 4163
Fragmentation average = 0
	minimum = 0
	maximum = 0
Injected packet rate average = 0.019
	minimum = 0.014 (at node 9)
	maximum = 0.0235 (at node 5)
Accepted packet rate average = 0.0191875
	minimum = 0 (at node 0)
	maximum = 0.307 (at node 11)
Injected flit rate average = 0.019
	minimum = 0.014 (at node 9)
	maximum = 0.0235 (at node 5)
Accepted flit rate average= 0.0191875
	minimum = 0 (at node 0)
	maximum = 0.307 (at node 11)
Injected packet length average = 1
Accepted packet length average = 1
Total in-flight flits = 7 (7 measured)
latency change    = 0.0131956
throughput change = 0.0228013
Class 0:
Packet latency average = 20.6364
	minimum = 7
	maximum = 38
Network latency average = 20.6364
	minimum = 7
	maximum = 38
Slowest packet = 4231
Flit latency average = 20.6479
	minimum = 7
	maximum = 38
Slowest flit = 4231
Fragmentation average = 0
	minimum = 0
	maximum = 0
Injected packet rate average = 0.0192083
	minimum = 0.0146667 (at node 6)
	maximum = 0.0226667 (at node 1)
Accepted packet rate average = 0.0192917
	minimum = 0 (at node 0)
	maximum = 0.308667 (at node 11)
Injected flit rate average = 0.0192083
	minimum = 0.0146667 (at node 6)
	maximum = 0.0226667 (at node 1)
Accepted flit rate average= 0.0192917
	minimum = 0 (at node 0)
	maximum = 0.308667 (at node 11)
Injected packet length average = 1
Accepted packet length average = 1
Total in-flight flits = 9 (9 measured)
latency change    = 0.00205238
throughput change = 0.00539957
Class 0:
Packet latency average = 20.4295
	minimum = 7
	maximum = 38
Network latency average = 20.4295
	minimum = 7
	maximum = 38
Slowest packet = 4231
Flit latency average = 20.4403
	minimum = 7
	maximum = 38
Slowest flit = 4231
Fragmentation average = 0
	minimum = 0
	maximum = 0
Injected packet rate average = 0.0192812
	minimum = 0.0145 (at node 6)
	maximum = 0.0225 (at node 5)
Accepted packet rate average = 0.019375
	minimum = 0 (at node 0)
	maximum = 0.31 (at node 11)
Injected flit rate average = 0.0192812
	minimum = 0.0145 (at node 6)
	maximum = 0.0225 (at node 5)
Accepted flit rate average= 0.019375
	minimum = 0 (at node 0)
	maximum = 0.31 (at node 11)
Injected packet length average = 1
Accepted packet length average = 1
Total in-flight flits = 7 (7 measured)
latency change    = 0.0101256
throughput change = 0.00430108
Draining all recorded packets ...
Draining remaining packets ...
Time taken is 7052 cycles
Class 0:
Packet latency average = 21.7896
	minimum = 7
	maximum = 41
Network latency average = 21.7896
	minimum = 7
	maximum = 41
Slowest packet = 4990
Flit latency average = 21.7896
	minimum = 7
	maximum = 41
Slowest flit = 4990
Fragmentation average = 0
	minimum = 0
	maximum = 0
Injected packet rate average = 0.02225
	minimum = 0.011 (at node 2)
	maximum = 0.034 (at node 1)
Accepted packet rate average = 0.0216875
	minimum = 0 (at node 0)
	maximum = 0.347 (at node 11)
Injected flit rate average = 0.02225
	minimum = 0.011 (at node 2)
	maximum = 0.034 (at node 1)
Accepted flit rate average= 0.0216875
	minimum = 0 (at node 0)
	maximum = 0.347 (at node 11)
Injected packet length average = 1
Accepted packet length average = 1
Total in-flight flits = 9 (0 measured)
latency change    = 1
throughput change = 1
Class 0:
Packet latency average = 21.2019
	minimum = 7
	maximum = 41
Network latency average = 21.2019
	minimum = 7
	maximum = 41
Slowest packet = 4990
Flit latency average = 21.2019
	minimum = 7
	maximum = 41
Slowest flit = 4990
Fragmentation average = 0
	minimum = 0
	maximum = 0
Injected packet rate average = 0.02025
	minimum = 0.0165 (at node 7)
	maximum = 0.0265 (at node 0)
Accepted packet rate average = 0.0199688
	minimum = 0 (at node 0)
	maximum = 0.3195 (at node 11)
Injected flit rate average = 0.02025
	minimum = 0.0165 (at node 7)
	maximum = 0.0265 (at node 0)
Accepted flit rate average= 0.0199688
	minimum = 0 (at node 0)
	maximum = 0.3195 (at node 11)
Injected packet length average = 1
Accepted packet length average = 1
Total in-flight flits = 9 (0 measured)
latency change    = 0.0277215
throughput change = 0.086072
Class 0:
Packet latency average = 20.7539
	minimum = 7
	maximum = 37
Network latency average = 20.7539
	minimum = 7
	maximum = 37
Slowest packet = 5464
Flit latency average = 20.7539
	minimum = 7
	maximum = 37
Slowest flit = 5464
Fragmentation average = 0
	minimum = 0
	maximum = 0
Injected packet rate average = 0.0198125
	minimum = 0.012 (at node 1)
	maximum = 0.027 (at node 2)
Accepted packet rate average = 0.0198125
	minimum = 0 (at node 0)
	maximum = 0.317 (at node 11)
Injected flit rate average = 0.0198125
	minimum = 0.012 (at node 1)
	maximum = 0.027 (at node 2)
Accepted flit rate average= 0.0198125
	minimum = 0 (at node 0)
	maximum = 0.317 (at node 11)
Injected packet length average = 1
Accepted packet length average = 1
Total in-flight flits = 9 (0 measured)
latency change    = 0.0215831
throughput change = 0.00788644
Warmed up ...Time used is 3000 cycles
Class 0:
Packet latency average = 20.4366
	minimum = 7
	maximum = 35
Network latency average = 20.4366
	minimum = 7
	maximum = 35
Slowest packet = 5940
Flit latency average = 20.4729
	minimum = 7
	maximum = 35
Slowest flit = 5940
Fragmentation average = 0
	minimum = 0
	maximum = 0
Injected packet rate average = 0.017
	minimum = 0.012 (at node 10)
	maximum = 0.027 (at node 2)
Accepted packet rate average = 0.0173125
	minimum = 0 (at node 0)
	maximum = 0.277 (at node 11)
Injected flit rate average = 0.017
	minimum = 0.012 (at node 10)
	maximum = 0.027 (at node 2)
Accepted flit rate average= 0.0173125
	minimum = 0 (at node 0)
	maximum = 0.277 (at node 11)
Injected packet length average = 1
Accepted packet length average = 1
Total in-flight flits = 4 (4 measured)
latency change    = 0.0155298
throughput change = 0.144404
Class 0:
Packet latency average = 20.3277
	minimum = 7
	maximum = 37
Network latency average = 20.3277
	minimum = 7
	maximum = 37
Slowest packet = 6307
Flit latency average = 20.3462
	minimum = 7
	maximum = 37
Slowest flit = 6307
Fragmentation average = 0
	minimum = 0
	maximum = 0
Injected packet rate average = 0.0185312
	minimum = 0.014 (at node 15)
	maximum = 0.027 (at node 12)
Accepted packet rate average = 0.0186875
	minimum = 0 (at node 0)
	maximum = 0.299 (at node 11)
Injected flit rate average = 0.0185312
	minimum = 0.014 (at node 15)
	maximum = 0.027 (at node 12)
Accepted flit rate average= 0.0186875
	minimum = 0 (at node 0)
	maximum = 0.299 (at node 11)
Injected packet length average = 1
Accepted packet length average = 1
Total in-flight flits = 4 (4 measured)
latency change    = 0.00535689
throughput change = 0.0735786
Class 0:
Packet latency average = 20.4486
	minimum = 7
	maximum = 40
Network latency average = 20.4486
	minimum = 7
	maximum = 40
Slowest packet = 6483
Flit latency average = 20.4593
	minimum = 7
	maximum = 40
Slowest flit = 6483
Fragmentation average = 0
	minimum = 0
	maximum = 0
Injected packet rate average = 0.019375
	minimum = 0.016 (at node 15)
	maximum = 0.0243333 (at node 12)
Accepted packet rate average = 0.0194583
	minimum = 0 (at node 0)
	maximum = 0.311333 (at node 11)
Injected flit rate average = 0.019375
	minimum = 0.016 (at node 15)
	maximum = 0.0243333 (at node 12)
Accepted flit rate average= 0.0194583
	minimum = 0 (at node 0)
	maximum = 0.311333 (at node 11)
Injected packet length average = 1
Accepted packet length average = 1
Total in-flight flits = 5 (5 measured)
latency change    = 0.00591602
throughput change = 0.0396146
Class 0:
Packet latency average = 20.431
	minimum = 7
	maximum = 40
Network latency average = 20.431
	minimum = 7
	maximum = 40
Slowest packet = 6483
Flit latency average = 20.439
	minimum = 7
	maximum = 40
Slowest flit = 6483
Fragmentation average = 0
	minimum = 0
	maximum = 0
Injected packet rate average = 0.0196563
	minimum = 0.017 (at node 15)
	maximum = 0.02325 (at node 12)
Accepted packet rate average = 0.0196094
	minimum = 0 (at node 0)
	maximum = 0.31375 (at node 11)
Injected flit rate average = 0.0196563
	minimum = 0.017 (at node 15)
	maximum = 0.02325 (at node 12)
Accepted flit rate average= 0.0196094
	minimum = 0 (at node 0)
	maximum = 0.31375 (at node 11)
Injected packet length average = 1
Accepted packet length average = 1
Total in-flight flits = 12 (12 measured)
latency change    = 0.000864839
throughput change = 0.00770252
Class 0:
Packet latency average = 20.5269
	minimum = 7
	maximum = 40
Network latency average = 20.5269
	minimum = 7
	maximum = 40
Slowest packet = 6483
Flit latency average = 20.5328
	minimum = 7
	maximum = 40
Slowest flit = 6483
Fragmentation average = 0
	minimum = 0
	maximum = 0
Injected packet rate average = 0.0196375
	minimum = 0.017 (at node 15)
	maximum = 0.0234 (at node 13)
Accepted packet rate average = 0.0196375
	minimum = 0 (at node 0)
	maximum = 0.3142 (at node 11)
Injected flit rate average = 0.0196375
	minimum = 0.017 (at node 15)
	maximum = 0.0234 (at node 13)
Accepted flit rate average= 0.0196375
	minimum = 0 (at node 0)
	maximum = 0.3142 (at node 11)
Injected packet length average = 1
Accepted packet length average = 1
Total in-flight flits = 9 (9 measured)
latency change    = 0.00467238
throughput change = 0.00143221
Draining all recorded packets ...
Draining remaining packets ...
Time taken is 8054 cycles
Class 0:
Packet latency average = 20.4983
	minimum = 7
	maximum = 61
Network latency average = 20.4983
	minimum = 7
	maximum = 61
Slowest packet = 7634
Flit latency average = 20.4983
	minimum = 7
	maximum = 61
Slowest flit = 7634
Fragmentation average = 0
	minimum = 0
	maximum = 0
Injected packet rate average = 0.019375
	minimum = 0.014 (at node 0)
	maximum = 0.029 (at node 6)
Accepted packet rate average = 0.0188125
	minimum = 0 (at node 0)
	maximum = 0.301 (at node 11)
Injected flit rate average = 0.019375
	minimum = 0.014 (at node 0)
	maximum = 0.029 (at node 6)
Accepted flit rate average= 0.0188125
	minimum = 0 (at node 0)
	maximum = 0.301 (at node 11)
Injected packet length average = 1
Accepted packet length average = 1
Total in-flight flits = 9 (0 measured)
latency change    = 1
throughput change = 1
Class 0:
Packet latency average = 20.1677
	minimum = 7
	maximum = 61
Network latency average = 20.1677
	minimum = 7
	maximum = 61
Slowest packet = 7634
Flit latency average = 20.1677
	minimum = 7
	maximum = 61
Slowest flit = 7634
Fragmentation average = 0
	minimum = 0
	maximum = 0
Injected packet rate average = 0.0197188
	minimum = 0.0125 (at node 5)
	maximum = 0.026 (at node 6)
Accepted packet rate average = 0.0195625
	minimum = 0 (at node 0)
	maximum = 0.313 (at node 11)
Injected flit rate average = 0.0197188
	minimum = 0.0125 (at node 5)
	maximum = 0.026 (at node 6)
Accepted flit rate average= 0.0195625
	minimum = 0 (at node 0)
	maximum = 0.313 (at node 11)
Injected packet length average = 1
Accepted packet length average = 1
Total in-flight flits = 5 (0 measured)
latency change    = 0.0163929
throughput change = 0.0383387
Class 0:
Packet latency average = 20.6869
	minimum = 7
	maximum = 39
Network latency average = 20.6869
	minimum = 7
	maximum = 39
Slowest packet = 8291
Flit latency average = 20.6869
	minimum = 7
	maximum = 39
Slowest flit = 8291
Fragmentation average = 0
	minimum = 0
	maximum = 0
Injected packet rate average = 0.0194375
	minimum = 0.013 (at node 5)
	maximum = 0.026 (at node 3)
Accepted packet rate average = 0.0195625
	minimum = 0 (at node 0)
	maximum = 0.313 (at node 11)
Injected flit rate average = 0.0194375
	minimum = 0.013 (at node 5)
	maximum = 0.026 (at node 3)
Accepted flit rate average= 0.0195625
	minimum = 0 (at node 0)
	maximum = 0.313 (at node 11)
Injected packet length average = 1
Accepted packet length average = 1
Total in-flight flits = 3 (0 measured)
latency change    = 0.0250965
throughput change = 0
Warmed up ...Time used is 3000 cycles
Class 0:
Packet latency average = 20.3385
	minimum = 7
	maximum = 43
Network latency average = 20.3385
	minimum = 7
	maximum = 43
Slowest packet = 8561
Flit latency average = 20.3567
	minimum = 7
	maximum = 43
Slowest flit = 8561
Fragmentation average = 0
	minimum = 0
	maximum = 0
Injected packet rate average = 0.02075
	minimum = 0.01 (at node 9)
	maximum = 0.033 (at node 4)
Accepted packet rate average = 0.0205
	minimum = 0 (at node 0)
	maximum = 0.328 (at node 11)
Injected flit rate average = 0.02075
	minimum = 0.01 (at node 9)
	maximum = 0.033 (at node 4)
Accepted flit rate average= 0.0205
	minimum = 0 (at node 0)
	maximum = 0.328 (at node 11)
Injected packet length average = 1
Accepted packet length average = 1
Total in-flight flits = 7 (7 measured)
latency change    = 0.017132
throughput change = 0.0457317
Class 0:
Packet latency average = 20.6687
	minimum = 7
	maximum = 43
Network latency average = 20.6687
	minimum = 7
	maximum = 43
Slowest packet = 8561
Flit latency average = 20.6762
	minimum = 7
	maximum = 43
Slowest flit = 8561
Fragmentation average = 0
	minimum = 0
	maximum = 0
Injected packet rate average = 0.02075
	minimum = 0.0165 (at node 9)
	maximum = 0.025 (at node 4)
Accepted packet rate average = 0.0206563
	minimum = 0 (at node 0)
	maximum = 0.3305 (at node 11)
Injected flit rate average = 0.02075
	minimum = 0.0165 (at node 9)
	maximum = 0.025 (at node 4)
Accepted flit rate average= 0.0206563
	minimum = 0 (at node 0)
	maximum = 0.3305 (at node 11)
Injected packet length average = 1
Accepted packet length average = 1
Total in-flight flits = 6 (6 measured)
latency change    = 0.0159774
throughput change = 0.0075643
Class 0:
Packet latency average = 20.6287
	minimum = 7
	maximum = 43
Network latency average = 20.6287
	minimum = 7
	maximum = 43
Slowest packet = 8561
Flit latency average = 20.6339
	minimum = 7
	maximum = 43
Slowest flit = 8561
Fragmentation average = 0
	minimum = 0
	maximum = 0
Injected packet rate average = 0.0206042
	minimum = 0.0153333 (at node 9)
	maximum = 0.0246667 (at node 10)
Accepted packet rate average = 0.0205417
	minimum = 0 (at node 0)
	maximum = 0.328667 (at node 11)
Injected flit rate average = 0.0206042
	minimum = 0.0153333 (at node 9)
	maximum = 0.0246667 (at node 10)
Accepted flit rate average= 0.0205417
	minimum = 0 (at node 0)
	maximum = 0.328667 (at node 11)
Injected packet length average = 1
Accepted packet length average = 1
Total in-flight flits = 6 (6 measured)
latency change    = 0.00193931
throughput change = 0.00557809
Draining all recorded packets ...
Draining remaining packets ...
Time taken is 6055 cycles
Class 0:
Packet latency average = 20.2127
	minimum = 7
	maximum = 40
Network latency average = 20.2127
	minimum = 7
	maximum = 40
Slowest packet = 9460
Flit latency average = 20.2127
	minimum = 7
	maximum = 40
Slowest flit = 9460
Fragmentation average = 0
	minimum = 0
	maximum = 0
Injected packet rate average = 0.019875
	minimum = 0.014 (at node 10)
	maximum = 0.026 (at node 9)
Accepted packet rate average = 0.0196875
	minimum = 0 (at node 0)
	maximum = 0.315 (at node 11)
Injected flit rate average = 0.019875
	minimum = 0.014 (at node 10)
	maximum = 0.026 (at node 9)
Accepted flit rate average= 0.0196875
	minimum = 0 (at node 0)
	maximum = 0.315 (at node 11)
Injected packet length average = 1
Accepted packet length average = 1
Total in-flight flits = 3 (0 measured)
latency change    = 1
throughput change = 1
Class 0:
Packet latency average = 20.4583
	minimum = 7
	maximum = 40
Network latency average = 20.4583
	minimum = 7
	maximum = 40
Slowest packet = 9460
Flit latency average = 20.4583
	minimum = 7
	maximum = 40
Slowest flit = 9460
Fragmentation average = 0
	minimum = 0
	maximum = 0
Injected packet rate average = 0.0196875
	minimum = 0.0145 (at node 13)
	maximum = 0.0255 (at node 6)
Accepted packet rate average = 0.0195
	minimum = 0 (at node 0)
	maximum = 0.312 (at node 11)
Injected flit rate average = 0.0196875
	minimum = 0.0145 (at node 13)
	maximum = 0.0255 (at node 6)
Accepted flit rate average= 0.0195
	minimum = 0 (at node 0)
	maximum = 0.312 (at node 11)
Injected packet length average = 1
Accepted packet length average = 1
Total in-flight flits = 6 (0 measured)
latency change    = 0.0120066
throughput change = 0.00961538
Class 0:
Packet latency average = 20.3355
	minimum = 7
	maximum = 43
Network latency average = 20.3355
	minimum = 7
	maximum = 43
Slowest packet = 10229
Flit latency average = 20.3355
	minimum = 7
	maximum = 43
Slowest flit = 10229
Fragmentation average = 0
	minimum = 0
	maximum = 0
Injected packet rate average = 0.0191875
	minimum = 0.012 (at node 7)
	maximum = 0.029 (at node 4)
Accepted packet rate average = 0.019375
	minimum = 0 (at node 0)
	maximum = 0.31 (at node 11)
Injected flit rate average = 0.0191875
	minimum = 0.012 (at node 7)
	maximum = 0.029 (at node 4)
Accepted flit rate average= 0.019375
	minimum = 0 (at node 0)
	maximum = 0.31 (at node 11)
Injected packet length average = 1
Accepted packet length average = 1
Total in-flight flits = 3 (0 measured)
latency change    = 0.00604114
throughput change = 0.00645161
Warmed up ...Time used is 3000 cycles
Class 0:
Packet latency average = 19.9455
	minimum = 7
	maximum = 36
Network latency average = 19.9455
	minimum = 7
	maximum = 36
Slowest packet = 10328
Flit latency average = 19.994
	minimum = 7
	maximum = 36
Slowest flit = 10328
Fragmentation average = 0
	minimum = 0
	maximum = 0
Injected packet rate average = 0.0215625
	minimum = 0.014 (at node 12)
	maximum = 0.032 (at node 3)
Accepted packet rate average = 0.0208125
	minimum = 0 (at node 0)
	maximum = 0.333 (at node 11)
Injected flit rate average = 0.0215625
	minimum = 0.014 (at node 12)
	maximum = 0.032 (at node 3)
Accepted flit rate average= 0.0208125
	minimum = 0 (at node 0)
	maximum = 0.333 (at node 11)
Injected packet length average = 1
Accepted packet length average = 1
Total in-flight flits = 15 (15 measured)
latency change    = 0.0195548
throughput change = 0.0690691
Class 0:
Packet latency average = 19.8326
	minimum = 7
	maximum = 39
Network latency average = 19.8326
	minimum = 7
	maximum = 39
Slowest packet = 10589
Flit latency average = 19.858
	minimum = 7
	maximum = 39
Slowest flit = 10589
Fragmentation average = 0
	minimum = 0
	maximum = 0
Injected packet rate average = 0.0204375
	minimum = 0.0135 (at node 12)
	maximum = 0.026 (at node 2)
Accepted packet rate average = 0.02025
	minimum = 0 (at node 0)
	maximum = 0.324 (at node 11)
Injected flit rate average = 0.0204375
	minimum = 0.0135 (at node 12)
	maximum = 0.026 (at node 2)
Accepted flit rate average= 0.02025
	minimum = 0 (at node 0)
	maximum = 0.324 (at node 11)
Injected packet length average = 1
Accepted packet length average = 1
Total in-flight flits = 9 (9 measured)
latency change    = 0.00569248
throughput change = 0.0277778
Class 0:
Packet latency average = 20.1529
	minimum = 7
	maximum = 56
Network latency average = 20.1529
	minimum = 7
	maximum = 56
Slowest packet = 11106
Flit latency average = 20.1691
	minimum = 7
	maximum = 56
Slowest flit = 11106
Fragmentation average = 0
	minimum = 0
	maximum = 0
Injected packet rate average = 0.02
	minimum = 0.0146667 (at node 4)
	maximum = 0.0236667 (at node 2)
Accepted packet rate average = 0.0199583
	minimum = 0 (at node 0)
	maximum = 0.319333 (at node 11)
Injected flit rate average = 0.02
	minimum = 0.0146667 (at node 4)
	maximum = 0.0236667 (at node 2)
Accepted flit rate average= 0.0199583
	minimum = 0 (at node 0)
	maximum = 0.319333 (at node 11)
Injected packet length average = 1
Accepted packet length average = 1
Total in-flight flits = 5 (5 measured)
latency change    = 0.0158946
throughput change = 0.0146138
Class 0:
Packet latency average = 20.0467
	minimum = 7
	maximum = 56
Network latency average = 20.0467
	minimum = 7
	maximum = 56
Slowest packet = 11106
Flit latency average = 20.0592
	minimum = 7
	maximum = 56
Slowest flit = 11106
Fragmentation average = 0
	minimum = 0
	maximum = 0
Injected packet rate average = 0.0198594
	minimum = 0.01625 (at node 12)
	maximum = 0.02325 (at node 7)
Accepted packet rate average = 0.0197969
	minimum = 0 (at node 0)
	maximum = 0.31675 (at node 11)
Injected flit rate average = 0.0198594
	minimum = 0.01625 (at node 12)
	maximum = 0.02325 (at node 7)
Accepted flit rate average= 0.0197969
	minimum = 0 (at node 0)
	maximum = 0.31675 (at node 11)
Injected packet length average = 1
Accepted packet length average = 1
Total in-flight flits = 7 (7 measured)
latency change    = 0.00529775
throughput change = 0.00815575
Draining all recorded packets ...
Draining remaining packets ...
Time taken is 7050 cycles
Class 0:
Packet latency average = 19.9293
	minimum = 7
	maximum = 36
Network latency average = 19.9293
	minimum = 7
	maximum = 36
Slowest packet = 11793
Flit latency average = 19.9293
	minimum = 7
	maximum = 36
Slowest flit = 11793
Fragmentation average = 0
	minimum = 0
	maximum = 0
Injected packet rate average = 0.0191875
	minimum = 0.011 (at node 6)
	maximum = 0.029 (at node 5)
Accepted packet rate average = 0.0185625
	minimum = 0 (at node 0)
	maximum = 0.297 (at node 11)
Injected flit rate average = 0.0191875
	minimum = 0.011 (at node 6)
	maximum = 0.029 (at node 5)
Accepted flit rate average= 0.0185625
	minimum = 0 (at node 0)
	maximum = 0.297 (at node 11)
Injected packet length average = 1
Accepted packet length average = 1
Total in-flight flits = 10 (0 measured)
latency change    = 1
throughput change = 1
Class 0:
Packet latency average = 20.2942
	minimum = 7
	maximum = 40
Network latency average = 20.2942
	minimum = 7
	maximum = 40
Slowest packet = 11897
Flit latency average = 20.2942
	minimum = 7
	maximum = 40
Slowest flit = 11897
Fragmentation average = 0
	minimum = 0
	maximum = 0
Injected packet rate average = 0.0195625
	minimum = 0.013 (at node 6)
	maximum = 0.0245 (at node 7)
Accepted packet rate average = 0.0194375
	minimum = 0 (at node 0)
	maximum = 0.311 (at node 11)
Injected flit rate average = 0.0195625
	minimum = 0.013 (at node 6)
	maximum = 0.0245 (at node 7)
Accepted flit rate average= 0.0194375
	minimum = 0 (at node 0)
	maximum = 0.311 (at node 11)
Injected packet length average = 1
Accepted packet length average = 1
Total in-flight flits = 4 (0 measured)
latency change    = 0.0179814
throughput change = 0.0450161
Class 0:
Packet latency average = 20.4205
	minimum = 7
	maximum = 38
Network latency average = 20.4205
	minimum = 7
	maximum = 38
Slowest packet = 12306
Flit latency average = 20.4205
	minimum = 7
	maximum = 38
Slowest flit = 12306
Fragmentation average = 0
	minimum = 0
	maximum = 0
Injected packet rate average = 0.017875
	minimum = 0.012 (at node 10)
	maximum = 0.027 (at node 3)
Accepted packet rate average = 0.0176875
	minimum = 0 (at node 0)
	maximum = 0.283 (at node 11)
Injected flit rate average = 0.017875
	minimum = 0.012 (at node 10)
	maximum = 0.027 (at node 3)
Accepted flit rate average= 0.0176875
	minimum = 0 (at node 0)
	maximum = 0.283 (at node 11)
Injected packet length average = 1
Accepted packet length average = 1
Total in-flight flits = 7 (0 measured)
latency change    = 0.0061841
throughput change = 0.0989399
Warmed up ...Time used is 3000 cycles
Class 0:
Packet latency average = 20.013
	minimum = 7
	maximum = 37
Network latency average = 20.013
	minimum = 7
	maximum = 37
Slowest packet = 12632
Flit latency average = 20.1079
	minimum = 7
	maximum = 37
Slowest flit = 12632
Fragmentation average = 0
	minimum = 0
	maximum = 0
Injected packet rate average = 0.019875
	minimum = 0.012 (at node 13)
	maximum = 0.026 (at node 11)
Accepted packet rate average = 0.0196875
	minimum = 0 (at node 0)
	maximum = 0.315 (at node 11)
Injected flit rate average = 0.019875
	minimum = 0.012 (at node 13)
	maximum = 0.026 (at node 11)
Accepted flit rate average= 0.0196875
	minimum = 0 (at node 0)
	maximum = 0.315 (at node 11)
Injected packet length average = 1
Accepted packet length average = 1
Total in-flight flits = 10 (10 measured)
latency change    = 0.0203622
throughput change = 0.101587
Class 0:
Packet latency average = 20.2625
	minimum = 7
	maximum = 44
Network latency average = 20.2625
	minimum = 7
	maximum = 44
Slowest packet = 12990
Flit latency average = 20.3073
	minimum = 7
	maximum = 44
Slowest flit = 12990
Fragmentation average = 0
	minimum = 0
	maximum = 0
Injected packet rate average = 0.0195312
	minimum = 0.0155 (at node 14)
	maximum = 0.025 (at node 1)
Accepted packet rate average = 0.019625
	minimum = 0 (at node 0)
	maximum = 0.314 (at node 11)
Injected flit rate average = 0.0195312
	minimum = 0.0155 (at node 14)
	maximum = 0.025 (at node 1)
Accepted flit rate average= 0.019625
	minimum = 0 (at node 0)
	maximum = 0.314 (at node 11)
Injected packet length average = 1
Accepted packet length average = 1
Total in-flight flits = 4 (4 measured)
latency change    = 0.012313
throughput change = 0.00318471
Class 0:
Packet latency average = 20.1166
	minimum = 7
	maximum = 44
Network latency average = 20.1166
	minimum = 7
	maximum = 44
Slowest packet = 12990
Flit latency average = 20.147
	minimum = 7
	maximum = 44
Slowest flit = 12990
Fragmentation average = 0
	minimum = 0
	maximum = 0
Injected packet rate average = 0.0199167
	minimum = 0.017 (at node 2)
	maximum = 0.0233333 (at node 8)
Accepted packet rate average = 0.0199792
	minimum = 0 (at node 0)
	maximum = 0.319667 (at node 11)
Injected flit rate average = 0.0199167
	minimum = 0.017 (at node 2)
	maximum = 0.0233333 (at node 8)
Accepted flit rate average= 0.0199792
	minimum = 0 (at node 0)
	maximum = 0.319667 (at node 11)
Injected packet length average = 1
Accepted packet length average = 1
Total in-flight flits = 4 (4 measured)
latency change    = 0.00725188
throughput change = 0.0177268
Class 0:
Packet latency average = 20.222
	minimum = 7
	maximum = 45
Network latency average = 20.222
	minimum = 7
	maximum = 45
Slowest packet = 13506
Flit latency average = 20.2453
	minimum = 7
	maximum = 45
Slowest flit = 13506
Fragmentation average = 0
	minimum = 0
	maximum = 0
Injected packet rate average = 0.0190625
	minimum = 0.01675 (at node 13)
	maximum = 0.0215 (at node 6)
Accepted packet rate average = 0.0191094
	minimum = 0 (at node 0)
	maximum = 0.30575 (at node 11)
Injected flit rate average = 0.0190625
	minimum = 0.01675 (at node 13)
	maximum = 0.0215 (at node 6)
Accepted flit rate average= 0.0191094
	minimum = 0 (at node 0)
	maximum = 0.30575 (at node 11)
Injected packet length average = 1
Accepted packet length average = 1
Total in-flight flits = 4 (4 measured)
latency change    = 0.00521425
throughput change = 0.0455165
Draining all recorded packets ...
Draining remaining packets ...
Time taken is 7053 cycles
Class 0:
Packet latency average = 20.9543
	minimum = 7
	maximum = 41
Network latency average = 20.9543
	minimum = 7
	maximum = 41
Slowest packet = 13717
Flit latency average = 20.9543
	minimum = 7
	maximum = 41
Slowest flit = 13717
Fragmentation average = 0
	minimum = 0
	maximum = 0
Injected packet rate average = 0.02075
	minimum = 0.013 (at node 9)
	maximum = 0.034 (at node 5)
Accepted packet rate average = 0.0205
	minimum = 0 (at node 0)
	maximum = 0.328 (at node 11)
Injected flit rate average = 0.02075
	minimum = 0.013 (at node 9)
	maximum = 0.034 (at node 5)
Accepted flit rate average= 0.0205
	minimum = 0 (at node 0)
	maximum = 0.328 (at node 11)
Injected packet length average = 1
Accepted packet length average = 1
Total in-flight flits = 4 (0 measured)
latency change    = 1
throughput change = 1
Class 0:
Packet latency average = 20.8775
	minimum = 7
	maximum = 49
Network latency average = 20.8775
	minimum = 7
	maximum = 49
Slowest packet = 14238
Flit latency average = 20.8775
	minimum = 7
	maximum = 49
Slowest flit = 14238
Fragmentation average = 0
	minimum = 0
	maximum = 0
Injected packet rate average = 0.0204688
	minimum = 0.0155 (at node 6)
	maximum = 0.0265 (at node 10)
Accepted packet rate average = 0.0201563
	minimum = 0 (at node 0)
	maximum = 0.3225 (at node 11)
Injected flit rate average = 0.0204688
	minimum = 0.0155 (at node 6)
	maximum = 0.0265 (at node 10)
Accepted flit rate average= 0.0201563
	minimum = 0 (at node 0)
	maximum = 0.3225 (at node 11)
Injected packet length average = 1
Accepted packet length average = 1
Total in-flight flits = 10 (0 measured)
latency change    = 0.00367615
throughput change = 0.0170543
Class 0:
Packet latency average = 20.7484
	minimum = 7
	maximum = 40
Network latency average = 20.7484
	minimum = 7
	maximum = 40
Slowest packet = 14456
Flit latency average = 20.7484
	minimum = 7
	maximum = 40
Slowest flit = 14456
Fragmentation average = 0
	minimum = 0
	maximum = 0
Injected packet rate average = 0.019375
	minimum = 0.014 (at node 5)
	maximum = 0.027 (at node 1)
Accepted packet rate average = 0.019375
	minimum = 0 (at node 0)
	maximum = 0.31 (at node 11)
Injected flit rate average = 0.019375
	minimum = 0.014 (at node 5)
	maximum = 0.027 (at node 1)
Accepted flit rate average= 0.019375
	minimum = 0 (at node 0)
	maximum = 0.31 (at node 11)
Injected packet length average = 1
Accepted packet length average = 1
Total in-flight flits = 10 (0 measured)
latency change    = 0.00622373
throughput change = 0.0403226
Warmed up ...Time used is 3000 cycles
Class 0:
Packet latency average = 20.4971
	minimum = 7
	maximum = 39
Network latency average = 20.4971
	minimum = 7
	maximum = 39
Slowest packet = 14717
Flit latency average = 20.6771
	minimum = 7
	maximum = 39
Slowest flit = 14717
Fragmentation average = 0
	minimum = 0
	maximum = 0
Injected packet rate average = 0.02175
	minimum = 0.014 (at node 2)
	maximum = 0.03 (at node 4)
Accepted packet rate average = 0.021875
	minimum = 0 (at node 0)
	maximum = 0.35 (at node 11)
Injected flit rate average = 0.02175
	minimum = 0.014 (at node 2)
	maximum = 0.03 (at node 4)
Accepted flit rate average= 0.021875
	minimum = 0 (at node 0)
	maximum = 0.35 (at node 11)
Injected packet length average = 1
Accepted packet length average = 1
Total in-flight flits = 8 (8 measured)
latency change    = 0.0122617
throughput change = 0.114286
Class 0:
Packet latency average = 21.0702
	minimum = 7
	maximum = 54
Network latency average = 21.0702
	minimum = 7
	maximum = 54
Slowest packet = 15086
Flit latency average = 21.1527
	minimum = 7
	maximum = 54
Slowest flit = 15086
Fragmentation average = 0
	minimum = 0
	maximum = 0
Injected packet rate average = 0.0215625
	minimum = 0.0155 (at node 2)
	maximum = 0.0265 (at node 4)
Accepted packet rate average = 0.0216875
	minimum = 0 (at node 0)
	maximum = 0.347 (at node 11)
Injected flit rate average = 0.0215625
	minimum = 0.0155 (at node 2)
	maximum = 0.0265 (at node 4)
Accepted flit rate average= 0.0216875
	minimum = 0 (at node 0)
	maximum = 0.347 (at node 11)
Injected packet length average = 1
Accepted packet length average = 1
Total in-flight flits = 6 (6 measured)
latency change    = 0.0272004
throughput change = 0.00864553
Class 0:
Packet latency average = 21.1102
	minimum = 7
	maximum = 56
Network latency average = 21.1102
	minimum = 7
	maximum = 56
Slowest packet = 15625
Flit latency average = 21.1657
	minimum = 7
	maximum = 56
Slowest flit = 15625
Fragmentation average = 0
	minimum = 0
	maximum = 0
Injected packet rate average = 0.0213125
	minimum = 0.0176667 (at node 5)
	maximum = 0.0253333 (at node 6)
Accepted packet rate average = 0.021375
	minimum = 0 (at node 0)
	maximum = 0.342 (at node 11)
Injected flit rate average = 0.0213125
	minimum = 0.0176667 (at node 5)
	maximum = 0.0253333 (at node 6)
Accepted flit rate average= 0.021375
	minimum = 0 (at node 0)
	maximum = 0.342 (at node 11)
Injected packet length average = 1
Accepted packet length average = 1
Total in-flight flits = 7 (7 measured)
latency change    = 0.00189769
throughput change = 0.0146199
Class 0:
Packet latency average = 21.2111
	minimum = 7
	maximum = 56
Network latency average = 21.2111
	minimum = 7
	maximum = 56
Slowest packet = 15625
Flit latency average = 21.2526
	minimum = 7
	maximum = 56
Slowest flit = 15625
Fragmentation average = 0
	minimum = 0
	maximum = 0
Injected packet rate average = 0.0209688
	minimum = 0.01725 (at node 12)
	maximum = 0.0245 (at node 6)
Accepted packet rate average = 0.0210313
	minimum = 0 (at node 0)
	maximum = 0.3365 (at node 11)
Injected flit rate average = 0.0209688
	minimum = 0.01725 (at node 12)
	maximum = 0.0245 (at node 6)
Accepted flit rate average= 0.0210313
	minimum = 0 (at node 0)
	maximum = 0.3365 (at node 11)
Injected packet length average = 1
Accepted packet length average = 1
Total in-flight flits = 6 (6 measured)
latency change    = 0.0047542
throughput change = 0.0163447
Draining all recorded packets ...
Draining remaining packets ...
Time taken is 7048 cycles
Class 0:
Packet latency average = 20.1396
	minimum = 7
	maximum = 40
Network latency average = 20.1396
	minimum = 7
	maximum = 40
Slowest packet = 16048
Flit latency average = 20.1396
	minimum = 7
	maximum = 40
Slowest flit = 16048
Fragmentation average = 0
	minimum = 0
	maximum = 0
Injected packet rate average = 0.019625
	minimum = 0.012 (at node 8)
	maximum = 0.025 (at node 10)
Accepted packet rate average = 0.01925
	minimum = 0 (at node 0)
	maximum = 0.308 (at node 11)
Injected flit rate average = 0.019625
	minimum = 0.012 (at node 8)
	maximum = 0.025 (at node 10)
Accepted flit rate average= 0.01925
	minimum = 0 (at node 0)
	maximum = 0.308 (at node 11)
Injected packet length average = 1
Accepted packet length average = 1
Total in-flight flits = 6 (0 measured)
latency change    = 1
throughput change = 1
Class 0:
Packet latency average = 20.224
	minimum = 7
	maximum = 42
Network latency average = 20.224
	minimum = 7
	maximum = 42
Slowest packet = 16574
Flit latency average = 20.224
	minimum = 7
	maximum = 42
Slowest flit = 16574
Fragmentation average = 0
	minimum = 0
	maximum = 0
Injected packet rate average = 0.020375
	minimum = 0.014 (at node 8)
	maximum = 0.026 (at node 2)
Accepted packet rate average = 0.0200938
	minimum = 0 (at node 0)
	maximum = 0.3215 (at node 11)
Injected flit rate average = 0.020375
	minimum = 0.014 (at node 8)
	maximum = 0.026 (at node 2)
Accepted flit rate average= 0.0200938
	minimum = 0 (at node 0)
	maximum = 0.3215 (at node 11)
Injected packet length average = 1
Accepted packet length average = 1
Total in-flight flits = 9 (0 measured)
latency change    = 0.0041703
throughput change = 0.0419907
Class 0:
Packet latency average = 21.679
	minimum = 7
	maximum = 44
Network latency average = 21.679
	minimum = 7
	maximum = 44
Slowest packet = 16732
Flit latency average = 21.679
	minimum = 7
	maximum = 44
Slowest flit = 16732
Fragmentation average = 0
	minimum = 0
	maximum = 0
Injected packet rate average = 0.0199375
	minimum = 0.011 (at node 11)
	maximum = 0.034 (at node 12)
Accepted packet rate average = 0.02025
	minimum = 0 (at node 0)
	maximum = 0.324 (at node 11)
Injected flit rate average = 0.0199375
	minimum = 0.011 (at node 11)
	maximum = 0.034 (at node 12)
Accepted flit rate average= 0.02025
	minimum = 0 (at node 0)
	maximum = 0.324 (at node 11)
Injected packet length average = 1
Accepted packet length average = 1
Total in-flight flits = 4 (0 measured)
latency change    = 0.0671185
throughput change = 0.00771605
Warmed up ...Time used is 3000 cycles
Class 0:
Packet latency average = 20.2745
	minimum = 7
	maximum = 42
Network latency average = 20.2745
	minimum = 7
	maximum = 42
Slowest packet = 17244
Flit latency average = 20.329
	minimum = 7
	maximum = 42
Slowest flit = 17244
Fragmentation average = 0
	minimum = 0
	maximum = 0
Injected packet rate average = 0.0195
	minimum = 0.012 (at node 4)
	maximum = 0.034 (at node 2)
Accepted packet rate average = 0.019375
	minimum = 0 (at node 0)
	maximum = 0.31 (at node 11)
Injected flit rate average = 0.0195
	minimum = 0.012 (at node 4)
	maximum = 0.034 (at node 2)
Accepted flit rate average= 0.019375
	minimum = 0 (at node 0)
	maximum = 0.31 (at node 11)
Injected packet length average = 1
Accepted packet length average = 1
Total in-flight flits = 6 (6 measured)
latency change    = 0.0692743
throughput change = 0.0451613
Class 0:
Packet latency average = 20.5613
	minimum = 7
	maximum = 42
Network latency average = 20.5613
	minimum = 7
	maximum = 42
Slowest packet = 17244
Flit latency average = 20.5865
	minimum = 7
	maximum = 42
Slowest flit = 17244
Fragmentation average = 0
	minimum = 0
	maximum = 0
Injected packet rate average = 0.01975
	minimum = 0.0145 (at node 10)
	maximum = 0.028 (at node 2)
Accepted packet rate average = 0.0195
	minimum = 0 (at node 0)
	maximum = 0.312 (at node 11)
Injected flit rate average = 0.01975
	minimum = 0.0145 (at node 10)
	maximum = 0.028 (at node 2)
Accepted flit rate average= 0.0195
	minimum = 0 (at node 0)
	maximum = 0.312 (at node 11)
Injected packet length average = 1
Accepted packet length average = 1
Total in-flight flits = 12 (12 measured)
latency change    = 0.0139476
throughput change = 0.00641026
Class 0:
Packet latency average = 20.9627
	minimum = 7
	maximum = 60
Network latency average = 20.9627
	minimum = 7
	maximum = 60
Slowest packet = 17651
Flit latency average = 20.9777
	minimum = 7
	maximum = 60
Slowest flit = 17651
Fragmentation average = 0
	minimum = 0
	maximum = 0
Injected packet rate average = 0.0197708
	minimum = 0.0153333 (at node 10)
	maximum = 0.0233333 (at node 1)
Accepted packet rate average = 0.0196458
	minimum = 0 (at node 0)
	maximum = 0.314333 (at node 11)
Injected flit rate average = 0.0197708
	minimum = 0.0153333 (at node 10)
	maximum = 0.0233333 (at node 1)
Accepted flit rate average= 0.0196458
	minimum = 0 (at node 0)
	maximum = 0.314333 (at node 11)
Injected packet length average = 1
Accepted packet length average = 1
Total in-flight flits = 10 (10 measured)
latency change    = 0.01915
throughput change = 0.00742312
Class 0:
Packet latency average = 21.0394
	minimum = 7
	maximum = 60
Network latency average = 21.0394
	minimum = 7
	maximum = 60
Slowest packet = 17651
Flit latency average = 21.0501
	minimum = 7
	maximum = 60
Slowest flit = 17651
Fragmentation average = 0
	minimum = 0
	maximum = 0
Injected packet rate average = 0.0202656
	minimum = 0.017 (at node 7)
	maximum = 0.02375 (at node 1)
Accepted packet rate average = 0.0202656
	minimum = 0 (at node 0)
	maximum = 0.32425 (at node 11)
Injected flit rate average = 0.0202656
	minimum = 0.017 (at node 7)
	maximum = 0.02375 (at node 1)
Accepted flit rate average= 0.0202656
	minimum = 0 (at node 0)
	maximum = 0.32425 (at node 11)
Injected packet length average = 1
Accepted packet length average = 1
Total in-flight flits = 4 (4 measured)
latency change    = 0.00364633
throughput change = 0.0305834
Draining all recorded packets ...
Draining remaining packets ...
Time taken is 7047 cycles
Class 0:
Packet latency average = 19.9527
	minimum = 7
	maximum = 44
Network latency average = 19.9527
	minimum = 7
	maximum = 44
Slowest packet = 18356
Flit latency average = 19.9527
	minimum = 7
	maximum = 44
Slowest flit = 18356
Fragmentation average = 0
	minimum = 0
	maximum = 0
Injected packet rate average = 0.020125
	minimum = 0.014 (at node 7)
	maximum = 0.026 (at node 10)
Accepted packet rate average = 0.0198125
	minimum = 0 (at node 0)
	maximum = 0.317 (at node 11)
Injected flit rate average = 0.020125
	minimum = 0.014 (at node 7)
	maximum = 0.026 (at node 10)
Accepted flit rate average= 0.0198125
	minimum = 0 (at node 0)
	maximum = 0.317 (at node 11)
Injected packet length average = 1
Accepted packet length average = 1
Total in-flight flits = 5 (0 measured)
latency change    = 1
throughput change = 1
Class 0:
Packet latency average = 20.9855
	minimum = 7
	maximum = 49
Network latency average = 20.9855
	minimum = 7
	maximum = 49
Slowest packet = 18761
Flit latency average = 20.9855
	minimum = 7
	maximum = 49
Slowest flit = 18761
Fragmentation average = 0
	minimum = 0
	maximum = 0
Injected packet rate average = 0.0218125
	minimum = 0.016 (at node 5)
	maximum = 0.027 (at node 4)
Accepted packet rate average = 0.0215312
	minimum = 0 (at node 0)
	maximum = 0.3445 (at node 11)
Injected flit rate average = 0.0218125
	minimum = 0.016 (at node 5)
	maximum = 0.027 (at node 4)
Accepted flit rate average= 0.0215312
	minimum = 0 (at node 0)
	maximum = 0.3445 (at node 11)
Injected packet length average = 1
Accepted packet length average = 1
Total in-flight flits = 9 (0 measured)
latency change    = 0.0492152
throughput change = 0.0798258
Class 0:
Packet latency average = 20.5761
	minimum = 7
	maximum = 42
Network latency average = 20.5761
	minimum = 7
	maximum = 42
Slowest packet = 19230
Flit latency average = 20.5761
	minimum = 7
	maximum = 42
Slowest flit = 19230
Fragmentation average = 0
	minimum = 0
	maximum = 0
Injected packet rate average = 0.02075
	minimum = 0.014 (at node 4)
	maximum = 0.026 (at node 8)
Accepted packet rate average = 0.0209375
	minimum = 0 (at node 0)
	maximum = 0.335 (at node 11)
Injected flit rate average = 0.02075
	minimum = 0.014 (at node 4)
	maximum = 0.026 (at node 8)
Accepted flit rate average= 0.0209375
	minimum = 0 (at node 0)
	maximum = 0.335 (at node 11)
Injected packet length average = 1
Accepted packet length average = 1
Total in-flight flits = 6 (0 measured)
latency change    = 0.0198952
throughput change = 0.0283582
Warmed up ...Time used is 3000 cycles
Class 0:
Packet latency average = 20.3508
	minimum = 7
	maximum = 36
Network latency average = 20.3508
	minimum = 7
	maximum = 36
Slowest packet = 19373
Flit latency average = 20.3987
	minimum = 7
	maximum = 36
Slowest flit = 19373
Fragmentation average = 0
	minimum = 0
	maximum = 0
Injected packet rate average = 0.0194375
	minimum = 0.013 (at node 2)
	maximum = 0.029 (at node 13)
Accepted packet rate average = 0.0194375
	minimum = 0 (at node 0)
	maximum = 0.311 (at node 11)
Injected flit rate average = 0.0194375
	minimum = 0.013 (at node 2)
	maximum = 0.029 (at node 13)
Accepted flit rate average= 0.0194375
	minimum = 0 (at node 0)
	maximum = 0.311 (at node 11)
Injected packet length average = 1
Accepted packet length average = 1
Total in-flight flits = 6 (6 measured)
latency change    = 0.0110708
throughput change = 0.0771704
Class 0:
Packet latency average = 20.2387
	minimum = 7
	maximum = 41
Network latency average = 20.2387
	minimum = 7
	maximum = 41
Slowest packet = 19614
Flit latency average = 20.2646
	minimum = 7
	maximum = 41
Slowest flit = 19614
Fragmentation average = 0
	minimum = 0
	maximum = 0
Injected packet rate average = 0.0189062
	minimum = 0.015 (at node 12)
	maximum = 0.028 (at node 13)
Accepted packet rate average = 0.0187812
	minimum = 0 (at node 0)
	maximum = 0.3005 (at node 11)
Injected flit rate average = 0.0189062
	minimum = 0.015 (at node 12)
	maximum = 0.028 (at node 13)
Accepted flit rate average= 0.0187812
	minimum = 0 (at node 0)
	maximum = 0.3005 (at node 11)
Injected packet length average = 1
Accepted packet length average = 1
Total in-flight flits = 10 (10 measured)
latency change    = 0.00554208
throughput change = 0.0349418
Class 0:
Packet latency average = 20.3201
	minimum = 7
	maximum = 41
Network latency average = 20.3201
	minimum = 7
	maximum = 41
Slowest packet = 19614
Flit latency average = 20.3366
	minimum = 7
	maximum = 41
Slowest flit = 19614
Fragmentation average = 0
	minimum = 0
	maximum = 0
Injected packet rate average = 0.0189583
	minimum = 0.0156667 (at node 12)
	maximum = 0.024 (at node 13)
Accepted packet rate average = 0.019
	minimum = 0 (at node 0)
	maximum = 0.304 (at node 11)
Injected flit rate average = 0.0189583
	minimum = 0.0156667 (at node 12)
	maximum = 0.024 (at node 13)
Accepted flit rate average= 0.019
	minimum = 0 (at node 0)
	maximum = 0.304 (at node 11)
Injected packet length average = 1
Accepted packet length average = 1
Total in-flight flits = 4 (4 measured)
latency change    = 0.0040075
throughput change = 0.0115132
Class 0:
Packet latency average = 20.1842
	minimum = 7
	maximum = 41
Network latency average = 20.1842
	minimum = 7
	maximum = 41
Slowest packet = 19614
Flit latency average = 20.1971
	minimum = 7
	maximum = 41
Slowest flit = 19614
Fragmentation average = 0
	minimum = 0
	maximum = 0
Injected packet rate average = 0.0192344
	minimum = 0.01475 (at node 12)
	maximum = 0.02325 (at node 13)
Accepted packet rate average = 0.0192656
	minimum = 0 (at node 0)
	maximum = 0.30825 (at node 11)
Injected flit rate average = 0.0192344
	minimum = 0.01475 (at node 12)
	maximum = 0.02325 (at node 13)
Accepted flit rate average= 0.0192656
	minimum = 0 (at node 0)
	maximum = 0.30825 (at node 11)
Injected packet length average = 1
Accepted packet length average = 1
Total in-flight flits = 4 (4 measured)
latency change    = 0.00673295
throughput change = 0.0137875
Draining all recorded packets ...
Draining remaining packets ...
Time taken is 7050 cycles
Class 0:
Packet latency average = 19.4078
	minimum = 7
	maximum = 39
Network latency average = 19.4078
	minimum = 7
	maximum = 39
Slowest packet = 20624
Flit latency average = 19.4078
	minimum = 7
	maximum = 39
Slowest flit = 20624
Fragmentation average = 0
	minimum = 0
	maximum = 0
Injected packet rate average = 0.018375
	minimum = 0.008 (at node 3)
	maximum = 0.033 (at node 11)
Accepted packet rate average = 0.017625
	minimum = 0 (at node 0)
	maximum = 0.282 (at node 11)
Injected flit rate average = 0.018375
	minimum = 0.008 (at node 3)
	maximum = 0.033 (at node 11)
Accepted flit rate average= 0.017625
	minimum = 0 (at node 0)
	maximum = 0.282 (at node 11)
Injected packet length average = 1
Accepted packet length average = 1
Total in-flight flits = 12 (0 measured)
latency change    = 1
throughput change = 1
Class 0:
Packet latency average = 20.2351
	minimum = 7
	maximum = 46
Network latency average = 20.2351
	minimum = 7
	maximum = 46
Slowest packet = 20840
Flit latency average = 20.2351
	minimum = 7
	maximum = 46
Slowest flit = 20840
Fragmentation average = 0
	minimum = 0
	maximum = 0
Injected packet rate average = 0.0185312
	minimum = 0.012 (at node 13)
	maximum = 0.0255 (at node 8)
Accepted packet rate average = 0.0183437
	minimum = 0 (at node 0)
	maximum = 0.2935 (at node 11)
Injected flit rate average = 0.0185312
	minimum = 0.012 (at node 13)
	maximum = 0.0255 (at node 8)
Accepted flit rate average= 0.0183437
	minimum = 0 (at node 0)
	maximum = 0.2935 (at node 11)
Injected packet length average = 1
Accepted packet length average = 1
Total in-flight flits = 6 (0 measured)
latency change    = 0.040884
throughput change = 0.0391823
Class 0:
Packet latency average = 21.395
	minimum = 7
	maximum = 42
Network latency average = 21.395
	minimum = 7
	maximum = 42
Slowest packet = 21228
Flit latency average = 21.395
	minimum = 7
	maximum = 42
Slowest flit = 21228
Fragmentation average = 0
	minimum = 0
	maximum = 0
Injected packet rate average = 0.0231875
	minimum = 0.017 (at node 8)
	maximum = 0.031 (at node 4)
Accepted packet rate average = 0.022625
	minimum = 0 (at node 0)
	maximum = 0.362 (at node 11)
Injected flit rate average = 0.0231875
	minimum = 0.017 (at node 8)
	maximum = 0.031 (at node 4)
Accepted flit rate average= 0.022625
	minimum = 0 (at node 0)
	maximum = 0.362 (at node 11)
Injected packet length average = 1
Accepted packet length average = 1
Total in-flight flits = 15 (0 measured)
latency change    = 0.0542151
throughput change = 0.189227
Warmed up ...Time used is 3000 cycles
Class 0:
Packet latency average = 20.5915
	minimum = 7
	maximum = 46
Network latency average = 20.5915
	minimum = 7
	maximum = 46
Slowest packet = 21492
Flit latency average = 20.81
	minimum = 7
	maximum = 46
Slowest flit = 21492
Fragmentation average = 0
	minimum = 0
	maximum = 0
Injected packet rate average = 0.019125
	minimum = 0.014 (at node 3)
	maximum = 0.025 (at node 6)
Accepted packet rate average = 0.0200625
	minimum = 0 (at node 0)
	maximum = 0.321 (at node 11)
Injected flit rate average = 0.019125
	minimum = 0.014 (at node 3)
	maximum = 0.025 (at node 6)
Accepted flit rate average= 0.0200625
	minimum = 0 (at node 0)
	maximum = 0.321 (at node 11)
Injected packet length average = 1
Accepted packet length average = 1
Total in-flight flits = 0 (0 measured)
latency change    = 0.0390221
throughput change = 0.127726
Class 0:
Packet latency average = 20.7305
	minimum = 7
	maximum = 46
Network latency average = 20.7305
	minimum = 7
	maximum = 46
Slowest packet = 21492
Flit latency average = 20.8384
	minimum = 7
	maximum = 46
Slowest flit = 21492
Fragmentation average = 0
	minimum = 0
	maximum = 0
Injected packet rate average = 0.0196875
	minimum = 0.014 (at node 3)
	maximum = 0.0245 (at node 0)
Accepted packet rate average = 0.0197188
	minimum = 0 (at node 0)
	maximum = 0.3155 (at node 11)
Injected flit rate average = 0.0196875
	minimum = 0.014 (at node 3)
	maximum = 0.0245 (at node 0)
Accepted flit rate average= 0.0197188
	minimum = 0 (at node 0)
	maximum = 0.3155 (at node 11)
Injected packet length average = 1
Accepted packet length average = 1
Total in-flight flits = 14 (14 measured)
latency change    = 0.00670587
throughput change = 0.0174326
Class 0:
Packet latency average = 20.8864
	minimum = 7
	maximum = 48
Network latency average = 20.8864
	minimum = 7
	maximum = 48
Slowest packet = 22295
Flit latency average = 20.9563
	minimum = 7
	maximum = 48
Slowest flit = 22295
Fragmentation average = 0
	minimum = 0
	maximum = 0
Injected packet rate average = 0.0194167
	minimum = 0.0146667 (at node 3)
	maximum = 0.023 (at node 0)
Accepted packet rate average = 0.0195625
	minimum = 0 (at node 0)
	maximum = 0.313 (at node 11)
Injected flit rate average = 0.0194167
	minimum = 0.0146667 (at node 3)
	maximum = 0.023 (at node 0)
Accepted flit rate average= 0.0195625
	minimum = 0 (at node 0)
	maximum = 0.313 (at node 11)
Injected packet length average = 1
Accepted packet length average = 1
Total in-flight flits = 8 (8 measured)
latency change    = 0.00746153
throughput change = 0.00798722
Class 0:
Packet latency average = 20.897
	minimum = 7
	maximum = 48
Network latency average = 20.897
	minimum = 7
	maximum = 48
Slowest packet = 22295
Flit latency average = 20.9487
	minimum = 7
	maximum = 48
Slowest flit = 22295
Fragmentation average = 0
	minimum = 0
	maximum = 0
Injected packet rate average = 0.0196406
	minimum = 0.01625 (at node 3)
	maximum = 0.024 (at node 0)
Accepted packet rate average = 0.0197969
	minimum = 0 (at node 0)
	maximum = 0.31675 (at node 11)
Injected flit rate average = 0.0196406
	minimum = 0.01625 (at node 3)
	maximum = 0.024 (at node 0)
Accepted flit rate average= 0.0197969
	minimum = 0 (at node 0)
	maximum = 0.31675 (at node 11)
Injected packet length average = 1
Accepted packet length average = 1
Total in-flight flits = 5 (5 measured)
latency change    = 0.000507309
throughput change = 0.011839
Draining all recorded packets ...
Draining remaining packets ...
Time taken is 7028 cycles
Class 0:
Packet latency average = 20.3594
	minimum = 7
	maximum = 42
Network latency average = 20.3594
	minimum = 7
	maximum = 42
Slowest packet = 22885
Flit latency average = 20.3594
	minimum = 7
	maximum = 42
Slowest flit = 22885
Fragmentation average = 0
	minimum = 0
	maximum = 0
Injected packet rate average = 0.0180625
	minimum = 0.005 (at node 3)
	maximum = 0.024 (at node 6)
Accepted packet rate average = 0.0175625
	minimum = 0 (at node 0)
	maximum = 0.281 (at node 11)
Injected flit rate average = 0.0180625
	minimum = 0.005 (at node 3)
	maximum = 0.024 (at node 6)
Accepted flit rate average= 0.0175625
	minimum = 0 (at node 0)
	maximum = 0.281 (at node 11)
Injected packet length average = 1
Accepted packet length average = 1
Total in-flight flits = 8 (0 measured)
latency change    = 1
throughput change = 1
Class 0:
Packet latency average = 20.3887
	minimum = 7
	maximum = 46
Network latency average = 20.3887
	minimum = 7
	maximum = 46
Slowest packet = 23287
Flit latency average = 20.3887
	minimum = 7
	maximum = 46
Slowest flit = 23287
Fragmentation average = 0
	minimum = 0
	maximum = 0
Injected packet rate average = 0.0190312
	minimum = 0.013 (at node 3)
	maximum = 0.0225 (at node 8)
Accepted packet rate average = 0.0188125
	minimum = 0 (at node 0)
	maximum = 0.301 (at node 11)
Injected flit rate average = 0.0190312
	minimum = 0.013 (at node 3)
	maximum = 0.0225 (at node 8)
Accepted flit rate average= 0.0188125
	minimum = 0 (at node 0)
	maximum = 0.301 (at node 11)
Injected packet length average = 1
Accepted packet length average = 1
Total in-flight flits = 7 (0 measured)
latency change    = 0.00143578
throughput change = 0.0664452
Class 0:
Packet latency average = 20.7333
	minimum = 7
	maximum = 40
Network latency average = 20.7333
	minimum = 7
	maximum = 40
Slowest packet = 23607
Flit latency average = 20.7333
	minimum = 7
	maximum = 40
Slowest flit = 23607
Fragmentation average = 0
	minimum = 0
	maximum = 0
Injected packet rate average = 0.019625
	minimum = 0.012 (at node 5)
	maximum = 0.025 (at node 0)
Accepted packet rate average = 0.0196875
	minimum = 0 (at node 0)
	maximum = 0.315 (at node 11)
Injected flit rate average = 0.019625
	minimum = 0.012 (at node 5)
	maximum = 0.025 (at node 0)
Accepted flit rate average= 0.0196875
	minimum = 0 (at node 0)
	maximum = 0.315 (at node 11)
Injected packet length average = 1
Accepted packet length average = 1
Total in-flight flits = 6 (0 measured)
latency change    = 0.016622
throughput change = 0.0444444
Warmed up ...Time used is 3000 cycles
Class 0:
Packet latency average = 20.3588
	minimum = 7
	maximum = 40
Network latency average = 20.3588
	minimum = 7
	maximum = 40
Slowest packet = 23871
Flit latency average = 20.3355
	minimum = 7
	maximum = 40
Slowest flit = 23871
Fragmentation average = 0
	minimum = 0
	maximum = 0
Injected packet rate average = 0.0190625
	minimum = 0.011 (at node 14)
	maximum = 0.026 (at node 0)
Accepted packet rate average = 0.0191875
	minimum = 0 (at node 0)
	maximum = 0.307 (at node 11)
Injected flit rate average = 0.0190625
	minimum = 0.011 (at node 14)
	maximum = 0.026 (at node 0)
Accepted flit rate average= 0.0191875
	minimum = 0 (at node 0)
	maximum = 0.307 (at node 11)
Injected packet length average = 1
Accepted packet length average = 1
Total in-flight flits = 4 (4 measured)
latency change    = 0.0183964
throughput change = 0.0260586
Class 0:
Packet latency average = 20.6751
	minimum = 7
	maximum = 40
Network latency average = 20.6751
	minimum = 7
	maximum = 40
Slowest packet = 23871
Flit latency average = 20.6609
	minimum = 7
	maximum = 40
Slowest flit = 23871
Fragmentation average = 0
	minimum = 0
	maximum = 0
Injected packet rate average = 0.0199375
	minimum = 0.015 (at node 15)
	maximum = 0.0245 (at node 0)
Accepted packet rate average = 0.02
	minimum = 0 (at node 0)
	maximum = 0.32 (at node 11)
Injected flit rate average = 0.0199375
	minimum = 0.015 (at node 15)
	maximum = 0.0245 (at node 0)
Accepted flit rate average= 0.02
	minimum = 0 (at node 0)
	maximum = 0.32 (at node 11)
Injected packet length average = 1
Accepted packet length average = 1
Total in-flight flits = 4 (4 measured)
latency change    = 0.0152974
throughput change = 0.040625
Class 0:
Packet latency average = 20.6547
	minimum = 7
	maximum = 40
Network latency average = 20.6547
	minimum = 7
	maximum = 40
Slowest packet = 23871
Flit latency average = 20.6453
	minimum = 7
	maximum = 40
Slowest flit = 23871
Fragmentation average = 0
	minimum = 0
	maximum = 0
Injected packet rate average = 0.019875
	minimum = 0.017 (at node 15)
	maximum = 0.0226667 (at node 10)
Accepted packet rate average = 0.0198542
	minimum = 0 (at node 0)
	maximum = 0.317667 (at node 11)
Injected flit rate average = 0.019875
	minimum = 0.017 (at node 15)
	maximum = 0.0226667 (at node 10)
Accepted flit rate average= 0.0198542
	minimum = 0 (at node 0)
	maximum = 0.317667 (at node 11)
Injected packet length average = 1
Accepted packet length average = 1
Total in-flight flits = 7 (7 measured)
latency change    = 0.000986691
throughput change = 0.00734523
Draining all recorded packets ...
Draining remaining packets ...
Time taken is 6051 cycles
Class 0:
Packet latency average = 20.3551
	minimum = 7
	maximum = 41
Network latency average = 20.3551
	minimum = 7
	maximum = 41
Slowest packet = 24916
Flit latency average = 20.3551
	minimum = 7
	maximum = 41
Slowest flit = 24916
Fragmentation average = 0
	minimum = 0
	maximum = 0
Injected packet rate average = 0.0206875
	minimum = 0.013 (at node 8)
	maximum = 0.028 (at node 4)
Accepted packet rate average = 0.0200625
	minimum = 0 (at node 0)
	maximum = 0.321 (at node 11)
Injected flit rate average = 0.0206875
	minimum = 0.013 (at node 8)
	maximum = 0.028 (at node 4)
Accepted flit rate average= 0.0200625
	minimum = 0 (at node 0)
	maximum = 0.321 (at node 11)
Injected packet length average = 1
Accepted packet length average = 1
Total in-flight flits = 10 (0 measured)
latency change    = 1
throughput change = 1
Class 0:
Packet latency average = 20.8412
	minimum = 7
	maximum = 41
Network latency average = 20.8412
	minimum = 7
	maximum = 41
Slowest packet = 24916
Flit latency average = 20.8412
	minimum = 7
	maximum = 41
Slowest flit = 24916
Fragmentation average = 0
	minimum = 0
	maximum = 0
Injected packet rate average = 0.02
	minimum = 0.0135 (at node 3)
	maximum = 0.0245 (at node 1)
Accepted packet rate average = 0.019875
	minimum = 0 (at node 0)
	maximum = 0.318 (at node 11)
Injected flit rate average = 0.02
	minimum = 0.0135 (at node 3)
	maximum = 0.0245 (at node 1)
Accepted flit rate average= 0.019875
	minimum = 0 (at node 0)
	maximum = 0.318 (at node 11)
Injected packet length average = 1
Accepted packet length average = 1
Total in-flight flits = 4 (0 measured)
latency change    = 0.0233218
throughput change = 0.00943396
Class 0:
Packet latency average = 21.0538
	minimum = 7
	maximum = 41
Network latency average = 21.0538
	minimum = 7
	maximum = 41
Slowest packet = 25350
Flit latency average = 21.0538
	minimum = 7
	maximum = 41
Slowest flit = 25350
Fragmentation average = 0
	minimum = 0
	maximum = 0
Injected packet rate average = 0.02
	minimum = 0.013 (at node 6)
	maximum = 0.029 (at node 3)
Accepted packet rate average = 0.01975
	minimum = 0 (at node 0)
	maximum = 0.316 (at node 11)
Injected flit rate average = 0.02
	minimum = 0.013 (at node 6)
	maximum = 0.029 (at node 3)
Accepted flit rate average= 0.01975
	minimum = 0 (at node 0)
	maximum = 0.316 (at node 11)
Injected packet length average = 1
Accepted packet length average = 1
Total in-flight flits = 8 (0 measured)
latency change    = 0.0100981
throughput change = 0.00632911
Warmed up ...Time used is 3000 cycles
Class 0:
Packet latency average = 20.1617
	minimum = 7
	maximum = 39
Network latency average = 20.1617
	minimum = 7
	maximum = 39
Slowest packet = 25865
Flit latency average = 20.3099
	minimum = 7
	maximum = 39
Slowest flit = 25865
Fragmentation average = 0
	minimum = 0
	maximum = 0
Injected packet rate average = 0.021
	minimum = 0.013 (at node 6)
	maximum = 0.031 (at node 11)
Accepted packet rate average = 0.021375
	minimum = 0 (at node 0)
	maximum = 0.342 (at node 11)
Injected flit rate average = 0.021
	minimum = 0.013 (at node 6)
	maximum = 0.031 (at node 11)
Accepted flit rate average= 0.021375
	minimum = 0 (at node 0)
	maximum = 0.342 (at node 11)
Injected packet length average = 1
Accepted packet length average = 1
Total in-flight flits = 2 (2 measured)
latency change    = 0.0442483
throughput change = 0.0760234
Class 0:
Packet latency average = 20.5739
	minimum = 7
	maximum = 39
Network latency average = 20.5739
	minimum = 7
	maximum = 39
Slowest packet = 25865
Flit latency average = 20.6475
	minimum = 7
	maximum = 39
Slowest flit = 25865
Fragmentation average = 0
	minimum = 0
	maximum = 0
Injected packet rate average = 0.0201875
	minimum = 0.015 (at node 6)
	maximum = 0.027 (at node 1)
Accepted packet rate average = 0.020125
	minimum = 0 (at node 0)
	maximum = 0.322 (at node 11)
Injected flit rate average = 0.0201875
	minimum = 0.015 (at node 6)
	maximum = 0.027 (at node 1)
Accepted flit rate average= 0.020125
	minimum = 0 (at node 0)
	maximum = 0.322 (at node 11)
Injected packet length average = 1
Accepted packet length average = 1
Total in-flight flits = 10 (10 measured)
latency change    = 0.0200362
throughput change = 0.0621118
Class 0:
Packet latency average = 20.6099
	minimum = 7
	maximum = 45
Network latency average = 20.6099
	minimum = 7
	maximum = 45
Slowest packet = 26341
Flit latency average = 20.6578
	minimum = 7
	maximum = 45
Slowest flit = 26341
Fragmentation average = 0
	minimum = 0
	maximum = 0
Injected packet rate average = 0.0204167
	minimum = 0.017 (at node 3)
	maximum = 0.027 (at node 1)
Accepted packet rate average = 0.0204583
	minimum = 0 (at node 0)
	maximum = 0.327333 (at node 11)
Injected flit rate average = 0.0204167
	minimum = 0.017 (at node 3)
	maximum = 0.027 (at node 1)
Accepted flit rate average= 0.0204583
	minimum = 0 (at node 0)
	maximum = 0.327333 (at node 11)
Injected packet length average = 1
Accepted packet length average = 1
Total in-flight flits = 6 (6 measured)
latency change    = 0.00174465
throughput change = 0.0162933
Class 0:
Packet latency average = 20.4909
	minimum = 7
	maximum = 45
Network latency average = 20.4909
	minimum = 7
	maximum = 45
Slowest packet = 26341
Flit latency average = 20.5286
	minimum = 7
	maximum = 45
Slowest flit = 26341
Fragmentation average = 0
	minimum = 0
	maximum = 0
Injected packet rate average = 0.0198438
	minimum = 0.0165 (at node 6)
	maximum = 0.02525 (at node 1)
Accepted packet rate average = 0.0199219
	minimum = 0 (at node 0)
	maximum = 0.31875 (at node 11)
Injected flit rate average = 0.0198438
	minimum = 0.0165 (at node 6)
	maximum = 0.02525 (at node 1)
Accepted flit rate average= 0.0199219
	minimum = 0 (at node 0)
	maximum = 0.31875 (at node 11)
Injected packet length average = 1
Accepted packet length average = 1
Total in-flight flits = 3 (3 measured)
latency change    = 0.00580417
throughput change = 0.0269281
Class 0:
Packet latency average = 20.4984
	minimum = 7
	maximum = 45
Network latency average = 20.4984
	minimum = 7
	maximum = 45
Slowest packet = 26341
Flit latency average = 20.5288
	minimum = 7
	maximum = 45
Slowest flit = 26341
Fragmentation average = 0
	minimum = 0
	maximum = 0
Injected packet rate average = 0.01975
	minimum = 0.0158 (at node 3)
	maximum = 0.025 (at node 1)
Accepted packet rate average = 0.0197625
	minimum = 0 (at node 0)
	maximum = 0.3162 (at node 11)
Injected flit rate average = 0.01975
	minimum = 0.0158 (at node 3)
	maximum = 0.025 (at node 1)
Accepted flit rate average= 0.0197625
	minimum = 0 (at node 0)
	maximum = 0.3162 (at node 11)
Injected packet length average = 1
Accepted packet length average = 1
Total in-flight flits = 7 (7 measured)
latency change    = 0.000365259
throughput change = 0.00806452
Draining all recorded packets ...
Draining remaining packets ...
Time taken is 8046 cycles
Class 0:
Packet latency average = 21.4373
	minimum = 7
	maximum = 46
Network latency average = 21.4373
	minimum = 7
	maximum = 46
Slowest packet = 27332
Flit latency average = 21.4373
	minimum = 7
	maximum = 46
Slowest flit = 27332
Fragmentation average = 0
	minimum = 0
	maximum = 0
Injected packet rate average = 0.0219375
	minimum = 0.015 (at node 6)
	maximum = 0.033 (at node 9)
Accepted packet rate average = 0.0214375
	minimum = 0 (at node 0)
	maximum = 0.343 (at node 11)
Injected flit rate average = 0.0219375
	minimum = 0.015 (at node 6)
	maximum = 0.033 (at node 9)
Accepted flit rate average= 0.0214375
	minimum = 0 (at node 0)
	maximum = 0.343 (at node 11)
Injected packet length average = 1
Accepted packet length average = 1
Total in-flight flits = 8 (0 measured)
latency change    = 1
throughput change = 1
Class 0:
Packet latency average = 20.9445
	minimum = 7
	maximum = 46
Network latency average = 20.9445
	minimum = 7
	maximum = 46
Slowest packet = 27332
Flit latency average = 20.9445
	minimum = 7
	maximum = 46
Slowest flit = 27332
Fragmentation average = 0
	minimum = 0
	maximum = 0
Injected packet rate average = 0.0209688
	minimum = 0.0165 (at node 6)
	maximum = 0.0275 (at node 1)
Accepted packet rate average = 0.0208438
	minimum = 0 (at node 0)
	maximum = 0.3335 (at node 11)
Injected flit rate average = 0.0209688
	minimum = 0.0165 (at node 6)
	maximum = 0.0275 (at node 1)
Accepted flit rate average= 0.0208438
	minimum = 0 (at node 0)
	maximum = 0.3335 (at node 11)
Injected packet length average = 1
Accepted packet length average = 1
Total in-flight flits = 4 (0 measured)
latency change    = 0.0235283
throughput change = 0.0284858
Class 0:
Packet latency average = 20.9101
	minimum = 7
	maximum = 51
Network latency average = 20.9101
	minimum = 7
	maximum = 51
Slowest packet = 27897
Flit latency average = 20.9101
	minimum = 7
	maximum = 51
Slowest flit = 27897
Fragmentation average = 0
	minimum = 0
	maximum = 0
Injected packet rate average = 0.021875
	minimum = 0.013 (at node 0)
	maximum = 0.028 (at node 12)
Accepted packet rate average = 0.0215625
	minimum = 0 (at node 0)
	maximum = 0.345 (at node 11)
Injected flit rate average = 0.021875
	minimum = 0.013 (at node 0)
	maximum = 0.028 (at node 12)
Accepted flit rate average= 0.0215625
	minimum = 0 (at node 0)
	maximum = 0.345 (at node 11)
Injected packet length average = 1
Accepted packet length average = 1
Total in-flight flits = 9 (0 measured)
latency change    = 0.00164431
throughput change = 0.0333333
Warmed up ...Time used is 3000 cycles
Class 0:
Packet latency average = 20.5246
	minimum = 7
	maximum = 34
Network latency average = 20.5246
	minimum = 7
	maximum = 34
Slowest packet = 28250
Flit latency average = 20.5973
	minimum = 7
	maximum = 34
Slowest flit = 28188
Fragmentation average = 0
	minimum = 0
	maximum = 0
Injected packet rate average = 0.0179375
	minimum = 0.012 (at node 6)
	maximum = 0.028 (at node 13)
Accepted packet rate average = 0.0183125
	minimum = 0 (at node 0)
	maximum = 0.293 (at node 11)
Injected flit rate average = 0.0179375
	minimum = 0.012 (at node 6)
	maximum = 0.028 (at node 13)
Accepted flit rate average= 0.0183125
	minimum = 0 (at node 0)
	maximum = 0.293 (at node 11)
Injected packet length average = 1
Accepted packet length average = 1
Total in-flight flits = 3 (3 measured)
latency change    = 0.0187822
throughput change = 0.177474
Class 0:
Packet latency average = 20.7638
	minimum = 7
	maximum = 37
Network latency average = 20.7638
	minimum = 7
	maximum = 37
Slowest packet = 28681
Flit latency average = 20.7954
	minimum = 7
	maximum = 37
Slowest flit = 28681
Fragmentation average = 0
	minimum = 0
	maximum = 0
Injected packet rate average = 0.0188125
	minimum = 0.0145 (at node 6)
	maximum = 0.029 (at node 13)
Accepted packet rate average = 0.0189375
	minimum = 0 (at node 0)
	maximum = 0.303 (at node 11)
Injected flit rate average = 0.0188125
	minimum = 0.0145 (at node 6)
	maximum = 0.029 (at node 13)
Accepted flit rate average= 0.0189375
	minimum = 0 (at node 0)
	maximum = 0.303 (at node 11)
Injected packet length average = 1
Accepted packet length average = 1
Total in-flight flits = 5 (5 measured)
latency change    = 0.0115187
throughput change = 0.0330033
Class 0:
Packet latency average = 20.7444
	minimum = 7
	maximum = 48
Network latency average = 20.7444
	minimum = 7
	maximum = 48
Slowest packet = 29086
Flit latency average = 20.7648
	minimum = 7
	maximum = 48
Slowest flit = 29086
Fragmentation average = 0
	minimum = 0
	maximum = 0
Injected packet rate average = 0.019625
	minimum = 0.0163333 (at node 7)
	maximum = 0.0266667 (at node 13)
Accepted packet rate average = 0.0196667
	minimum = 0 (at node 0)
	maximum = 0.314667 (at node 11)
Injected flit rate average = 0.019625
	minimum = 0.0163333 (at node 7)
	maximum = 0.0266667 (at node 13)
Accepted flit rate average= 0.0196667
	minimum = 0 (at node 0)
	maximum = 0.314667 (at node 11)
Injected packet length average = 1
Accepted packet length average = 1
Total in-flight flits = 7 (7 measured)
latency change    = 0.000936835
throughput change = 0.0370763
Class 0:
Packet latency average = 20.8744
	minimum = 7
	maximum = 49
Network latency average = 20.8744
	minimum = 7
	maximum = 49
Slowest packet = 29316
Flit latency average = 20.8887
	minimum = 7
	maximum = 49
Slowest flit = 29316
Fragmentation average = 0
	minimum = 0
	maximum = 0
Injected packet rate average = 0.0197188
	minimum = 0.016 (at node 14)
	maximum = 0.02375 (at node 13)
Accepted packet rate average = 0.0197969
	minimum = 0 (at node 0)
	maximum = 0.31675 (at node 11)
Injected flit rate average = 0.0197188
	minimum = 0.016 (at node 14)
	maximum = 0.02375 (at node 13)
Accepted flit rate average= 0.0197969
	minimum = 0 (at node 0)
	maximum = 0.31675 (at node 11)
Injected packet length average = 1
Accepted packet length average = 1
Total in-flight flits = 4 (4 measured)
latency change    = 0.00622862
throughput change = 0.00657722
Draining all recorded packets ...
Draining remaining packets ...
Time taken is 7043 cycles
Class 0:
Packet latency average = 20.7111
	minimum = 7
	maximum = 39
Network latency average = 20.7111
	minimum = 7
	maximum = 39
Slowest packet = 29463
Flit latency average = 20.7111
	minimum = 7
	maximum = 39
Slowest flit = 29463
Fragmentation average = 0
	minimum = 0
	maximum = 0
Injected packet rate average = 0.020125
	minimum = 0.014 (at node 1)
	maximum = 0.027 (at node 0)
Accepted packet rate average = 0.0196875
	minimum = 0 (at node 0)
	maximum = 0.315 (at node 11)
Injected flit rate average = 0.020125
	minimum = 0.014 (at node 1)
	maximum = 0.027 (at node 0)
Accepted flit rate average= 0.0196875
	minimum = 0 (at node 0)
[...]
	minimum = 7
	maximum = 41
Network latency average = 20.8101
	minimum = 7
	maximum = 41
Slowest packet = 220115
Flit latency average = 20.8101
	minimum = 7
	maximum = 41
Slowest flit = 220115
Fragmentation average = 0
	minimum = 0
	maximum = 0
Injected packet rate average = 0.0215625
	minimum = 0.015 (at node 3)
	maximum = 0.029 (at node 6)
Accepted packet rate average = 0.0210625
	minimum = 0 (at node 0)
	maximum = 0.337 (at node 11)
Injected flit rate average = 0.0215625
	minimum = 0.015 (at node 3)
	maximum = 0.029 (at node 6)
Accepted flit rate average= 0.0210625
	minimum = 0 (at node 0)
	maximum = 0.337 (at node 11)
Injected packet length average = 1
Accepted packet length average = 1
Total in-flight flits = 13 (0 measured)
latency change    = 0.044258
throughput change = 0.117211
Warmed up ...Time used is 3000 cycles
Class 0:
Packet latency average = 20.546
	minimum = 7
	maximum = 40
Network latency average = 20.546
	minimum = 7
	maximum = 40
Slowest packet = 220565
Flit latency average = 20.8112
	minimum = 7
	maximum = 40
Slowest flit = 220565
Fragmentation average = 0
	minimum = 0
	maximum = 0
Injected packet rate average = 0.02075
	minimum = 0.014 (at node 8)
	maximum = 0.026 (at node 1)
Accepted packet rate average = 0.0211875
	minimum = 0 (at node 0)
	maximum = 0.339 (at node 11)
Injected flit rate average = 0.02075
	minimum = 0.014 (at node 8)
	maximum = 0.026 (at node 1)
Accepted flit rate average= 0.0211875
	minimum = 0 (at node 0)
	maximum = 0.339 (at node 11)
Injected packet length average = 1
Accepted packet length average = 1
Total in-flight flits = 6 (6 measured)
latency change    = 0.0128529
throughput change = 0.00589971
Class 0:
Packet latency average = 20.5984
	minimum = 7
	maximum = 40
Network latency average = 20.5984
	minimum = 7
	maximum = 40
Slowest packet = 220565
Flit latency average = 20.7382
	minimum = 7
	maximum = 40
Slowest flit = 220565
Fragmentation average = 0
	minimum = 0
	maximum = 0
Injected packet rate average = 0.0196875
	minimum = 0.014 (at node 15)
	maximum = 0.0255 (at node 0)
Accepted packet rate average = 0.0199375
	minimum = 0 (at node 0)
	maximum = 0.319 (at node 11)
Injected flit rate average = 0.0196875
	minimum = 0.014 (at node 15)
	maximum = 0.0255 (at node 0)
Accepted flit rate average= 0.0199375
	minimum = 0 (at node 0)
	maximum = 0.319 (at node 11)
Injected packet length average = 1
Accepted packet length average = 1
Total in-flight flits = 5 (5 measured)
latency change    = 0.00254329
throughput change = 0.0626959
Class 0:
Packet latency average = 20.6327
	minimum = 7
	maximum = 44
Network latency average = 20.6327
	minimum = 7
	maximum = 44
Slowest packet = 221166
Flit latency average = 20.7238
	minimum = 7
	maximum = 44
Slowest flit = 221166
Fragmentation average = 0
	minimum = 0
	maximum = 0
Injected packet rate average = 0.0202083
	minimum = 0.0163333 (at node 15)
	maximum = 0.0226667 (at node 10)
Accepted packet rate average = 0.0202917
	minimum = 0 (at node 0)
	maximum = 0.324667 (at node 11)
Injected flit rate average = 0.0202083
	minimum = 0.0163333 (at node 15)
	maximum = 0.0226667 (at node 10)
Accepted flit rate average= 0.0202917
	minimum = 0 (at node 0)
	maximum = 0.324667 (at node 11)
Injected packet length average = 1
Accepted packet length average = 1
Total in-flight flits = 9 (9 measured)
latency change    = 0.00166117
throughput change = 0.0174538
Class 0:
Packet latency average = 20.4078
	minimum = 7
	maximum = 44
Network latency average = 20.4078
	minimum = 7
	maximum = 44
Slowest packet = 221166
Flit latency average = 20.4796
	minimum = 7
	maximum = 44
Slowest flit = 221166
Fragmentation average = 0
	minimum = 0
	maximum = 0
Injected packet rate average = 0.0198438
	minimum = 0.0165 (at node 3)
	maximum = 0.023 (at node 6)
Accepted packet rate average = 0.0199375
	minimum = 0 (at node 0)
	maximum = 0.319 (at node 11)
Injected flit rate average = 0.0198438
	minimum = 0.0165 (at node 3)
	maximum = 0.023 (at node 6)
Accepted flit rate average= 0.0199375
	minimum = 0 (at node 0)
	maximum = 0.319 (at node 11)
Injected packet length average = 1
Accepted packet length average = 1
Total in-flight flits = 7 (7 measured)
latency change    = 0.0110211
throughput change = 0.0177638
Class 0:
Packet latency average = 20.4447
	minimum = 7
	maximum = 44
Network latency average = 20.4447
	minimum = 7
	maximum = 44
Slowest packet = 221166
Flit latency average = 20.5035
	minimum = 7
	maximum = 44
Slowest flit = 221166
Fragmentation average = 0
	minimum = 0
	maximum = 0
Injected packet rate average = 0.0193
	minimum = 0.016 (at node 3)
	maximum = 0.0232 (at node 6)
Accepted packet rate average = 0.0193875
	minimum = 0 (at node 0)
	maximum = 0.3102 (at node 11)
Injected flit rate average = 0.0193
	minimum = 0.016 (at node 3)
	maximum = 0.0232 (at node 6)
Accepted flit rate average= 0.0193875
	minimum = 0 (at node 0)
	maximum = 0.3102 (at node 11)
Injected packet length average = 1
Accepted packet length average = 1
Total in-flight flits = 6 (6 measured)
latency change    = 0.00180849
throughput change = 0.0283688
Draining all recorded packets ...
Draining remaining packets ...
Time taken is 8054 cycles
Class 0:
Packet latency average = 20.5089
	minimum = 7
	maximum = 44
Network latency average = 20.5089
	minimum = 7
	maximum = 44
Slowest packet = 222049
Flit latency average = 20.5089
	minimum = 7
	maximum = 44
Slowest flit = 222049
Fragmentation average = 0
	minimum = 0
	maximum = 0
Injected packet rate average = 0.0215
	minimum = 0.012 (at node 12)
	maximum = 0.032 (at node 4)
Accepted packet rate average = 0.021
	minimum = 0 (at node 0)
	maximum = 0.336 (at node 11)
Injected flit rate average = 0.0215
	minimum = 0.012 (at node 12)
	maximum = 0.032 (at node 4)
Accepted flit rate average= 0.021
	minimum = 0 (at node 0)
	maximum = 0.336 (at node 11)
Injected packet length average = 1
Accepted packet length average = 1
Total in-flight flits = 8 (0 measured)
latency change    = 1
throughput change = 1
Class 0:
Packet latency average = 20.6865
	minimum = 7
	maximum = 44
Network latency average = 20.6865
	minimum = 7
	maximum = 44
Slowest packet = 222049
Flit latency average = 20.6865
	minimum = 7
	maximum = 44
Slowest flit = 222049
Fragmentation average = 0
	minimum = 0
	maximum = 0
Injected packet rate average = 0.0205313
	minimum = 0.0165 (at node 12)
	maximum = 0.028 (at node 13)
Accepted packet rate average = 0.0204375
	minimum = 0 (at node 0)
	maximum = 0.327 (at node 11)
Injected flit rate average = 0.0205313
	minimum = 0.0165 (at node 12)
	maximum = 0.028 (at node 13)
Accepted flit rate average= 0.0204375
	minimum = 0 (at node 0)
	maximum = 0.327 (at node 11)
Injected packet length average = 1
Accepted packet length average = 1
Total in-flight flits = 3 (0 measured)
latency change    = 0.00858605
throughput change = 0.0275229
Class 0:
Packet latency average = 20.7006
	minimum = 7
	maximum = 40
Network latency average = 20.7006
	minimum = 7
	maximum = 40
Slowest packet = 222623
Flit latency average = 20.7006
	minimum = 7
	maximum = 40
Slowest flit = 222623
Fragmentation average = 0
	minimum = 0
	maximum = 0
Injected packet rate average = 0.02025
	minimum = 0.012 (at node 6)
	maximum = 0.028 (at node 5)
Accepted packet rate average = 0.02025
	minimum = 0 (at node 0)
	maximum = 0.324 (at node 11)
Injected flit rate average = 0.02025
	minimum = 0.012 (at node 6)
	maximum = 0.028 (at node 5)
Accepted flit rate average= 0.02025
	minimum = 0 (at node 0)
	maximum = 0.324 (at node 11)
Injected packet length average = 1
Accepted packet length average = 1
Total in-flight flits = 3 (0 measured)
latency change    = 0.000679832
throughput change = 0.00925926
Warmed up ...Time used is 3000 cycles
Class 0:
Packet latency average = 20.4411
	minimum = 7
	maximum = 37
Network latency average = 20.4411
	minimum = 7
	maximum = 37
Slowest packet = 222933
Flit latency average = 20.44
	minimum = 7
	maximum = 37
Slowest flit = 222933
Fragmentation average = 0
	minimum = 0
	maximum = 0
Injected packet rate average = 0.0188125
	minimum = 0.013 (at node 10)
	maximum = 0.025 (at node 2)
Accepted packet rate average = 0.01875
	minimum = 0 (at node 0)
	maximum = 0.3 (at node 11)
Injected flit rate average = 0.0188125
	minimum = 0.013 (at node 10)
	maximum = 0.025 (at node 2)
Accepted flit rate average= 0.01875
	minimum = 0 (at node 0)
	maximum = 0.3 (at node 11)
Injected packet length average = 1
Accepted packet length average = 1
Total in-flight flits = 4 (4 measured)
latency change    = 0.012697
throughput change = 0.08
Class 0:
Packet latency average = 20.5593
	minimum = 7
	maximum = 37
Network latency average = 20.5593
	minimum = 7
	maximum = 37
Slowest packet = 222933
Flit latency average = 20.5583
	minimum = 7
	maximum = 37
Slowest flit = 222933
Fragmentation average = 0
	minimum = 0
	maximum = 0
Injected packet rate average = 0.0195312
	minimum = 0.014 (at node 3)
	maximum = 0.0235 (at node 2)
Accepted packet rate average = 0.0193125
	minimum = 0 (at node 0)
	maximum = 0.309 (at node 11)
Injected flit rate average = 0.0195312
	minimum = 0.014 (at node 3)
	maximum = 0.0235 (at node 2)
Accepted flit rate average= 0.0193125
	minimum = 0 (at node 0)
	maximum = 0.309 (at node 11)
Injected packet length average = 1
Accepted packet length average = 1
Total in-flight flits = 10 (10 measured)
latency change    = 0.00575272
throughput change = 0.0291262
Class 0:
Packet latency average = 20.7353
	minimum = 7
	maximum = 42
Network latency average = 20.7353
	minimum = 7
	maximum = 42
Slowest packet = 223689
Flit latency average = 20.734
	minimum = 7
	maximum = 42
Slowest flit = 223689
Fragmentation average = 0
	minimum = 0
	maximum = 0
Injected packet rate average = 0.0196042
	minimum = 0.0156667 (at node 3)
	maximum = 0.0246667 (at node 2)
Accepted packet rate average = 0.0195
	minimum = 0 (at node 0)
	maximum = 0.312 (at node 11)
Injected flit rate average = 0.0196042
	minimum = 0.0156667 (at node 3)
	maximum = 0.0246667 (at node 2)
Accepted flit rate average= 0.0195
	minimum = 0 (at node 0)
	maximum = 0.312 (at node 11)
Injected packet length average = 1
Accepted packet length average = 1
Total in-flight flits = 8 (8 measured)
latency change    = 0.00848376
throughput change = 0.00961538
Class 0:
Packet latency average = 20.6635
	minimum = 7
	maximum = 42
Network latency average = 20.6635
	minimum = 7
	maximum = 42
Slowest packet = 223689
Flit latency average = 20.6627
	minimum = 7
	maximum = 42
Slowest flit = 223689
Fragmentation average = 0
	minimum = 0
	maximum = 0
Injected packet rate average = 0.0197656
	minimum = 0.0165 (at node 15)
	maximum = 0.02375 (at node 2)
Accepted packet rate average = 0.0196875
	minimum = 0 (at node 0)
	maximum = 0.315 (at node 11)
Injected flit rate average = 0.0197656
	minimum = 0.0165 (at node 15)
	maximum = 0.02375 (at node 2)
Accepted flit rate average= 0.0196875
	minimum = 0 (at node 0)
	maximum = 0.315 (at node 11)
Injected packet length average = 1
Accepted packet length average = 1
Total in-flight flits = 8 (8 measured)
latency change    = 0.00347367
throughput change = 0.00952381
Draining all recorded packets ...
Draining remaining packets ...
Time taken is 7048 cycles
Class 0:
Packet latency average = 20.7507
	minimum = 7
	maximum = 53
Network latency average = 20.7507
	minimum = 7
	maximum = 53
Slowest packet = 224348
Flit latency average = 20.7507
	minimum = 7
	maximum = 53
Slowest flit = 224348
Fragmentation average = 0
	minimum = 0
	maximum = 0
Injected packet rate average = 0.0225625
	minimum = 0.016 (at node 3)
	maximum = 0.034 (at node 11)
Accepted packet rate average = 0.0220625
	minimum = 0 (at node 0)
	maximum = 0.353 (at node 11)
Injected flit rate average = 0.0225625
	minimum = 0.016 (at node 3)
	maximum = 0.034 (at node 11)
Accepted flit rate average= 0.0220625
	minimum = 0 (at node 0)
	maximum = 0.353 (at node 11)
Injected packet length average = 1
Accepted packet length average = 1
Total in-flight flits = 8 (0 measured)
latency change    = 1
throughput change = 1
Class 0:
Packet latency average = 20.8159
	minimum = 7
	maximum = 53
Network latency average = 20.8159
	minimum = 7
	maximum = 53
Slowest packet = 224348
Flit latency average = 20.8159
	minimum = 7
	maximum = 53
Slowest flit = 224348
Fragmentation average = 0
	minimum = 0
	maximum = 0
Injected packet rate average = 0.0215312
	minimum = 0.013 (at node 7)
	maximum = 0.027 (at node 15)
Accepted packet rate average = 0.0212188
	minimum = 0 (at node 0)
	maximum = 0.3395 (at node 11)
Injected flit rate average = 0.0215312
	minimum = 0.013 (at node 7)
	maximum = 0.027 (at node 15)
Accepted flit rate average= 0.0212188
	minimum = 0 (at node 0)
	maximum = 0.3395 (at node 11)
Injected packet length average = 1
Accepted packet length average = 1
Total in-flight flits = 10 (0 measured)
latency change    = 0.0031321
throughput change = 0.0397644
Class 0:
Packet latency average = 21.5073
	minimum = 7
	maximum = 53
Network latency average = 21.5073
	minimum = 7
	maximum = 53
Slowest packet = 225081
Flit latency average = 21.5073
	minimum = 7
	maximum = 53
Slowest flit = 225081
Fragmentation average = 0
	minimum = 0
	maximum = 0
Injected packet rate average = 0.02125
	minimum = 0.011 (at node 14)
	maximum = 0.033 (at node 8)
Accepted packet rate average = 0.0214375
	minimum = 0 (at node 0)
	maximum = 0.343 (at node 11)
Injected flit rate average = 0.02125
	minimum = 0.011 (at node 14)
	maximum = 0.033 (at node 8)
Accepted flit rate average= 0.0214375
	minimum = 0 (at node 0)
	maximum = 0.343 (at node 11)
Injected packet length average = 1
Accepted packet length average = 1
Total in-flight flits = 7 (0 measured)
latency change    = 0.0321464
throughput change = 0.0102041
Warmed up ...Time used is 3000 cycles
Class 0:
Packet latency average = 20.1786
	minimum = 7
	maximum = 40
Network latency average = 20.1786
	minimum = 7
	maximum = 40
Slowest packet = 225285
Flit latency average = 20.2613
	minimum = 7
	maximum = 40
Slowest flit = 225285
Fragmentation average = 0
	minimum = 0
	maximum = 0
Injected packet rate average = 0.017625
	minimum = 0.01 (at node 1)
	maximum = 0.024 (at node 9)
Accepted packet rate average = 0.0179375
	minimum = 0 (at node 0)
	maximum = 0.287 (at node 11)
Injected flit rate average = 0.017625
	minimum = 0.01 (at node 1)
	maximum = 0.024 (at node 9)
Accepted flit rate average= 0.0179375
	minimum = 0 (at node 0)
	maximum = 0.287 (at node 11)
Injected packet length average = 1
Accepted packet length average = 1
Total in-flight flits = 2 (2 measured)
latency change    = 0.0658479
throughput change = 0.195122
Class 0:
Packet latency average = 19.963
	minimum = 7
	maximum = 41
Network latency average = 19.963
	minimum = 7
	maximum = 41
Slowest packet = 225507
Flit latency average = 20.007
	minimum = 7
	maximum = 41
Slowest flit = 225507
Fragmentation average = 0
	minimum = 0
	maximum = 0
Injected packet rate average = 0.0179062
	minimum = 0.013 (at node 13)
	maximum = 0.021 (at node 6)
Accepted packet rate average = 0.0179687
	minimum = 0 (at node 0)
	maximum = 0.2875 (at node 11)
Injected flit rate average = 0.0179062
	minimum = 0.013 (at node 13)
	maximum = 0.021 (at node 6)
Accepted flit rate average= 0.0179687
	minimum = 0 (at node 0)
	maximum = 0.2875 (at node 11)
Injected packet length average = 1
Accepted packet length average = 1
Total in-flight flits = 5 (5 measured)
latency change    = 0.0107971
throughput change = 0.00173913
Class 0:
Packet latency average = 20.5976
	minimum = 7
	maximum = 41
Network latency average = 20.5976
	minimum = 7
	maximum = 41
Slowest packet = 225507
Flit latency average = 20.6204
	minimum = 7
	maximum = 41
Slowest flit = 225507
Fragmentation average = 0
	minimum = 0
	maximum = 0
Injected packet rate average = 0.0189583
	minimum = 0.0153333 (at node 2)
	maximum = 0.0243333 (at node 9)
Accepted packet rate average = 0.0190417
	minimum = 0 (at node 0)
	maximum = 0.304667 (at node 11)
Injected flit rate average = 0.0189583
	minimum = 0.0153333 (at node 2)
	maximum = 0.0243333 (at node 9)
Accepted flit rate average= 0.0190417
	minimum = 0 (at node 0)
	maximum = 0.304667 (at node 11)
Injected packet length average = 1
Accepted packet length average = 1
Total in-flight flits = 3 (3 measured)
latency change    = 0.0308068
throughput change = 0.0563457
Class 0:
Packet latency average = 20.5375
	minimum = 7
	maximum = 41
Network latency average = 20.5375
	minimum = 7
	maximum = 41
Slowest packet = 225507
Flit latency average = 20.5546
	minimum = 7
	maximum = 41
Slowest flit = 225507
Fragmentation average = 0
	minimum = 0
	maximum = 0
Injected packet rate average = 0.0193906
	minimum = 0.01575 (at node 2)
	maximum = 0.0245 (at node 6)
Accepted packet rate average = 0.0194687
	minimum = 0 (at node 0)
	maximum = 0.3115 (at node 11)
Injected flit rate average = 0.0193906
	minimum = 0.01575 (at node 2)
	maximum = 0.0245 (at node 6)
Accepted flit rate average= 0.0194687
	minimum = 0 (at node 0)
	maximum = 0.3115 (at node 11)
Injected packet length average = 1
Accepted packet length average = 1
Total in-flight flits = 2 (2 measured)
latency change    = 0.00292363
throughput change = 0.0219369
Class 0:
Packet latency average = 20.3696
	minimum = 7
	maximum = 41
Network latency average = 20.3696
	minimum = 7
	maximum = 41
Slowest packet = 225507
Flit latency average = 20.384
	minimum = 7
	maximum = 41
Slowest flit = 225507
Fragmentation average = 0
	minimum = 0
	maximum = 0
Injected packet rate average = 0.0193875
	minimum = 0.0162 (at node 2)
	maximum = 0.0228 (at node 6)
Accepted packet rate average = 0.0194
	minimum = 0 (at node 0)
	maximum = 0.3104 (at node 11)
Injected flit rate average = 0.0193875
	minimum = 0.0162 (at node 2)
	maximum = 0.0228 (at node 6)
Accepted flit rate average= 0.0194
	minimum = 0 (at node 0)
	maximum = 0.3104 (at node 11)
Injected packet length average = 1
Accepted packet length average = 1
Total in-flight flits = 6 (6 measured)
latency change    = 0.00824519
throughput change = 0.00354381
Class 0:
Packet latency average = 20.5048
	minimum = 7
	maximum = 43
Network latency average = 20.5048
	minimum = 7
	maximum = 43
Slowest packet = 226791
Flit latency average = 20.5163
	minimum = 7
	maximum = 43
Slowest flit = 226791
Fragmentation average = 0
	minimum = 0
	maximum = 0
Injected packet rate average = 0.0195104
	minimum = 0.0175 (at node 13)
	maximum = 0.0226667 (at node 6)
Accepted packet rate average = 0.0195104
	minimum = 0 (at node 0)
	maximum = 0.312167 (at node 11)
Injected flit rate average = 0.0195104
	minimum = 0.0175 (at node 13)
	maximum = 0.0226667 (at node 6)
Accepted flit rate average= 0.0195104
	minimum = 0 (at node 0)
	maximum = 0.312167 (at node 11)
Injected packet length average = 1
Accepted packet length average = 1
Total in-flight flits = 7 (7 measured)
latency change    = 0.00659571
throughput change = 0.00565937
Draining all recorded packets ...
Draining remaining packets ...
Time taken is 9045 cycles
====== Overall Traffic Statistics ======
====== Traffic class 0 ======
Packet latency average = 20.6338 (100 samples)
	minimum = 7 (100 samples)
	maximum = 48.06 (100 samples)
Network latency average = 20.6338 (100 samples)
	minimum = 7 (100 samples)
	maximum = 48.06 (100 samples)
Flit latency average = 20.6459 (100 samples)
	minimum = 7 (100 samples)
	maximum = 48.08 (100 samples)
Fragmentation average = 0 (100 samples)
	minimum = 0 (100 samples)
	maximum = 0 (100 samples)
Injected packet rate average = 0.0199267 (100 samples)
	minimum = 0.0162117 (100 samples)
	maximum = 0.0240222 (100 samples)
Accepted packet rate average = 0.0199247 (100 samples)
	minimum = 0 (100 samples)
	maximum = 0.318795 (100 samples)
Injected flit rate average = 0.0199267 (100 samples)
	minimum = 0.0162117 (100 samples)
	maximum = 0.0240222 (100 samples)
Accepted flit rate average = 0.0199247 (100 samples)
	minimum = 0 (100 samples)
	maximum = 0.318795 (100 samples)
Injected packet size average = 1 (100 samples)
Accepted packet size average = 1 (100 samples)
Hops average = 3.5051 (100 samples)
Total run time 5.65089
