BEGIN Configuration File: /tmp/bs_1138183_725783.cfg
topology = mesh;
k = 4;
n = 2;
routing_function = dor;
num_vcs = 4;
vc_buf_size = 4;
wait_for_tail_credit = 1;
vc_allocator = islip;
sw_allocator = islip;
alloc_iters = 1;
credit_delay = 2;
routing_delay = 1;
vc_alloc_delay = 1;
sw_alloc_delay = 1;
input_speedup = 2;
output_speedup = 1;
internal_speedup = 1.0;
traffic = uniform;
packet_size = 1;
sim_type = latency;
injection_rate = 0.05;
warmup_periods = 3;
sample_period = 1000;
sim_count = 100;
seed = 3;

END Configuration File: /tmp/bs_1138183_725783.cfg
Class 0:
Packet latency average = 19.0478
	minimum = 7
	maximum = 38
Network latency average = 19.0453
	minimum = 7
	maximum = 38
Slowest packet = 600
Flit latency average = 19.0453
	minimum = 7
	maximum = 38
Slowest flit = 600
Fragmentation average = 0
	minimum = 0
	maximum = 0
Injected packet rate average = 0.050375
	minimum = 0.034 (at node 4)
	maximum = 0.068 (at node 9)
Accepted packet rate average = 0.0496875
	minimum = 0.038 (at node 12)
	maximum = 0.06 (at node 11)
Injected flit rate average = 0.050375
	minimum = 0.034 (at node 4)
	maximum = 0.068 (at node 9)
Accepted flit rate average= 0.0496875
	minimum = 0.038 (at node 12)
	maximum = 0.06 (at node 11)
Injected packet length average = 1
Accepted packet length average = 1
Total in-flight flits = 11 (0 measured)
latency change    = 1
throughput change = 1
Class 0:
Packet latency average = 19.3733
	minimum = 7
	maximum = 38
Network latency average = 19.372
	minimum = 7
	maximum = 38
Slowest packet = 600
Flit latency average = 19.372
	minimum = 7
	maximum = 38
Slowest flit = 600
Fragmentation average = 0
	minimum = 0
	maximum = 0
Injected packet rate average = 0.049125
	minimum = 0.041 (at node 4)
	maximum = 0.057 (at node 9)
Accepted packet rate average = 0.0487187
	minimum = 0.0415 (at node 3)
	maximum = 0.0565 (at node 7)
Injected flit rate average = 0.049125
	minimum = 0.041 (at node 4)
	maximum = 0.057 (at node 9)
Accepted flit rate average= 0.0487187
	minimum = 0.0415 (at node 3)
	maximum = 0.0565 (at node 7)
Injected packet length average = 1
Accepted packet length average = 1
Total in-flight flits = 13 (0 measured)
latency change    = 0.0168024
throughput change = 0.0198845
Class 0:
Packet latency average = 20.0548
	minimum = 7
	maximum = 37
Network latency average = 20.0548
	minimum = 7
	maximum = 37
Slowest packet = 1576
Flit latency average = 20.0548
	minimum = 7
	maximum = 37
Slowest flit = 1576
Fragmentation average = 0
	minimum = 0
	maximum = 0
Injected packet rate average = 0.0490625
	minimum = 0.032 (at node 11)
	maximum = 0.066 (at node 12)
Accepted packet rate average = 0.0490625
	minimum = 0.037 (at node 11)
	maximum = 0.063 (at node 3)
Injected flit rate average = 0.0490625
	minimum = 0.032 (at node 11)
	maximum = 0.066 (at node 12)
Accepted flit rate average= 0.0490625
	minimum = 0.037 (at node 11)
	maximum = 0.063 (at node 3)
Injected packet length average = 1
Accepted packet length average = 1
Total in-flight flits = 13 (0 measured)
latency change    = 0.03398
throughput change = 0.00700637
Warmed up ...Time used is 3000 cycles
Class 0:
Packet latency average = 19.3834
	minimum = 7
	maximum = 38
Network latency average = 19.3834
	minimum = 7
	maximum = 38
Slowest packet = 2370
Flit latency average = 19.469
	minimum = 7
	maximum = 38
Slowest flit = 2370
Fragmentation average = 0
	minimum = 0
	maximum = 0
Injected packet rate average = 0.0475625
	minimum = 0.036 (at node 9)
	maximum = 0.062 (at node 12)
Accepted packet rate average = 0.0474375
	minimum = 0.039 (at node 11)
	maximum = 0.064 (at node 15)
Injected flit rate average = 0.0475625
	minimum = 0.036 (at node 9)
	maximum = 0.062 (at node 12)
Accepted flit rate average= 0.0474375
	minimum = 0.039 (at node 11)
	maximum = 0.064 (at node 15)
Injected packet length average = 1
Accepted packet length average = 1
Total in-flight flits = 15 (15 measured)
latency change    = 0.0346379
throughput change = 0.0342556
Class 0:
Packet latency average = 19.5287
	minimum = 7
	maximum = 38
Network latency average = 19.5287
	minimum = 7
	maximum = 38
Slowest packet = 2370
Flit latency average = 19.5678
	minimum = 7
	maximum = 38
Slowest flit = 2370
Fragmentation average = 0
	minimum = 0
	maximum = 0
Injected packet rate average = 0.0505625
	minimum = 0.0405 (at node 14)
	maximum = 0.061 (at node 12)
Accepted packet rate average = 0.0504687
	minimum = 0.044 (at node 9)
	maximum = 0.058 (at node 0)
Injected flit rate average = 0.0505625
	minimum = 0.0405 (at node 14)
	maximum = 0.061 (at node 12)
Accepted flit rate average= 0.0504687
	minimum = 0.044 (at node 9)
	maximum = 0.058 (at node 0)
Injected packet length average = 1
Accepted packet length average = 1
Total in-flight flits = 16 (16 measured)
latency change    = 0.00744217
throughput change = 0.0600619
Class 0:
Packet latency average = 19.4648
	minimum = 7
	maximum = 38
Network latency average = 19.4648
	minimum = 7
	maximum = 38
Slowest packet = 2370
Flit latency average = 19.4911
	minimum = 7
	maximum = 38
Slowest flit = 2370
Fragmentation average = 0
	minimum = 0
	maximum = 0
Injected packet rate average = 0.0506875
	minimum = 0.0426667 (at node 14)
	maximum = 0.058 (at node 12)
Accepted packet rate average = 0.0506042
	minimum = 0.046 (at node 4)
	maximum = 0.057 (at node 6)
Injected flit rate average = 0.0506875
	minimum = 0.0426667 (at node 14)
	maximum = 0.058 (at node 12)
Accepted flit rate average= 0.0506042
	minimum = 0.046 (at node 4)
	maximum = 0.057 (at node 6)
Injected packet length average = 1
Accepted packet length average = 1
Total in-flight flits = 17 (17 measured)
latency change    = 0.00328265
throughput change = 0.002676
Class 0:
Packet latency average = 19.544
	minimum = 7
	maximum = 38
Network latency average = 19.544
	minimum = 7
	maximum = 38
Slowest packet = 2370
Flit latency average = 19.5635
	minimum = 7
	maximum = 38
Slowest flit = 2370
Fragmentation average = 0
	minimum = 0
	maximum = 0
Injected packet rate average = 0.0506094
	minimum = 0.0445 (at node 3)
	maximum = 0.05525 (at node 0)
Accepted packet rate average = 0.0505781
	minimum = 0.043 (at node 4)
	maximum = 0.057 (at node 6)
Injected flit rate average = 0.0506094
	minimum = 0.0445 (at node 3)
	maximum = 0.05525 (at node 0)
Accepted flit rate average= 0.0505781
	minimum = 0.043 (at node 4)
	maximum = 0.057 (at node 6)
Injected packet length average = 1
Accepted packet length average = 1
Total in-flight flits = 15 (15 measured)
latency change    = 0.00405376
throughput change = 0.00051488
Class 0:
Packet latency average = 19.5359
	minimum = 7
	maximum = 38
Network latency average = 19.5359
	minimum = 7
	maximum = 38
Slowest packet = 2370
Flit latency average = 19.5514
	minimum = 7
	maximum = 38
Slowest flit = 2370
Fragmentation average = 0
	minimum = 0
	maximum = 0
Injected packet rate average = 0.0509375
	minimum = 0.0438 (at node 15)
	maximum = 0.057 (at node 0)
Accepted packet rate average = 0.05085
	minimum = 0.0442 (at node 4)
	maximum = 0.0578 (at node 6)
Injected flit rate average = 0.0509375
	minimum = 0.0438 (at node 15)
	maximum = 0.057 (at node 0)
Accepted flit rate average= 0.05085
	minimum = 0.0442 (at node 4)
	maximum = 0.0578 (at node 6)
Injected packet length average = 1
Accepted packet length average = 1
Total in-flight flits = 20 (20 measured)
latency change    = 0.000417848
throughput change = 0.00534661
Draining all recorded packets ...
Draining remaining packets ...
Time taken is 8055 cycles
Class 0:
Packet latency average = 19.5968
	minimum = 7
	maximum = 39
Network latency average = 19.5968
	minimum = 7
	maximum = 39
Slowest packet = 7098
Flit latency average = 19.5968
	minimum = 7
	maximum = 39
Slowest flit = 7098
Fragmentation average = 0
	minimum = 0
	maximum = 0
Injected packet rate average = 0.051625
	minimum = 0.033 (at node 8)
	maximum = 0.063 (at node 4)
Accepted packet rate average = 0.050375
	minimum = 0.037 (at node 2)
	maximum = 0.063 (at node 5)
Injected flit rate average = 0.051625
	minimum = 0.033 (at node 8)
	maximum = 0.063 (at node 4)
Accepted flit rate average= 0.050375
	minimum = 0.037 (at node 2)
	maximum = 0.063 (at node 5)
Injected packet length average = 1
Accepted packet length average = 1
Total in-flight flits = 20 (0 measured)
latency change    = 1
throughput change = 1
Class 0:
Packet latency average = 19.6212
	minimum = 7
	maximum = 39
Network latency average = 19.6212
	minimum = 7
	maximum = 39
Slowest packet = 7098
Flit latency average = 19.6212
	minimum = 7
	maximum = 39
Slowest flit = 7098
Fragmentation average = 0
	minimum = 0
	maximum = 0
Injected packet rate average = 0.051625
	minimum = 0.0425 (at node 8)
	maximum = 0.0585 (at node 10)
Accepted packet rate average = 0.0513125
	minimum = 0.0415 (at node 8)
	maximum = 0.061 (at node 0)
Injected flit rate average = 0.051625
	minimum = 0.0425 (at node 8)
	maximum = 0.0585 (at node 10)
Accepted flit rate average= 0.0513125
	minimum = 0.0415 (at node 8)
	maximum = 0.061 (at node 0)
Injected packet length average = 1
Accepted packet length average = 1
Total in-flight flits = 10 (0 measured)
latency change    = 0.00124455
throughput change = 0.0182704
Class 0:
Packet latency average = 19.2503
	minimum = 7
	maximum = 37
Network latency average = 19.2503
	minimum = 7
	maximum = 37
Slowest packet = 8112
Flit latency average = 19.2503
	minimum = 7
	maximum = 37
Slowest flit = 8112
Fragmentation average = 0
	minimum = 0
	maximum = 0
Injected packet rate average = 0.050625
	minimum = 0.038 (at node 5)
	maximum = 0.06 (at node 15)
Accepted packet rate average = 0.0501875
	minimum = 0.035 (at node 12)
	maximum = 0.061 (at node 14)
Injected flit rate average = 0.050625
	minimum = 0.038 (at node 5)
	maximum = 0.06 (at node 15)
Accepted flit rate average= 0.0501875
	minimum = 0.035 (at node 12)
	maximum = 0.061 (at node 14)
Injected packet length average = 1
Accepted packet length average = 1
Total in-flight flits = 17 (0 measured)
latency change    = 0.0192663
throughput change = 0.0224159
Warmed up ...Time used is 3000 cycles
Class 0:
Packet latency average = 19.7232
	minimum = 7
	maximum = 38
Network latency average = 19.7232
	minimum = 7
	maximum = 38
Slowest packet = 9208
Flit latency average = 19.774
	minimum = 7
	maximum = 38
Slowest flit = 9208
Fragmentation average = 0
	minimum = 0
	maximum = 0
Injected packet rate average = 0.0498125
	minimum = 0.039 (at node 15)
	maximum = 0.06 (at node 10)
Accepted packet rate average = 0.0500625
	minimum = 0.036 (at node 6)
	maximum = 0.063 (at node 7)
Injected flit rate average = 0.0498125
	minimum = 0.039 (at node 15)
	maximum = 0.06 (at node 10)
Accepted flit rate average= 0.0500625
	minimum = 0.036 (at node 6)
	maximum = 0.063 (at node 7)
Injected packet length average = 1
Accepted packet length average = 1
Total in-flight flits = 13 (13 measured)
latency change    = 0.023977
throughput change = 0.00249688
Class 0:
Packet latency average = 19.8321
	minimum = 7
	maximum = 38
Network latency average = 19.8321
	minimum = 7
	maximum = 38
Slowest packet = 9208
Flit latency average = 19.8562
	minimum = 7
	maximum = 38
Slowest flit = 9208
Fragmentation average = 0
	minimum = 0
	maximum = 0
Injected packet rate average = 0.0504687
	minimum = 0.042 (at node 15)
	maximum = 0.056 (at node 12)
Accepted packet rate average = 0.0504062
	minimum = 0.043 (at node 6)
	maximum = 0.06 (at node 0)
Injected flit rate average = 0.0504687
	minimum = 0.042 (at node 15)
	maximum = 0.056 (at node 12)
Accepted flit rate average= 0.0504062
	minimum = 0.043 (at node 6)
	maximum = 0.06 (at node 0)
Injected packet length average = 1
Accepted packet length average = 1
Total in-flight flits = 19 (19 measured)
latency change    = 0.00548938
throughput change = 0.00681959
Class 0:
Packet latency average = 19.7485
	minimum = 7
	maximum = 38
Network latency average = 19.7485
	minimum = 7
	maximum = 38
Slowest packet = 9208
Flit latency average = 19.7649
	minimum = 7
	maximum = 38
Slowest flit = 9208
Fragmentation average = 0
	minimum = 0
	maximum = 0
Injected packet rate average = 0.0509167
	minimum = 0.044 (at node 4)
	maximum = 0.0576667 (at node 5)
Accepted packet rate average = 0.0510417
	minimum = 0.0416667 (at node 6)
	maximum = 0.061 (at node 0)
Injected flit rate average = 0.0509167
	minimum = 0.044 (at node 4)
	maximum = 0.0576667 (at node 5)
Accepted flit rate average= 0.0510417
	minimum = 0.0416667 (at node 6)
	maximum = 0.061 (at node 0)
Injected packet length average = 1
Accepted packet length average = 1
Total in-flight flits = 11 (11 measured)
latency change    = 0.00423433
throughput change = 0.012449
Draining all recorded packets ...
Draining remaining packets ...
Time taken is 6063 cycles
Class 0:
Packet latency average = 19.6332
	minimum = 7
	maximum = 37
Network latency average = 19.6332
	minimum = 7
	maximum = 37
Slowest packet = 11407
Flit latency average = 19.6332
	minimum = 7
	maximum = 37
Slowest flit = 11407
Fragmentation average = 0
	minimum = 0
	maximum = 0
Injected packet rate average = 0.050625
	minimum = 0.04 (at node 15)
	maximum = 0.062 (at node 5)
Accepted packet rate average = 0.04975
	minimum = 0.04 (at node 4)
	maximum = 0.062 (at node 6)
Injected flit rate average = 0.050625
	minimum = 0.04 (at node 15)
	maximum = 0.062 (at node 5)
Accepted flit rate average= 0.04975
	minimum = 0.04 (at node 4)
	maximum = 0.062 (at node 6)
Injected packet length average = 1
Accepted packet length average = 1
Total in-flight flits = 14 (0 measured)
latency change    = 1
throughput change = 1
Class 0:
Packet latency average = 19.4882
	minimum = 7
	maximum = 38
Network latency average = 19.4882
	minimum = 7
	maximum = 38
Slowest packet = 12415
Flit latency average = 19.4882
	minimum = 7
	maximum = 38
Slowest flit = 12415
Fragmentation average = 0
	minimum = 0
	maximum = 0
Injected packet rate average = 0.050875
	minimum = 0.0435 (at node 10)
	maximum = 0.056 (at node 14)
Accepted packet rate average = 0.05025
	minimum = 0.042 (at node 8)
	maximum = 0.0595 (at node 6)
Injected flit rate average = 0.050875
	minimum = 0.0435 (at node 10)
	maximum = 0.056 (at node 14)
Accepted flit rate average= 0.05025
	minimum = 0.042 (at node 8)
	maximum = 0.0595 (at node 6)
Injected packet length average = 1
Accepted packet length average = 1
Total in-flight flits = 20 (0 measured)
latency change    = 0.00743947
throughput change = 0.00995025
Class 0:
Packet latency average = 19.5035
	minimum = 7
	maximum = 38
Network latency average = 19.5035
	minimum = 7
	maximum = 38
Slowest packet = 13162
Flit latency average = 19.5035
	minimum = 7
	maximum = 38
Slowest flit = 13162
Fragmentation average = 0
	minimum = 0
	maximum = 0
Injected packet rate average = 0.0540625
	minimum = 0.041 (at node 14)
	maximum = 0.073 (at node 10)
Accepted packet rate average = 0.05425
	minimum = 0.039 (at node 8)
	maximum = 0.072 (at node 5)
Injected flit rate average = 0.0540625
	minimum = 0.041 (at node 14)
	maximum = 0.073 (at node 10)
Accepted flit rate average= 0.05425
	minimum = 0.039 (at node 8)
	maximum = 0.072 (at node 5)
Injected packet length average = 1
Accepted packet length average = 1
Total in-flight flits = 17 (0 measured)
latency change    = 0.000783048
throughput change = 0.0737327
Warmed up ...Time used is 3000 cycles
Class 0:
Packet latency average = 19.5446
	minimum = 7
	maximum = 41
Network latency average = 19.5446
	minimum = 7
	maximum = 41
Slowest packet = 14054
Flit latency average = 19.5848
	minimum = 7
	maximum = 41
Slowest flit = 14054
Fragmentation average = 0
	minimum = 0
	maximum = 0
Injected packet rate average = 0.0498125
	minimum = 0.034 (at node 7)
	maximum = 0.066 (at node 6)
Accepted packet rate average = 0.049375
	minimum = 0.043 (at node 6)
	maximum = 0.059 (at node 15)
Injected flit rate average = 0.0498125
	minimum = 0.034 (at node 7)
	maximum = 0.066 (at node 6)
Accepted flit rate average= 0.049375
	minimum = 0.043 (at node 6)
	maximum = 0.059 (at node 15)
Injected packet length average = 1
Accepted packet length average = 1
Total in-flight flits = 24 (24 measured)
latency change    = 0.00210672
throughput change = 0.0987342
Class 0:
Packet latency average = 19.572
	minimum = 7
	maximum = 41
Network latency average = 19.572
	minimum = 7
	maximum = 41
Slowest packet = 14054
Flit latency average = 19.591
	minimum = 7
	maximum = 41
Slowest flit = 14054
Fragmentation average = 0
	minimum = 0
	maximum = 0
Injected packet rate average = 0.0515625
	minimum = 0.04 (at node 7)
	maximum = 0.0615 (at node 11)
Accepted packet rate average = 0.0515
	minimum = 0.046 (at node 10)
	maximum = 0.0595 (at node 3)
Injected flit rate average = 0.0515625
	minimum = 0.04 (at node 7)
	maximum = 0.0615 (at node 11)
Accepted flit rate average= 0.0515
	minimum = 0.046 (at node 10)
	maximum = 0.0595 (at node 3)
Injected packet length average = 1
Accepted packet length average = 1
Total in-flight flits = 19 (19 measured)
latency change    = 0.00140049
throughput change = 0.0412621
Class 0:
Packet latency average = 19.5267
	minimum = 7
	maximum = 41
Network latency average = 19.5267
	minimum = 7
	maximum = 41
Slowest packet = 14054
Flit latency average = 19.5397
	minimum = 7
	maximum = 41
Slowest flit = 14054
Fragmentation average = 0
	minimum = 0
	maximum = 0
Injected packet rate average = 0.051375
	minimum = 0.043 (at node 7)
	maximum = 0.0593333 (at node 3)
Accepted packet rate average = 0.0514583
	minimum = 0.0446667 (at node 13)
	maximum = 0.0606667 (at node 9)
Injected flit rate average = 0.051375
	minimum = 0.043 (at node 7)
	maximum = 0.0593333 (at node 3)
Accepted flit rate average= 0.0514583
	minimum = 0.0446667 (at node 13)
	maximum = 0.0606667 (at node 9)
Injected packet length average = 1
Accepted packet length average = 1
Total in-flight flits = 13 (13 measured)
latency change    = 0.00232193
throughput change = 0.000809717
Class 0:
Packet latency average = 19.4774
	minimum = 7
	maximum = 41
Network latency average = 19.4774
	minimum = 7
	maximum = 41
Slowest packet = 14054
Flit latency average = 19.4875
	minimum = 7
	maximum = 41
Slowest flit = 14054
Fragmentation average = 0
	minimum = 0
	maximum = 0
Injected packet rate average = 0.0506562
	minimum = 0.04125 (at node 7)
	maximum = 0.055 (at node 1)
Accepted packet rate average = 0.0507344
	minimum = 0.046 (at node 13)
	maximum = 0.0575 (at node 1)
Injected flit rate average = 0.0506562
	minimum = 0.04125 (at node 7)
	maximum = 0.055 (at node 1)
Accepted flit rate average= 0.0507344
	minimum = 0.046 (at node 13)
	maximum = 0.0575 (at node 1)
Injected packet length average = 1
Accepted packet length average = 1
Total in-flight flits = 12 (12 measured)
latency change    = 0.00253127
throughput change = 0.0142696
Draining all recorded packets ...
Draining remaining packets ...
Time taken is 7043 cycles
Class 0:
Packet latency average = 19.6754
	minimum = 7
	maximum = 37
Network latency average = 19.6754
	minimum = 7
	maximum = 37
Slowest packet = 17149
Flit latency average = 19.6754
	minimum = 7
	maximum = 37
Slowest flit = 17149
Fragmentation average = 0
	minimum = 0
	maximum = 0
Injected packet rate average = 0.0508125
	minimum = 0.039 (at node 14)
	maximum = 0.058 (at node 2)
Accepted packet rate average = 0.049875
	minimum = 0.033 (at node 6)
	maximum = 0.064 (at node 11)
Injected flit rate average = 0.0508125
	minimum = 0.039 (at node 14)
	maximum = 0.058 (at node 2)
Accepted flit rate average= 0.049875
	minimum = 0.033 (at node 6)
	maximum = 0.064 (at node 11)
Injected packet length average = 1
Accepted packet length average = 1
Total in-flight flits = 15 (0 measured)
latency change    = 1
throughput change = 1
Class 0:
Packet latency average = 19.6231
	minimum = 7
	maximum = 37
Network latency average = 19.6231
	minimum = 7
	maximum = 37
Slowest packet = 17149
Flit latency average = 19.6231
	minimum = 7
	maximum = 37
Slowest flit = 17149
Fragmentation average = 0
	minimum = 0
	maximum = 0
Injected packet rate average = 0.0506562
	minimum = 0.0415 (at node 7)
	maximum = 0.0595 (at node 8)
Accepted packet rate average = 0.05025
	minimum = 0.041 (at node 6)
	maximum = 0.0585 (at node 10)
Injected flit rate average = 0.0506562
	minimum = 0.0415 (at node 7)
	maximum = 0.0595 (at node 8)
Accepted flit rate average= 0.05025
	minimum = 0.041 (at node 6)
	maximum = 0.0585 (at node 10)
Injected packet length average = 1
Accepted packet length average = 1
Total in-flight flits = 13 (0 measured)
latency change    = 0.00266544
throughput change = 0.00746269
Class 0:
Packet latency average = 19.5878
	minimum = 7
	maximum = 37
Network latency average = 19.5878
	minimum = 7
	maximum = 37
Slowest packet = 19045
Flit latency average = 19.5878
	minimum = 7
	maximum = 37
Slowest flit = 19045
Fragmentation average = 0
	minimum = 0
	maximum = 0
Injected packet rate average = 0.05425
	minimum = 0.043 (at node 15)
	maximum = 0.065 (at node 2)
Accepted packet rate average = 0.0544375
	minimum = 0.042 (at node 11)
	maximum = 0.069 (at node 10)
Injected flit rate average = 0.05425
	minimum = 0.043 (at node 15)
	maximum = 0.065 (at node 2)
Accepted flit rate average= 0.0544375
	minimum = 0.042 (at node 11)
	maximum = 0.069 (at node 10)
Injected packet length average = 1
Accepted packet length average = 1
Total in-flight flits = 10 (0 measured)
latency change    = 0.00180236
throughput change = 0.0769231
Warmed up ...Time used is 3000 cycles
Class 0:
Packet latency average = 19.5058
	minimum = 7
	maximum = 38
Network latency average = 19.5058
	minimum = 7
	maximum = 38
Slowest packet = 20145
Flit latency average = 19.5909
	minimum = 7
	maximum = 39
Slowest flit = 19624
Fragmentation average = 0
	minimum = 0
	maximum = 0
Injected packet rate average = 0.0494375
	minimum = 0.039 (at node 7)
	maximum = 0.061 (at node 14)
Accepted packet rate average = 0.0491875
	minimum = 0.039 (at node 7)
	maximum = 0.064 (at node 4)
Injected flit rate average = 0.0494375
	minimum = 0.039 (at node 7)
	maximum = 0.061 (at node 14)
Accepted flit rate average= 0.0491875
	minimum = 0.039 (at node 7)
	maximum = 0.064 (at node 4)
Injected packet length average = 1
Accepted packet length average = 1
Total in-flight flits = 14 (14 measured)
latency change    = 0.00420586
throughput change = 0.106734
Class 0:
Packet latency average = 19.6252
	minimum = 7
	maximum = 38
Network latency average = 19.6252
	minimum = 7
	maximum = 38
Slowest packet = 20145
Flit latency average = 19.6675
	minimum = 7
	maximum = 39
Slowest flit = 19624
Fragmentation average = 0
	minimum = 0
	maximum = 0
Injected packet rate average = 0.0486562
	minimum = 0.041 (at node 2)
	maximum = 0.0555 (at node 14)
Accepted packet rate average = 0.0485937
	minimum = 0.0405 (at node 0)
	maximum = 0.056 (at node 1)
Injected flit rate average = 0.0486562
	minimum = 0.041 (at node 2)
	maximum = 0.0555 (at node 14)
Accepted flit rate average= 0.0485937
	minimum = 0.0405 (at node 0)
	maximum = 0.056 (at node 1)
Injected packet length average = 1
Accepted packet length average = 1
Total in-flight flits = 12 (12 measured)
latency change    = 0.00608661
throughput change = 0.0122186
Class 0:
Packet latency average = 19.6707
	minimum = 7
	maximum = 38
Network latency average = 19.6707
	minimum = 7
	maximum = 38
Slowest packet = 20145
Flit latency average = 19.6985
	minimum = 7
	maximum = 39
Slowest flit = 19624
Fragmentation average = 0
	minimum = 0
	maximum = 0
Injected packet rate average = 0.0489167
	minimum = 0.0426667 (at node 2)
	maximum = 0.0536667 (at node 14)
Accepted packet rate average = 0.0488542
	minimum = 0.0416667 (at node 12)
	maximum = 0.058 (at node 4)
Injected flit rate average = 0.0489167
	minimum = 0.0426667 (at node 2)
	maximum = 0.0536667 (at node 14)
Accepted flit rate average= 0.0488542
	minimum = 0.0416667 (at node 12)
	maximum = 0.058 (at node 4)
Injected packet length average = 1
Accepted packet length average = 1
Total in-flight flits = 13 (13 measured)
latency change    = 0.00230908
throughput change = 0.00533049
Class 0:
Packet latency average = 19.6875
	minimum = 7
	maximum = 38
Network latency average = 19.6875
	minimum = 7
	maximum = 38
Slowest packet = 20145
Flit latency average = 19.7082
	minimum = 7
	maximum = 39
Slowest flit = 19624
Fragmentation average = 0
	minimum = 0
	maximum = 0
Injected packet rate average = 0.0492812
	minimum = 0.04425 (at node 10)
	maximum = 0.05425 (at node 13)
Accepted packet rate average = 0.0491562
	minimum = 0.04325 (at node 5)
	maximum = 0.05675 (at node 4)
Injected flit rate average = 0.0492812
	minimum = 0.04425 (at node 10)
	maximum = 0.05425 (at node 13)
Accepted flit rate average= 0.0491562
	minimum = 0.04325 (at node 5)
	maximum = 0.05675 (at node 4)
Injected packet length average = 1
Accepted packet length average = 1
Total in-flight flits = 18 (18 measured)
latency change    = 0.000855171
throughput change = 0.00614537
Draining all recorded packets ...
Draining remaining packets ...
Time taken is 7053 cycles
Class 0:
Packet latency average = 19.4584
	minimum = 7
	maximum = 37
Network latency average = 19.4584
	minimum = 7
	maximum = 37
Slowest packet = 22828
Flit latency average = 19.4584
	minimum = 7
	maximum = 37
Slowest flit = 22828
Fragmentation average = 0
	minimum = 0
	maximum = 0
Injected packet rate average = 0.047875
	minimum = 0.039 (at node 1)
	maximum = 0.055 (at node 4)
Accepted packet rate average = 0.046625
	minimum = 0.036 (at node 15)
	maximum = 0.057 (at node 4)
Injected flit rate average = 0.047875
	minimum = 0.039 (at node 1)
	maximum = 0.055 (at node 4)
Accepted flit rate average= 0.046625
	minimum = 0.036 (at node 15)
	maximum = 0.057 (at node 4)
Injected packet length average = 1
Accepted packet length average = 1
Total in-flight flits = 20 (0 measured)
latency change    = 1
throughput change = 1
Class 0:
Packet latency average = 19.3692
	minimum = 7
	maximum = 38
Network latency average = 19.3692
	minimum = 7
	maximum = 38
Slowest packet = 24202
Flit latency average = 19.3692
	minimum = 7
	maximum = 38
Slowest flit = 24202
Fragmentation average = 0
	minimum = 0
	maximum = 0
Injected packet rate average = 0.048125
	minimum = 0.04 (at node 12)
	maximum = 0.0555 (at node 6)
Accepted packet rate average = 0.0476562
	minimum = 0.0415 (at node 11)
	maximum = 0.054 (at node 14)
Injected flit rate average = 0.048125
	minimum = 0.04 (at node 12)
	maximum = 0.0555 (at node 6)
Accepted flit rate average= 0.0476562
	minimum = 0.0415 (at node 11)
	maximum = 0.054 (at node 14)
Injected packet length average = 1
Accepted packet length average = 1
Total in-flight flits = 15 (0 measured)
latency change    = 0.0046086
throughput change = 0.0216393
Class 0:
Packet latency average = 19.2948
	minimum = 7
	maximum = 38
Network latency average = 19.2948
	minimum = 7
	maximum = 38
Slowest packet = 25075
Flit latency average = 19.2948
	minimum = 7
	maximum = 38
Slowest flit = 25075
Fragmentation average = 0
	minimum = 0
	maximum = 0
Injected packet rate average = 0.051875
	minimum = 0.038 (at node 11)
	maximum = 0.061 (at node 9)
Accepted packet rate average = 0.0519375
	minimum = 0.038 (at node 15)
	maximum = 0.07 (at node 1)
Injected flit rate average = 0.051875
	minimum = 0.038 (at node 11)
	maximum = 0.061 (at node 9)
Accepted flit rate average= 0.0519375
	minimum = 0.038 (at node 15)
	maximum = 0.07 (at node 1)
Injected packet length average = 1
Accepted packet length average = 1
Total in-flight flits = 14 (0 measured)
latency change    = 0.00385361
throughput change = 0.0824308
Warmed up ...Time used is 3000 cycles
Class 0:
Packet latency average = 19.902
	minimum = 7
	maximum = 38
Network latency average = 19.902
	minimum = 7
	maximum = 38
Slowest packet = 25881
Flit latency average = 19.9558
	minimum = 7
	maximum = 38
Slowest flit = 25881
Fragmentation average = 0
	minimum = 0
	maximum = 0
Injected packet rate average = 0.048125
	minimum = 0.034 (at node 3)
	maximum = 0.064 (at node 12)
Accepted packet rate average = 0.0480625
	minimum = 0.037 (at node 0)
	maximum = 0.059 (at node 5)
Injected flit rate average = 0.048125
	minimum = 0.034 (at node 3)
	maximum = 0.064 (at node 12)
Accepted flit rate average= 0.0480625
	minimum = 0.037 (at node 0)
	maximum = 0.059 (at node 5)
Injected packet length average = 1
Accepted packet length average = 1
Total in-flight flits = 15 (15 measured)
latency change    = 0.0305076
throughput change = 0.0806242
Class 0:
Packet latency average = 19.8799
	minimum = 7
	maximum = 39
Network latency average = 19.8799
	minimum = 7
	maximum = 39
Slowest packet = 26517
Flit latency average = 19.9071
	minimum = 7
	maximum = 39
Slowest flit = 26517
Fragmentation average = 0
	minimum = 0
	maximum = 0
Injected packet rate average = 0.04775
	minimum = 0.037 (at node 7)
	maximum = 0.06 (at node 12)
Accepted packet rate average = 0.0477812
	minimum = 0.039 (at node 10)
	maximum = 0.0545 (at node 2)
Injected flit rate average = 0.04775
	minimum = 0.037 (at node 7)
	maximum = 0.06 (at node 12)
Accepted flit rate average= 0.0477812
	minimum = 0.039 (at node 10)
	maximum = 0.0545 (at node 2)
Injected packet length average = 1
Accepted packet length average = 1
Total in-flight flits = 13 (13 measured)
latency change    = 0.00111262
throughput change = 0.0058862
Class 0:
Packet latency average = 19.8188
	minimum = 7
	maximum = 39
Network latency average = 19.8188
	minimum = 7
	maximum = 39
Slowest packet = 26517
Flit latency average = 19.8371
	minimum = 7
	maximum = 39
Slowest flit = 26517
Fragmentation average = 0
	minimum = 0
	maximum = 0
Injected packet rate average = 0.0483542
	minimum = 0.0383333 (at node 4)
	maximum = 0.058 (at node 12)
Accepted packet rate average = 0.0484583
	minimum = 0.041 (at node 10)
	maximum = 0.0543333 (at node 15)
Injected flit rate average = 0.0483542
	minimum = 0.0383333 (at node 4)
	maximum = 0.058 (at node 12)
Accepted flit rate average= 0.0484583
	minimum = 0.041 (at node 10)
	maximum = 0.0543333 (at node 15)
Injected packet length average = 1
Accepted packet length average = 1
Total in-flight flits = 9 (9 measured)
latency change    = 0.00308275
throughput change = 0.0139725
Class 0:
Packet latency average = 19.7213
	minimum = 7
	maximum = 39
Network latency average = 19.7213
	minimum = 7
	maximum = 39
Slowest packet = 26517
Flit latency average = 19.7353
	minimum = 7
	maximum = 39
Slowest flit = 26517
Fragmentation average = 0
	minimum = 0
	maximum = 0
Injected packet rate average = 0.0490156
	minimum = 0.0395 (at node 3)
	maximum = 0.056 (at node 12)
Accepted packet rate average = 0.049
	minimum = 0.04425 (at node 4)
	maximum = 0.0545 (at node 15)
Injected flit rate average = 0.0490156
	minimum = 0.0395 (at node 3)
	maximum = 0.056 (at node 12)
Accepted flit rate average= 0.049
	minimum = 0.04425 (at node 4)
	maximum = 0.0545 (at node 15)
Injected packet length average = 1
Accepted packet length average = 1
Total in-flight flits = 15 (15 measured)
latency change    = 0.0049408
throughput change = 0.0110544
Draining all recorded packets ...
Draining remaining packets ...
Time taken is 7063 cycles
Class 0:
Packet latency average = 19.6909
	minimum = 7
	maximum = 37
Network latency average = 19.6909
	minimum = 7
	maximum = 37
Slowest packet = 28351
Flit latency average = 19.6909
	minimum = 7
	maximum = 37
Slowest flit = 28351
Fragmentation average = 0
	minimum = 0
	maximum = 0
Injected packet rate average = 0.0528125
	minimum = 0.043 (at node 6)
	maximum = 0.07 (at node 2)
Accepted packet rate average = 0.0515625
	minimum = 0.04 (at node 3)
	maximum = 0.062 (at node 1)
Injected flit rate average = 0.0528125
	minimum = 0.043 (at node 6)
	maximum = 0.07 (at node 2)
Accepted flit rate average= 0.0515625
	minimum = 0.04 (at node 3)
	maximum = 0.062 (at node 1)
Injected packet length average = 1
Accepted packet length average = 1
Total in-flight flits = 20 (0 measured)
latency change    = 1
throughput change = 1
Class 0:
Packet latency average = 19.625
	minimum = 7
	maximum = 37
Network latency average = 19.625
	minimum = 7
	maximum = 37
Slowest packet = 28351
Flit latency average = 19.625
	minimum = 7
	maximum = 37
Slowest flit = 28351
Fragmentation average = 0
	minimum = 0
	maximum = 0
Injected packet rate average = 0.0513125
	minimum = 0.044 (at node 3)
	maximum = 0.0625 (at node 11)
Accepted packet rate average = 0.05075
	minimum = 0.039 (at node 3)
	maximum = 0.058 (at node 11)
Injected flit rate average = 0.0513125
	minimum = 0.044 (at node 3)
	maximum = 0.0625 (at node 11)
Accepted flit rate average= 0.05075
	minimum = 0.039 (at node 3)
	maximum = 0.058 (at node 11)
Injected packet length average = 1
Accepted packet length average = 1
Total in-flight flits = 18 (0 measured)
latency change    = 0.00335843
throughput change = 0.0160099
Class 0:
Packet latency average = 20.0658
	minimum = 7
	maximum = 37
Network latency average = 20.0658
	minimum = 7
	maximum = 37
Slowest packet = 30008
Flit latency average = 20.0658
	minimum = 7
	maximum = 37
Slowest flit = 30008
Fragmentation average = 0
	minimum = 0
	maximum = 0
Injected packet rate average = 0.0505
	minimum = 0.038 (at node 11)
	maximum = 0.058 (at node 5)
Accepted packet rate average = 0.050375
	minimum = 0.041 (at node 8)
	maximum = 0.06 (at node 0)
Injected flit rate average = 0.0505
	minimum = 0.038 (at node 11)
	maximum = 0.058 (at node 5)
Accepted flit rate average= 0.050375
	minimum = 0.041 (at node 8)
	maximum = 0.06 (at node 0)
Injected packet length average = 1
Accepted packet length average = 1
Total in-flight flits = 20 (0 measured)
latency change    = 0.0219656
throughput change = 0.00744417
Warmed up ...Time used is 3000 cycles
Class 0:
Packet latency average = 19.5757
	minimum = 7
	maximum = 39
Network latency average = 19.5757
	minimum = 7
	maximum = 39
Slowest packet = 31034
Flit latency average = 19.7216
	minimum = 7
	maximum = 39
Slowest flit = 31034
Fragmentation average = 0
	minimum = 0
	maximum = 0
Injected packet rate average = 0.0509375
	minimum = 0.039 (at node 9)
	maximum = 0.065 (at node 4)
Accepted packet rate average = 0.0511875
	minimum = 0.039 (at node 13)
	maximum = 0.061 (at node 11)
Injected flit rate average = 0.0509375
	minimum = 0.039 (at node 9)
	maximum = 0.065 (at node 4)
Accepted flit rate average= 0.0511875
	minimum = 0.039 (at node 13)
	maximum = 0.061 (at node 11)
Injected packet length average = 1
Accepted packet length average = 1
Total in-flight flits = 16 (16 measured)
latency change    = 0.0250329
throughput change = 0.015873
Class 0:
Packet latency average = 19.4871
	minimum = 7
	maximum = 39
Network latency average = 19.4871
	minimum = 7
	maximum = 39
Slowest packet = 31034
Flit latency average = 19.5622
	minimum = 7
	maximum = 39
Slowest flit = 31034
Fragmentation average = 0
	minimum = 0
	maximum = 0
Injected packet rate average = 0.050375
	minimum = 0.043 (at node 9)
	maximum = 0.0555 (at node 5)
Accepted packet rate average = 0.0504687
	minimum = 0.039 (at node 13)
	maximum = 0.059 (at node 6)
Injected flit rate average = 0.050375
	minimum = 0.043 (at node 9)
	maximum = 0.0555 (at node 5)
Accepted flit rate average= 0.0504687
	minimum = 0.039 (at node 13)
	maximum = 0.059 (at node 6)
Injected packet length average = 1
Accepted packet length average = 1
Total in-flight flits = 17 (17 measured)
latency change    = 0.00454517
throughput change = 0.0142415
Class 0:
Packet latency average = 19.4652
	minimum = 7
	maximum = 39
Network latency average = 19.4652
	minimum = 7
	maximum = 39
Slowest packet = 31034
Flit latency average = 19.5158
	minimum = 7
	maximum = 39
Slowest flit = 31034
Fragmentation average = 0
	minimum = 0
	maximum = 0
Injected packet rate average = 0.049875
	minimum = 0.0443333 (at node 9)
	maximum = 0.054 (at node 15)
Accepted packet rate average = 0.0500417
	minimum = 0.0446667 (at node 13)
	maximum = 0.057 (at node 6)
Injected flit rate average = 0.049875
	minimum = 0.0443333 (at node 9)
	maximum = 0.054 (at node 15)
Accepted flit rate average= 0.0500417
	minimum = 0.0446667 (at node 13)
	maximum = 0.057 (at node 6)
Injected packet length average = 1
Accepted packet length average = 1
Total in-flight flits = 12 (12 measured)
latency change    = 0.00112981
throughput change = 0.00853455
Draining all recorded packets ...
Draining remaining packets ...
Time taken is 6056 cycles
Class 0:
Packet latency average = 19.5227
	minimum = 7
	maximum = 37
Network latency average = 19.5227
	minimum = 7
	maximum = 37
Slowest packet = 33225
Flit latency average = 19.5227
	minimum = 7
	maximum = 37
Slowest flit = 33225
Fragmentation average = 0
	minimum = 0
	maximum = 0
Injected packet rate average = 0.053
	minimum = 0.044 (at node 7)
	maximum = 0.061 (at node 2)
Accepted packet rate average = 0.052375
	minimum = 0.04 (at node 12)
	maximum = 0.068 (at node 0)
Injected flit rate average = 0.053
	minimum = 0.044 (at node 7)
	maximum = 0.061 (at node 2)
Accepted flit rate average= 0.052375
	minimum = 0.04 (at node 12)
	maximum = 0.068 (at node 0)
Injected packet length average = 1
Accepted packet length average = 1
Total in-flight flits = 10 (0 measured)
latency change    = 1
throughput change = 1
Class 0:
Packet latency average = 19.5311
	minimum = 7
	maximum = 37
Network latency average = 19.5311
	minimum = 7
	maximum = 37
Slowest packet = 33225
Flit latency average = 19.5311
	minimum = 7
	maximum = 37
Slowest flit = 33225
Fragmentation average = 0
	minimum = 0
	maximum = 0
Injected packet rate average = 0.0522188
	minimum = 0.0475 (at node 1)
	maximum = 0.06 (at node 9)
Accepted packet rate average = 0.0517813
	minimum = 0.0405 (at node 12)
	maximum = 0.061 (at node 11)
Injected flit rate average = 0.0522188
	minimum = 0.0475 (at node 1)
	maximum = 0.06 (at node 9)
Accepted flit rate average= 0.0517813
	minimum = 0.0405 (at node 12)
	maximum = 0.061 (at node 11)
Injected packet length average = 1
Accepted packet length average = 1
Total in-flight flits = 14 (0 measured)
latency change    = 0.000430454
throughput change = 0.0114665
Class 0:
Packet latency average = 19.3855
	minimum = 7
	maximum = 37
Network latency average = 19.3855
	minimum = 7
	maximum = 37
Slowest packet = 34968
Flit latency average = 19.3855
	minimum = 7
	maximum = 37
Slowest flit = 34968
Fragmentation average = 0
	minimum = 0
	maximum = 0
Injected packet rate average = 0.0530625
	minimum = 0.039 (at node 2)
	maximum = 0.063 (at node 10)
Accepted packet rate average = 0.0526875
	minimum = 0.039 (at node 4)
	maximum = 0.062 (at node 11)
Injected flit rate average = 0.0530625
	minimum = 0.039 (at node 2)
	maximum = 0.063 (at node 10)
Accepted flit rate average= 0.0526875
	minimum = 0.039 (at node 4)
	maximum = 0.062 (at node 11)
Injected packet length average = 1
Accepted packet length average = 1
Total in-flight flits = 20 (0 measured)
latency change    = 0.0075083
throughput change = 0.0172005
Warmed up ...Time used is 3000 cycles
Class 0:
Packet latency average = 19.3381
	minimum = 7
	maximum = 38
Network latency average = 19.3381
	minimum = 7
	maximum = 38
Slowest packet = 36201
Flit latency average = 19.4536
	minimum = 7
	maximum = 38
Slowest flit = 36201
Fragmentation average = 0
	minimum = 0
	maximum = 0
Injected packet rate average = 0.0530625
	minimum = 0.035 (at node 13)
	maximum = 0.073 (at node 5)
Accepted packet rate average = 0.0531875
	minimum = 0.046 (at node 2)
	maximum = 0.073 (at node 5)
Injected flit rate average = 0.0530625
	minimum = 0.035 (at node 13)
	maximum = 0.073 (at node 5)
Accepted flit rate average= 0.0531875
	minimum = 0.046 (at node 2)
	maximum = 0.073 (at node 5)
Injected packet length average = 1
Accepted packet length average = 1
Total in-flight flits = 18 (18 measured)
latency change    = 0.00245013
throughput change = 0.00940071
Class 0:
Packet latency average = 19.5387
	minimum = 7
	maximum = 38
Network latency average = 19.5387
	minimum = 7
	maximum = 38
Slowest packet = 36201
Flit latency average = 19.5963
	minimum = 7
	maximum = 38
Slowest flit = 36201
Fragmentation average = 0
	minimum = 0
	maximum = 0
Injected packet rate average = 0.0508125
	minimum = 0.041 (at node 2)
	maximum = 0.0595 (at node 5)
Accepted packet rate average = 0.0510938
	minimum = 0.042 (at node 2)
	maximum = 0.06 (at node 5)
Injected flit rate average = 0.0508125
	minimum = 0.041 (at node 2)
	maximum = 0.0595 (at node 5)
Accepted flit rate average= 0.0510938
	minimum = 0.042 (at node 2)
	maximum = 0.06 (at node 5)
Injected packet length average = 1
Accepted packet length average = 1
Total in-flight flits = 11 (11 measured)
latency change    = 0.0102644
throughput change = 0.0409786
Class 0:
Packet latency average = 19.6663
	minimum = 7
	maximum = 38
Network latency average = 19.6663
	minimum = 7
	maximum = 38
Slowest packet = 36201
Flit latency average = 19.7039
	minimum = 7
	maximum = 38
Slowest flit = 36201
Fragmentation average = 0
	minimum = 0
	maximum = 0
Injected packet rate average = 0.0507083
	minimum = 0.0416667 (at node 11)
	maximum = 0.0603333 (at node 1)
Accepted packet rate average = 0.0507917
	minimum = 0.043 (at node 13)
	maximum = 0.0586667 (at node 12)
Injected flit rate average = 0.0507083
	minimum = 0.0416667 (at node 11)
	maximum = 0.0603333 (at node 1)
Accepted flit rate average= 0.0507917
	minimum = 0.043 (at node 13)
	maximum = 0.0586667 (at node 12)
Injected packet length average = 1
Accepted packet length average = 1
Total in-flight flits = 16 (16 measured)
latency change    = 0.0064859
throughput change = 0.0059475
Draining all recorded packets ...
Draining remaining packets ...
Time taken is 6056 cycles
Class 0:
Packet latency average = 19.4853
	minimum = 7
	maximum = 38
Network latency average = 19.4853
	minimum = 7
	maximum = 38
Slowest packet = 38569
Flit latency average = 19.4853
	minimum = 7
	maximum = 38
Slowest flit = 38569
Fragmentation average = 0
	minimum = 0
	maximum = 0
Injected packet rate average = 0.0539375
	minimum = 0.028 (at node 4)
	maximum = 0.067 (at node 11)
Accepted packet rate average = 0.0531875
	minimum = 0.043 (at node 15)
	maximum = 0.064 (at node 7)
Injected flit rate average = 0.0539375
	minimum = 0.028 (at node 4)
	maximum = 0.067 (at node 11)
Accepted flit rate average= 0.0531875
	minimum = 0.043 (at node 15)
	maximum = 0.064 (at node 7)
Injected packet length average = 1
Accepted packet length average = 1
Total in-flight flits = 12 (0 measured)
latency change    = 1
throughput change = 1
Class 0:
Packet latency average = 19.5896
	minimum = 7
	maximum = 38
Network latency average = 19.5896
	minimum = 7
	maximum = 38
Slowest packet = 38569
Flit latency average = 19.5896
	minimum = 7
	maximum = 38
Slowest flit = 38569
Fragmentation average = 0
	minimum = 0
	maximum = 0
Injected packet rate average = 0.0532813
	minimum = 0.046 (at node 4)
	maximum = 0.061 (at node 9)
Accepted packet rate average = 0.0526875
	minimum = 0.046 (at node 3)
	maximum = 0.059 (at node 11)
Injected flit rate average = 0.0532813
	minimum = 0.046 (at node 4)
	maximum = 0.061 (at node 9)
Accepted flit rate average= 0.0526875
	minimum = 0.046 (at node 3)
	maximum = 0.059 (at node 11)
Injected packet length average = 1
Accepted packet length average = 1
Total in-flight flits = 19 (0 measured)
latency change    = 0.0053217
throughput change = 0.00948992
Class 0:
Packet latency average = 19.4667
	minimum = 7
	maximum = 37
Network latency average = 19.4667
	minimum = 7
	maximum = 37
Slowest packet = 39838
Flit latency average = 19.4667
	minimum = 7
	maximum = 37
Slowest flit = 39838
Fragmentation average = 0
	minimum = 0
	maximum = 0
Injected packet rate average = 0.048125
	minimum = 0.042 (at node 0)
	maximum = 0.055 (at node 13)
Accepted packet rate average = 0.0478125
	minimum = 0.039 (at node 6)
	maximum = 0.059 (at node 4)
Injected flit rate average = 0.048125
	minimum = 0.042 (at node 0)
	maximum = 0.055 (at node 13)
Accepted flit rate average= 0.0478125
	minimum = 0.039 (at node 6)
	maximum = 0.059 (at node 4)
Injected packet length average = 1
Accepted packet length average = 1
Total in-flight flits = 24 (0 measured)
latency change    = 0.00631307
throughput change = 0.101961
Warmed up ...Time used is 3000 cycles
Class 0:
Packet latency average = 19.268
	minimum = 7
	maximum = 38
Network latency average = 19.268
	minimum = 7
	maximum = 38
Slowest packet = 41015
Flit latency average = 19.4081
	minimum = 7
	maximum = 38
Slowest flit = 41015
Fragmentation average = 0
	minimum = 0
	maximum = 0
Injected packet rate average = 0.048125
	minimum = 0.039 (at node 2)
	maximum = 0.062 (at node 5)
Accepted packet rate average = 0.0493125
	minimum = 0.032 (at node 0)
	maximum = 0.06 (at node 4)
Injected flit rate average = 0.048125
	minimum = 0.039 (at node 2)
	maximum = 0.062 (at node 5)
Accepted flit rate average= 0.0493125
	minimum = 0.032 (at node 0)
	maximum = 0.06 (at node 4)
Injected packet length average = 1
Accepted packet length average = 1
Total in-flight flits = 5 (5 measured)
latency change    = 0.0103121
throughput change = 0.0304183
Class 0:
Packet latency average = 19.4692
	minimum = 7
	maximum = 38
Network latency average = 19.4692
	minimum = 7
	maximum = 38
Slowest packet = 41015
Flit latency average = 19.536
	minimum = 7
	maximum = 38
Slowest flit = 41015
Fragmentation average = 0
	minimum = 0
	maximum = 0
Injected packet rate average = 0.04925
	minimum = 0.0425 (at node 14)
	maximum = 0.0585 (at node 5)
Accepted packet rate average = 0.0494375
	minimum = 0.0395 (at node 6)
	maximum = 0.0565 (at node 14)
Injected flit rate average = 0.04925
	minimum = 0.0425 (at node 14)
	maximum = 0.0585 (at node 5)
Accepted flit rate average= 0.0494375
	minimum = 0.0395 (at node 6)
	maximum = 0.0565 (at node 14)
Injected packet length average = 1
Accepted packet length average = 1
Total in-flight flits = 18 (18 measured)
latency change    = 0.0103352
throughput change = 0.00252845
Class 0:
Packet latency average = 19.53
	minimum = 7
	maximum = 39
Network latency average = 19.53
	minimum = 7
	maximum = 39
Slowest packet = 42220
Flit latency average = 19.5729
	minimum = 7
	maximum = 39
Slowest flit = 42220
Fragmentation average = 0
	minimum = 0
	maximum = 0
Injected packet rate average = 0.0505208
	minimum = 0.045 (at node 11)
	maximum = 0.055 (at node 5)
Accepted packet rate average = 0.0505833
	minimum = 0.0443333 (at node 6)
	maximum = 0.059 (at node 4)
Injected flit rate average = 0.0505208
	minimum = 0.045 (at node 11)
	maximum = 0.055 (at node 5)
Accepted flit rate average= 0.0505833
	minimum = 0.0443333 (at node 6)
	maximum = 0.059 (at node 4)
Injected packet length average = 1
Accepted packet length average = 1
Total in-flight flits = 21 (21 measured)
latency change    = 0.00311106
throughput change = 0.0226524
Draining all recorded packets ...
Draining remaining packets ...
Time taken is 6061 cycles
Class 0:
Packet latency average = 19.4077
	minimum = 7
	maximum = 38
Network latency average = 19.4077
	minimum = 7
	maximum = 38
Slowest packet = 43244
Flit latency average = 19.4077
	minimum = 7
	maximum = 38
Slowest flit = 43244
Fragmentation average = 0
	minimum = 0
	maximum = 0
Injected packet rate average = 0.0496875
	minimum = 0.038 (at node 12)
	maximum = 0.059 (at node 3)
Accepted packet rate average = 0.0484375
	minimum = 0.039 (at node 0)
	maximum = 0.063 (at node 11)
Injected flit rate average = 0.0496875
	minimum = 0.038 (at node 12)
	maximum = 0.059 (at node 3)
Accepted flit rate average= 0.0484375
	minimum = 0.039 (at node 0)
	maximum = 0.063 (at node 11)
Injected packet length average = 1
Accepted packet length average = 1
Total in-flight flits = 20 (0 measured)
latency change    = 1
throughput change = 1
Class 0:
Packet latency average = 19.3752
	minimum = 7
	maximum = 38
Network latency average = 19.3752
	minimum = 7
	maximum = 38
Slowest packet = 43244
Flit latency average = 19.3752
	minimum = 7
	maximum = 38
Slowest flit = 43244
Fragmentation average = 0
	minimum = 0
	maximum = 0
Injected packet rate average = 0.0489062
	minimum = 0.043 (at node 4)
	maximum = 0.056 (at node 3)
Accepted packet rate average = 0.0484687
	minimum = 0.0415 (at node 0)
	maximum = 0.06 (at node 11)
Injected flit rate average = 0.0489062
	minimum = 0.043 (at node 4)
	maximum = 0.056 (at node 3)
Accepted flit rate average= 0.0484687
	minimum = 0.0415 (at node 0)
	maximum = 0.06 (at node 11)
Injected packet length average = 1
Accepted packet length average = 1
Total in-flight flits = 14 (0 measured)
latency change    = 0.00167741
throughput change = 0.000644745
Class 0:
Packet latency average = 19.5634
	minimum = 7
	maximum = 38
Network latency average = 19.5634
	minimum = 7
	maximum = 38
Slowest packet = 45145
Flit latency average = 19.5634
	minimum = 7
	maximum = 38
Slowest flit = 45145
Fragmentation average = 0
	minimum = 0
	maximum = 0
Injected packet rate average = 0.05025
	minimum = 0.043 (at node 0)
	maximum = 0.06 (at node 1)
Accepted packet rate average = 0.05025
	minimum = 0.039 (at node 11)
	maximum = 0.062 (at node 8)
Injected flit rate average = 0.05025
	minimum = 0.043 (at node 0)
	maximum = 0.06 (at node 1)
Accepted flit rate average= 0.05025
	minimum = 0.039 (at node 11)
	maximum = 0.062 (at node 8)
Injected packet length average = 1
Accepted packet length average = 1
Total in-flight flits = 14 (0 measured)
latency change    = 0.00961953
throughput change = 0.0354478
Warmed up ...Time used is 3000 cycles
Class 0:
Packet latency average = 19.0886
	minimum = 7
	maximum = 37
Network latency average = 19.0886
	minimum = 7
	maximum = 37
Slowest packet = 45546
Flit latency average = 19.1096
	minimum = 7
	maximum = 37
Slowest flit = 45546
Fragmentation average = 0
	minimum = 0
	maximum = 0
Injected packet rate average = 0.046625
	minimum = 0.038 (at node 6)
	maximum = 0.062 (at node 1)
Accepted packet rate average = 0.04675
	minimum = 0.039 (at node 7)
	maximum = 0.054 (at node 6)
Injected flit rate average = 0.046625
	minimum = 0.038 (at node 6)
	maximum = 0.062 (at node 1)
Accepted flit rate average= 0.04675
	minimum = 0.039 (at node 7)
	maximum = 0.054 (at node 6)
Injected packet length average = 1
Accepted packet length average = 1
Total in-flight flits = 12 (12 measured)
latency change    = 0.0248776
throughput change = 0.0748663
Class 0:
Packet latency average = 19.4507
	minimum = 7
	maximum = 37
Network latency average = 19.4507
	minimum = 7
	maximum = 37
Slowest packet = 45546
Flit latency average = 19.4578
	minimum = 7
	maximum = 37
Slowest flit = 45546
Fragmentation average = 0
	minimum = 0
	maximum = 0
Injected packet rate average = 0.0474687
	minimum = 0.036 (at node 13)
	maximum = 0.057 (at node 8)
Accepted packet rate average = 0.047375
	minimum = 0.0375 (at node 9)
	maximum = 0.0545 (at node 2)
Injected flit rate average = 0.0474687
	minimum = 0.036 (at node 13)
	maximum = 0.057 (at node 8)
Accepted flit rate average= 0.047375
	minimum = 0.0375 (at node 9)
	maximum = 0.0545 (at node 2)
Injected packet length average = 1
Accepted packet length average = 1
Total in-flight flits = 17 (17 measured)
latency change    = 0.0186202
throughput change = 0.0131926
Class 0:
Packet latency average = 19.562
	minimum = 7
	maximum = 39
Network latency average = 19.562
	minimum = 7
	maximum = 39
Slowest packet = 47708
Flit latency average = 19.566
	minimum = 7
	maximum = 39
Slowest flit = 47708
Fragmentation average = 0
	minimum = 0
	maximum = 0
Injected packet rate average = 0.0478958
	minimum = 0.036 (at node 13)
	maximum = 0.0553333 (at node 8)
Accepted packet rate average = 0.0478542
	minimum = 0.041 (at node 9)
	maximum = 0.0593333 (at node 6)
Injected flit rate average = 0.0478958
	minimum = 0.036 (at node 13)
	maximum = 0.0553333 (at node 8)
Accepted flit rate average= 0.0478542
	minimum = 0.041 (at node 9)
	maximum = 0.0593333 (at node 6)
Injected packet length average = 1
Accepted packet length average = 1
Total in-flight flits = 16 (16 measured)
latency change    = 0.00568692
throughput change = 0.0100131
Class 0:
Packet latency average = 19.492
	minimum = 7
	maximum = 39
Network latency average = 19.492
	minimum = 7
	maximum = 39
Slowest packet = 47708
Flit latency average = 19.4952
	minimum = 7
	maximum = 39
Slowest flit = 47708
Fragmentation average = 0
	minimum = 0
	maximum = 0
Injected packet rate average = 0.0489531
	minimum = 0.04075 (at node 13)
	maximum = 0.05525 (at node 4)
Accepted packet rate average = 0.0489062
	minimum = 0.041 (at node 13)
	maximum = 0.05875 (at node 6)
Injected flit rate average = 0.0489531
	minimum = 0.04075 (at node 13)
	maximum = 0.05525 (at node 4)
Accepted flit rate average= 0.0489062
	minimum = 0.041 (at node 13)
	maximum = 0.05875 (at node 6)
Injected packet length average = 1
Accepted packet length average = 1
Total in-flight flits = 17 (17 measured)
latency change    = 0.00359137
throughput change = 0.0215122
Draining all recorded packets ...
Draining remaining packets ...
Time taken is 7052 cycles
Class 0:
Packet latency average = 19.1561
	minimum = 7
	maximum = 37
Network latency average = 19.1561
	minimum = 7
	maximum = 37
Slowest packet = 48694
Flit latency average = 19.1561
	minimum = 7
	maximum = 37
Slowest flit = 48694
Fragmentation average = 0
	minimum = 0
	maximum = 0
Injected packet rate average = 0.0493125
	minimum = 0.035 (at node 12)
	maximum = 0.058 (at node 5)
Accepted packet rate average = 0.0484375
	minimum = 0.041 (at node 14)
	maximum = 0.062 (at node 1)
Injected flit rate average = 0.0493125
	minimum = 0.035 (at node 12)
	maximum = 0.058 (at node 5)
Accepted flit rate average= 0.0484375
	minimum = 0.041 (at node 14)
	maximum = 0.062 (at node 1)
Injected packet length average = 1
Accepted packet length average = 1
Total in-flight flits = 14 (0 measured)
latency change    = 1
throughput change = 1
Class 0:
Packet latency average = 19.6383
	minimum = 7
	maximum = 37
Network latency average = 19.6383
	minimum = 7
	maximum = 37
Slowest packet = 48694
Flit latency average = 19.6383
	minimum = 7
	maximum = 37
Slowest flit = 48694
Fragmentation average = 0
	minimum = 0
	maximum = 0
Injected packet rate average = 0.0484062
	minimum = 0.0405 (at node 12)
	maximum = 0.056 (at node 2)
Accepted packet rate average = 0.0477812
	minimum = 0.0415 (at node 2)
	maximum = 0.059 (at node 3)
Injected flit rate average = 0.0484062
	minimum = 0.0405 (at node 12)
	maximum = 0.056 (at node 2)
Accepted flit rate average= 0.0477812
	minimum = 0.0415 (at node 2)
	maximum = 0.059 (at node 3)
Injected packet length average = 1
Accepted packet length average = 1
Total in-flight flits = 20 (0 measured)
latency change    = 0.0245539
throughput change = 0.0137345
Class 0:
Packet latency average = 19.73
	minimum = 7
	maximum = 38
Network latency average = 19.73
	minimum = 7
	maximum = 38
Slowest packet = 50549
Flit latency average = 19.73
	minimum = 7
	maximum = 38
Slowest flit = 50549
Fragmentation average = 0
	minimum = 0
	maximum = 0
Injected packet rate average = 0.047875
	minimum = 0.034 (at node 12)
	maximum = 0.062 (at node 1)
Accepted packet rate average = 0.048375
	minimum = 0.036 (at node 3)
	maximum = 0.059 (at node 7)
Injected flit rate average = 0.047875
	minimum = 0.034 (at node 12)
	maximum = 0.062 (at node 1)
Accepted flit rate average= 0.048375
	minimum = 0.036 (at node 3)
	maximum = 0.059 (at node 7)
Injected packet length average = 1
Accepted packet length average = 1
Total in-flight flits = 12 (0 measured)
latency change    = 0.00464514
throughput change = 0.0122739
Warmed up ...Time used is 3000 cycles
Class 0:
Packet latency average = 19.332
	minimum = 7
	maximum = 39
Network latency average = 19.332
	minimum = 7
	maximum = 39
Slowest packet = 51587
Flit latency average = 19.3627
	minimum = 7
	maximum = 39
Slowest flit = 51587
Fragmentation average = 0
	minimum = 0
	maximum = 0
Injected packet rate average = 0.048625
	minimum = 0.038 (at node 14)
	maximum = 0.063 (at node 10)
Accepted packet rate average = 0.0489375
	minimum = 0.036 (at node 11)
	maximum = 0.071 (at node 15)
Injected flit rate average = 0.048625
	minimum = 0.038 (at node 14)
	maximum = 0.063 (at node 10)
Accepted flit rate average= 0.0489375
	minimum = 0.036 (at node 11)
	maximum = 0.071 (at node 15)
Injected packet length average = 1
Accepted packet length average = 1
Total in-flight flits = 7 (7 measured)
latency change    = 0.0205844
throughput change = 0.0114943
Class 0:
Packet latency average = 19.5914
	minimum = 7
	maximum = 39
Network latency average = 19.5914
	minimum = 7
	maximum = 39
Slowest packet = 51587
Flit latency average = 19.6049
	minimum = 7
	maximum = 39
Slowest flit = 51587
Fragmentation average = 0
	minimum = 0
	maximum = 0
Injected packet rate average = 0.04825
	minimum = 0.043 (at node 5)
	maximum = 0.054 (at node 10)
Accepted packet rate average = 0.0480937
	minimum = 0.0375 (at node 14)
	maximum = 0.0625 (at node 15)
Injected flit rate average = 0.04825
	minimum = 0.043 (at node 5)
	maximum = 0.054 (at node 10)
Accepted flit rate average= 0.0480937
	minimum = 0.0375 (at node 14)
	maximum = 0.0625 (at node 15)
Injected packet length average = 1
Accepted packet length average = 1
Total in-flight flits = 17 (17 measured)
latency change    = 0.0132364
throughput change = 0.0175439
Class 0:
Packet latency average = 19.6674
	minimum = 7
	maximum = 39
Network latency average = 19.6674
	minimum = 7
	maximum = 39
Slowest packet = 51587
Flit latency average = 19.676
	minimum = 7
	maximum = 39
Slowest flit = 51587
Fragmentation average = 0
	minimum = 0
	maximum = 0
Injected packet rate average = 0.048375
	minimum = 0.0443333 (at node 5)
	maximum = 0.0543333 (at node 11)
Accepted packet rate average = 0.0483542
	minimum = 0.043 (at node 6)
	maximum = 0.057 (at node 15)
Injected flit rate average = 0.048375
	minimum = 0.0443333 (at node 5)
	maximum = 0.0543333 (at node 11)
Accepted flit rate average= 0.0483542
	minimum = 0.043 (at node 6)
	maximum = 0.057 (at node 15)
Injected packet length average = 1
Accepted packet length average = 1
Total in-flight flits = 13 (13 measured)
latency change    = 0.00386594
throughput change = 0.00538561
Draining all recorded packets ...
Draining remaining packets ...
Time taken is 6052 cycles
Class 0:
Packet latency average = 19.2995
	minimum = 7
	maximum = 38
Network latency average = 19.2995
	minimum = 7
	maximum = 38
Slowest packet = 53983
Flit latency average = 19.2995
	minimum = 7
	maximum = 38
Slowest flit = 53983
Fragmentation average = 0
	minimum = 0
	maximum = 0
Injected packet rate average = 0.0523125
	minimum = 0.043 (at node 8)
	maximum = 0.061 (at node 14)
Accepted packet rate average = 0.051125
	minimum = 0.039 (at node 3)
	maximum = 0.069 (at node 11)
Injected flit rate average = 0.0523125
	minimum = 0.043 (at node 8)
	maximum = 0.061 (at node 14)
Accepted flit rate average= 0.051125
	minimum = 0.039 (at node 3)
	maximum = 0.069 (at node 11)
Injected packet length average = 1
Accepted packet length average = 1
Total in-flight flits = 19 (0 measured)
latency change    = 1
throughput change = 1
Class 0:
Packet latency average = 19.4688
	minimum = 7
	maximum = 38
Network latency average = 19.4688
	minimum = 7
	maximum = 38
Slowest packet = 53983
Flit latency average = 19.4688
	minimum = 7
	maximum = 38
Slowest flit = 53983
Fragmentation average = 0
	minimum = 0
	maximum = 0
Injected packet rate average = 0.0510625
	minimum = 0.0425 (at node 0)
	maximum = 0.059 (at node 14)
Accepted packet rate average = 0.0506562
	minimum = 0.043 (at node 15)
	maximum = 0.0565 (at node 11)
Injected flit rate average = 0.0510625
	minimum = 0.0425 (at node 0)
	maximum = 0.059 (at node 14)
Accepted flit rate average= 0.0506562
	minimum = 0.043 (at node 15)
	maximum = 0.0565 (at node 11)
Injected packet length average = 1
Accepted packet length average = 1
Total in-flight flits = 13 (0 measured)
latency change    = 0.00869776
throughput change = 0.00925355
Class 0:
Packet latency average = 19.5639
	minimum = 7
	maximum = 37
Network latency average = 19.5639
	minimum = 7
	maximum = 37
Slowest packet = 54929
Flit latency average = 19.5639
	minimum = 7
	maximum = 37
Slowest flit = 54929
Fragmentation average = 0
	minimum = 0
	maximum = 0
Injected packet rate average = 0.04925
	minimum = 0.043 (at node 8)
	maximum = 0.062 (at node 9)
Accepted packet rate average = 0.048875
	minimum = 0.034 (at node 10)
	maximum = 0.061 (at node 2)
Injected flit rate average = 0.04925
	minimum = 0.043 (at node 8)
	maximum = 0.062 (at node 9)
Accepted flit rate average= 0.048875
	minimum = 0.034 (at node 10)
	maximum = 0.061 (at node 2)
Injected packet length average = 1
Accepted packet length average = 1
Total in-flight flits = 19 (0 measured)
latency change    = 0.00486059
throughput change = 0.036445
Warmed up ...Time used is 3000 cycles
Class 0:
Packet latency average = 19.3894
	minimum = 7
	maximum = 37
Network latency average = 19.3894
	minimum = 7
	maximum = 37
Slowest packet = 55804
Flit latency average = 19.4196
	minimum = 7
	maximum = 37
Slowest flit = 55680
Fragmentation average = 0
	minimum = 0
	maximum = 0
Injected packet rate average = 0.050625
	minimum = 0.033 (at node 9)
	maximum = 0.062 (at node 6)
Accepted packet rate average = 0.0509375
	minimum = 0.041 (at node 9)
	maximum = 0.062 (at node 4)
Injected flit rate average = 0.050625
	minimum = 0.033 (at node 9)
	maximum = 0.062 (at node 6)
Accepted flit rate average= 0.0509375
	minimum = 0.041 (at node 9)
	maximum = 0.062 (at node 4)
Injected packet length average = 1
Accepted packet length average = 1
Total in-flight flits = 14 (14 measured)
latency change    = 0.0089993
throughput change = 0.0404908
Class 0:
Packet latency average = 19.5924
	minimum = 7
	maximum = 37
Network latency average = 19.5924
	minimum = 7
	maximum = 37
Slowest packet = 55804
Flit latency average = 19.6056
	minimum = 7
	maximum = 37
Slowest flit = 55680
Fragmentation average = 0
	minimum = 0
	maximum = 0
Injected packet rate average = 0.0489375
	minimum = 0.0365 (at node 9)
	maximum = 0.0595 (at node 8)
Accepted packet rate average = 0.049125
	minimum = 0.0425 (at node 9)
	maximum = 0.058 (at node 4)
Injected flit rate average = 0.0489375
	minimum = 0.0365 (at node 9)
	maximum = 0.0595 (at node 8)
Accepted flit rate average= 0.049125
	minimum = 0.0425 (at node 9)
	maximum = 0.058 (at node 4)
Injected packet length average = 1
Accepted packet length average = 1
Total in-flight flits = 13 (13 measured)
latency change    = 0.0103588
throughput change = 0.0368957
Class 0:
Packet latency average = 19.6948
	minimum = 7
	maximum = 37
Network latency average = 19.6948
	minimum = 7
	maximum = 37
Slowest packet = 55804
Flit latency average = 19.7029
	minimum = 7
	maximum = 37
Slowest flit = 55680
Fragmentation average = 0
	minimum = 0
	maximum = 0
Injected packet rate average = 0.0482708
	minimum = 0.038 (at node 9)
	maximum = 0.0553333 (at node 15)
Accepted packet rate average = 0.0483125
	minimum = 0.0416667 (at node 3)
	maximum = 0.0576667 (at node 4)
Injected flit rate average = 0.0482708
	minimum = 0.038 (at node 9)
	maximum = 0.0553333 (at node 15)
Accepted flit rate average= 0.0483125
	minimum = 0.0416667 (at node 3)
	maximum = 0.0576667 (at node 4)
Injected packet length average = 1
Accepted packet length average = 1
Total in-flight flits = 17 (17 measured)
latency change    = 0.00519837
throughput change = 0.0168176
Draining all recorded packets ...
Draining remaining packets ...
Time taken is 6061 cycles
Class 0:
Packet latency average = 19.5848
	minimum = 7
	maximum = 37
Network latency average = 19.5848
	minimum = 7
	maximum = 37
Slowest packet = 58101
Flit latency average = 19.5848
	minimum = 7
	maximum = 37
Slowest flit = 58101
Fragmentation average = 0
	minimum = 0
	maximum = 0
Injected packet rate average = 0.048375
	minimum = 0.04 (at node 14)
	maximum = 0.06 (at node 7)
Accepted packet rate average = 0.0475625
	minimum = 0.03 (at node 9)
	maximum = 0.059 (at node 5)
Injected flit rate average = 0.048375
	minimum = 0.04 (at node 14)
	maximum = 0.06 (at node 7)
Accepted flit rate average= 0.0475625
	minimum = 0.03 (at node 9)
	maximum = 0.059 (at node 5)
Injected packet length average = 1
Accepted packet length average = 1
Total in-flight flits = 13 (0 measured)
latency change    = 1
throughput change = 1
Class 0:
Packet latency average = 19.5848
	minimum = 7
	maximum = 38
Network latency average = 19.5848
	minimum = 7
	maximum = 38
Slowest packet = 58960
Flit latency average = 19.5848
	minimum = 7
	maximum = 38
Slowest flit = 58960
Fragmentation average = 0
	minimum = 0
	maximum = 0
Injected packet rate average = 0.0495312
	minimum = 0.0415 (at node 2)
	maximum = 0.0585 (at node 7)
Accepted packet rate average = 0.048625
	minimum = 0.0365 (at node 9)
	maximum = 0.061 (at node 11)
Injected flit rate average = 0.0495312
	minimum = 0.0415 (at node 2)
	maximum = 0.0585 (at node 7)
Accepted flit rate average= 0.048625
	minimum = 0.0365 (at node 9)
	maximum = 0.061 (at node 11)
Injected packet length average = 1
Accepted packet length average = 1
Total in-flight flits = 29 (0 measured)
latency change    = 3.88086e-06
throughput change = 0.0218509
Class 0:
Packet latency average = 19.5024
	minimum = 7
	maximum = 37
Network latency average = 19.5024
	minimum = 7
	maximum = 37
Slowest packet = 59585
Flit latency average = 19.5024
	minimum = 7
	maximum = 37
Slowest flit = 59585
Fragmentation average = 0
	minimum = 0
	maximum = 0
Injected packet rate average = 0.05
	minimum = 0.04 (at node 6)
	maximum = 0.067 (at node 14)
Accepted packet rate average = 0.051125
	minimum = 0.04 (at node 3)
	maximum = 0.059 (at node 10)
Injected flit rate average = 0.05
	minimum = 0.04 (at node 6)
	maximum = 0.067 (at node 14)
Accepted flit rate average= 0.051125
	minimum = 0.04 (at node 3)
	maximum = 0.059 (at node 10)
Injected packet length average = 1
Accepted packet length average = 1
Total in-flight flits = 11 (0 measured)
latency change    = 0.00422449
throughput change = 0.0488998
Warmed up ...Time used is 3000 cycles
Class 0:
Packet latency average = 19.6679
	minimum = 7
	maximum = 38
Network latency average = 19.6679
	minimum = 7
	maximum = 38
Slowest packet = 60888
Flit latency average = 19.6939
	minimum = 7
	maximum = 38
Slowest flit = 60888
Fragmentation average = 0
	minimum = 0
	maximum = 0
Injected packet rate average = 0.0501875
	minimum = 0.035 (at node 11)
	maximum = 0.071 (at node 14)
Accepted packet rate average = 0.0498125
	minimum = 0.043 (at node 7)
	maximum = 0.059 (at node 3)
Injected flit rate average = 0.0501875
	minimum = 0.035 (at node 11)
	maximum = 0.071 (at node 14)
Accepted flit rate average= 0.0498125
	minimum = 0.043 (at node 7)
	maximum = 0.059 (at node 3)
Injected packet length average = 1
Accepted packet length average = 1
Total in-flight flits = 17 (17 measured)
latency change    = 0.0084144
throughput change = 0.0263488
Class 0:
Packet latency average = 19.5338
	minimum = 7
	maximum = 38
Network latency average = 19.5338
	minimum = 7
	maximum = 38
Slowest packet = 60888
Flit latency average = 19.5482
	minimum = 7
	maximum = 38
Slowest flit = 60888
Fragmentation average = 0
	minimum = 0
	maximum = 0
Injected packet rate average = 0.048
	minimum = 0.039 (at node 4)
	maximum = 0.0575 (at node 14)
Accepted packet rate average = 0.048
	minimum = 0.0405 (at node 1)
	maximum = 0.0585 (at node 2)
Injected flit rate average = 0.048
	minimum = 0.039 (at node 4)
	maximum = 0.0575 (at node 14)
Accepted flit rate average= 0.048
	minimum = 0.0405 (at node 1)
	maximum = 0.0585 (at node 2)
Injected packet length average = 1
Accepted packet length average = 1
Total in-flight flits = 11 (11 measured)
latency change    = 0.00686854
throughput change = 0.0377604
Class 0:
Packet latency average = 19.7095
	minimum = 7
	maximum = 38
Network latency average = 19.7095
	minimum = 7
	maximum = 38
Slowest packet = 60888
Flit latency average = 19.7182
	minimum = 7
	maximum = 38
Slowest flit = 60888
Fragmentation average = 0
	minimum = 0
	maximum = 0
Injected packet rate average = 0.0483958
	minimum = 0.0433333 (at node 4)
	maximum = 0.057 (at node 14)
Accepted packet rate average = 0.0482708
	minimum = 0.0406667 (at node 10)
	maximum = 0.057 (at node 2)
Injected flit rate average = 0.0483958
	minimum = 0.0433333 (at node 4)
	maximum = 0.057 (at node 14)
Accepted flit rate average= 0.0482708
	minimum = 0.0406667 (at node 10)
	maximum = 0.057 (at node 2)
Injected packet length average = 1
Accepted packet length average = 1
Total in-flight flits = 17 (17 measured)
latency change    = 0.00891365
throughput change = 0.0056107
Draining all recorded packets ...
Draining remaining packets ...
Time taken is 6048 cycles
Class 0:
Packet latency average = 19.6144
	minimum = 7
	maximum = 37
Network latency average = 19.6144
	minimum = 7
	maximum = 37
Slowest packet = 62854
Flit latency average = 19.6144
	minimum = 7
	maximum = 37
Slowest flit = 62854
Fragmentation average = 0
	minimum = 0
	maximum = 0
Injected packet rate average = 0.0506875
	minimum = 0.037 (at node 8)
	maximum = 0.062 (at node 5)
Accepted packet rate average = 0.0494375
	minimum = 0.04 (at node 4)
	maximum = 0.058 (at node 11)
Injected flit rate average = 0.0506875
	minimum = 0.037 (at node 8)
	maximum = 0.062 (at node 5)
Accepted flit rate average= 0.0494375
	minimum = 0.04 (at node 4)
	maximum = 0.058 (at node 11)
Injected packet length average = 1
Accepted packet length average = 1
Total in-flight flits = 20 (0 measured)
latency change    = 1
throughput change = 1
Class 0:
Packet latency average = 20.0432
	minimum = 7
	maximum = 38
Network latency average = 20.0432
	minimum = 7
	maximum = 38
Slowest packet = 64171
Flit latency average = 20.0432
	minimum = 7
	maximum = 38
Slowest flit = 64171
Fragmentation average = 0
	minimum = 0
	maximum = 0
Injected packet rate average = 0.0504062
	minimum = 0.0425 (at node 7)
	maximum = 0.056 (at node 15)
Accepted packet rate average = 0.0499687
	minimum = 0.0405 (at node 6)
	maximum = 0.0585 (at node 8)
Injected flit rate average = 0.0504062
	minimum = 0.0425 (at node 7)
	maximum = 0.056 (at node 15)
Accepted flit rate average= 0.0499687
	minimum = 0.0405 (at node 6)
	maximum = 0.0585 (at node 8)
Injected packet length average = 1
Accepted packet length average = 1
Total in-flight flits = 14 (0 measured)
latency change    = 0.0213908
throughput change = 0.0106316
Class 0:
Packet latency average = 19.3217
	minimum = 7
	maximum = 37
Network latency average = 19.3217
	minimum = 7
	maximum = 37
Slowest packet = 64407
Flit latency average = 19.3217
	minimum = 7
	maximum = 37
Slowest flit = 64407
Fragmentation average = 0
	minimum = 0
	maximum = 0
Injected packet rate average = 0.052
	minimum = 0.041 (at node 6)
	maximum = 0.06 (at node 15)
Accepted packet rate average = 0.051875
	minimum = 0.039 (at node 2)
	maximum = 0.069 (at node 4)
Injected flit rate average = 0.052
	minimum = 0.041 (at node 6)
	maximum = 0.06 (at node 15)
Accepted flit rate average= 0.051875
	minimum = 0.039 (at node 2)
	maximum = 0.069 (at node 4)
Injected packet length average = 1
Accepted packet length average = 1
Total in-flight flits = 16 (0 measured)
latency change    = 0.0373397
throughput change = 0.036747
Warmed up ...Time used is 3000 cycles
Class 0:
Packet latency average = 20.3783
	minimum = 7
	maximum = 38
Network latency average = 20.3783
	minimum = 7
	maximum = 38
Slowest packet = 65507
Flit latency average = 20.4182
	minimum = 7
	maximum = 38
Slowest flit = 65507
Fragmentation average = 0
	minimum = 0
	maximum = 0
Injected packet rate average = 0.0500625
	minimum = 0.035 (at node 5)
	maximum = 0.057 (at node 8)
Accepted packet rate average = 0.0500625
	minimum = 0.037 (at node 8)
	maximum = 0.064 (at node 15)
Injected flit rate average = 0.0500625
	minimum = 0.035 (at node 5)
	maximum = 0.057 (at node 8)
Accepted flit rate average= 0.0500625
	minimum = 0.037 (at node 8)
	maximum = 0.064 (at node 15)
Injected packet length average = 1
Accepted packet length average = 1
Total in-flight flits = 16 (16 measured)
latency change    = 0.051852
throughput change = 0.0362047
Class 0:
Packet latency average = 19.9464
	minimum = 7
	maximum = 38
Network latency average = 19.9464
	minimum = 7
	maximum = 38
Slowest packet = 65507
Flit latency average = 19.971
	minimum = 7
	maximum = 38
Slowest flit = 65507
Fragmentation average = 0
	minimum = 0
	maximum = 0
Injected packet rate average = 0.0495
	minimum = 0.044 (at node 6)
	maximum = 0.054 (at node 0)
Accepted packet rate average = 0.0495
	minimum = 0.0415 (at node 5)
	maximum = 0.0545 (at node 11)
Injected flit rate average = 0.0495
	minimum = 0.044 (at node 6)
	maximum = 0.054 (at node 0)
Accepted flit rate average= 0.0495
	minimum = 0.0415 (at node 5)
	maximum = 0.0545 (at node 11)
Injected packet length average = 1
Accepted packet length average = 1
Total in-flight flits = 16 (16 measured)
latency change    = 0.0216538
throughput change = 0.0113636
Class 0:
Packet latency average = 19.6875
	minimum = 7
	maximum = 38
Network latency average = 19.6875
	minimum = 7
	maximum = 38
Slowest packet = 65507
Flit latency average = 19.7053
	minimum = 7
	maximum = 38
Slowest flit = 65507
Fragmentation average = 0
	minimum = 0
	maximum = 0
Injected packet rate average = 0.0504375
	minimum = 0.0446667 (at node 6)
	maximum = 0.0553333 (at node 0)
Accepted packet rate average = 0.0503958
	minimum = 0.045 (at node 0)
	maximum = 0.06 (at node 9)
Injected flit rate average = 0.0504375
	minimum = 0.0446667 (at node 6)
	maximum = 0.0553333 (at node 0)
Accepted flit rate average= 0.0503958
	minimum = 0.045 (at node 0)
	maximum = 0.06 (at node 9)
Injected packet length average = 1
Accepted packet length average = 1
Total in-flight flits = 18 (18 measured)
latency change    = 0.0131533
throughput change = 0.0177759
Class 0:
Packet latency average = 19.6749
	minimum = 7
	maximum = 38
Network latency average = 19.6749
	minimum = 7
	maximum = 38
Slowest packet = 65507
Flit latency average = 19.6882
	minimum = 7
	maximum = 38
Slowest flit = 65507
Fragmentation average = 0
	minimum = 0
	maximum = 0
Injected packet rate average = 0.0504375
	minimum = 0.047 (at node 6)
	maximum = 0.05625 (at node 2)
Accepted packet rate average = 0.0504687
	minimum = 0.0445 (at node 12)
	maximum = 0.05375 (at node 3)
Injected flit rate average = 0.0504375
	minimum = 0.047 (at node 6)
	maximum = 0.05625 (at node 2)
Accepted flit rate average= 0.0504687
	minimum = 0.0445 (at node 12)
	maximum = 0.05375 (at node 3)
Injected packet length average = 1
Accepted packet length average = 1
Total in-flight flits = 14 (14 measured)
latency change    = 0.000641123
throughput change = 0.00144479
Draining all recorded packets ...
Draining remaining packets ...
Time taken is 7055 cycles
Class 0:
Packet latency average = 19.3139
	minimum = 7
	maximum = 37
Network latency average = 19.3139
	minimum = 7
	maximum = 37
Slowest packet = 68504
Flit latency average = 19.3139
	minimum = 7
	maximum = 37
Slowest flit = 68504
Fragmentation average = 0
	minimum = 0
	maximum = 0
Injected packet rate average = 0.0503125
	minimum = 0.027 (at node 7)
	maximum = 0.064 (at node 8)
Accepted packet rate average = 0.049375
	minimum = 0.041 (at node 1)
	maximum = 0.064 (at node 3)
Injected flit rate average = 0.0503125
	minimum = 0.027 (at node 7)
	maximum = 0.064 (at node 8)
Accepted flit rate average= 0.049375
	minimum = 0.041 (at node 1)
	maximum = 0.064 (at node 3)
Injected packet length average = 1
Accepted packet length average = 1
Total in-flight flits = 15 (0 measured)
latency change    = 1
throughput change = 1
Class 0:
Packet latency average = 19.3171
	minimum = 7
	maximum = 37
Network latency average = 19.3171
	minimum = 7
	maximum = 37
Slowest packet = 68504
Flit latency average = 19.3171
	minimum = 7
	maximum = 37
Slowest flit = 68504
Fragmentation average = 0
	minimum = 0
	maximum = 0
Injected packet rate average = 0.0500625
	minimum = 0.0365 (at node 7)
	maximum = 0.059 (at node 3)
Accepted packet rate average = 0.0494687
	minimum = 0.0415 (at node 13)
	maximum = 0.061 (at node 2)
Injected flit rate average = 0.0500625
	minimum = 0.0365 (at node 7)
	maximum = 0.059 (at node 3)
Accepted flit rate average= 0.0494687
	minimum = 0.0415 (at node 13)
	maximum = 0.061 (at node 2)
Injected packet length average = 1
Accepted packet length average = 1
Total in-flight flits = 19 (0 measured)
latency change    = 0.000165415
throughput change = 0.00189514
Class 0:
Packet latency average = 19.556
	minimum = 7
	maximum = 38
Network latency average = 19.556
	minimum = 7
	maximum = 38
Slowest packet = 70694
Flit latency average = 19.556
	minimum = 7
	maximum = 38
Slowest flit = 70694
Fragmentation average = 0
	minimum = 0
	maximum = 0
Injected packet rate average = 0.049375
	minimum = 0.039 (at node 15)
	maximum = 0.058 (at node 4)
Accepted packet rate average = 0.0496875
	minimum = 0.041 (at node 6)
	maximum = 0.059 (at node 1)
Injected flit rate average = 0.049375
	minimum = 0.039 (at node 15)
	maximum = 0.058 (at node 4)
Accepted flit rate average= 0.0496875
	minimum = 0.041 (at node 6)
	maximum = 0.059 (at node 1)
Injected packet length average = 1
Accepted packet length average = 1
Total in-flight flits = 14 (0 measured)
latency change    = 0.0122139
throughput change = 0.00440252
Warmed up ...Time used is 3000 cycles
Class 0:
Packet latency average = 19.6294
	minimum = 7
	maximum = 38
Network latency average = 19.6294
	minimum = 7
	maximum = 38
Slowest packet = 71087
Flit latency average = 19.6832
	minimum = 7
	maximum = 38
Slowest flit = 71087
Fragmentation average = 0
	minimum = 0
	maximum = 0
Injected packet rate average = 0.0469375
	minimum = 0.035 (at node 15)
	maximum = 0.061 (at node 10)
Accepted packet rate average = 0.04675
	minimum = 0.032 (at node 15)
	maximum = 0.052 (at node 2)
Injected flit rate average = 0.0469375
	minimum = 0.035 (at node 15)
	maximum = 0.061 (at node 10)
Accepted flit rate average= 0.04675
	minimum = 0.032 (at node 15)
	maximum = 0.052 (at node 2)
Injected packet length average = 1
Accepted packet length average = 1
Total in-flight flits = 17 (17 measured)
latency change    = 0.00374198
throughput change = 0.0628342
Class 0:
Packet latency average = 19.246
	minimum = 7
	maximum = 38
Network latency average = 19.246
	minimum = 7
	maximum = 38
Slowest packet = 71087
Flit latency average = 19.2747
	minimum = 7
	maximum = 38
Slowest flit = 71087
Fragmentation average = 0
	minimum = 0
	maximum = 0
Injected packet rate average = 0.0495625
	minimum = 0.0445 (at node 4)
	maximum = 0.061 (at node 10)
Accepted packet rate average = 0.0495937
	minimum = 0.04 (at node 15)
	maximum = 0.055 (at node 13)
Injected flit rate average = 0.0495625
	minimum = 0.0445 (at node 4)
	maximum = 0.061 (at node 10)
Accepted flit rate average= 0.0495937
	minimum = 0.04 (at node 15)
	maximum = 0.055 (at node 13)
Injected packet length average = 1
Accepted packet length average = 1
Total in-flight flits = 13 (13 measured)
latency change    = 0.0199211
throughput change = 0.0573409
Class 0:
Packet latency average = 19.5332
	minimum = 7
	maximum = 38
Network latency average = 19.5332
	minimum = 7
	maximum = 38
Slowest packet = 71087
Flit latency average = 19.5504
	minimum = 7
	maximum = 38
Slowest flit = 71087
Fragmentation average = 0
	minimum = 0
	maximum = 0
Injected packet rate average = 0.0503542
	minimum = 0.0446667 (at node 4)
	maximum = 0.057 (at node 10)
Accepted packet rate average = 0.0501875
	minimum = 0.043 (at node 9)
	maximum = 0.0563333 (at node 13)
Injected flit rate average = 0.0503542
	minimum = 0.0446667 (at node 4)
	maximum = 0.057 (at node 10)
Accepted flit rate average= 0.0501875
	minimum = 0.043 (at node 9)
	maximum = 0.0563333 (at node 13)
Injected packet length average = 1
Accepted packet length average = 1
Total in-flight flits = 22 (22 measured)
latency change    = 0.0147015
throughput change = 0.0118306
Class 0:
Packet latency average = 19.5453
	minimum = 7
	maximum = 38
Network latency average = 19.5453
	minimum = 7
	maximum = 38
Slowest packet = 71087
Flit latency average = 19.5583
	minimum = 7
	maximum = 38
Slowest flit = 71087
Fragmentation average = 0
	minimum = 0
	maximum = 0
Injected packet rate average = 0.0495781
	minimum = 0.04325 (at node 14)
	maximum = 0.05425 (at node 10)
Accepted packet rate average = 0.0495937
	minimum = 0.041 (at node 9)
	maximum = 0.056 (at node 8)
Injected flit rate average = 0.0495781
	minimum = 0.04325 (at node 14)
	maximum = 0.05425 (at node 10)
[...]
	maximum = 0.065 (at node 15)
Accepted packet rate average = 0.0495625
	minimum = 0.043 (at node 0)
	maximum = 0.057 (at node 11)
Injected flit rate average = 0.0494375
	minimum = 0.04 (at node 0)
	maximum = 0.065 (at node 15)
Accepted flit rate average= 0.0495625
	minimum = 0.043 (at node 0)
	maximum = 0.057 (at node 11)
Injected packet length average = 1
Accepted packet length average = 1
Total in-flight flits = 17 (0 measured)
latency change    = 0.0373454
throughput change = 0.0485498
Warmed up ...Time used is 3000 cycles
Class 0:
Packet latency average = 19.7826
	minimum = 7
	maximum = 37
Network latency average = 19.7826
	minimum = 7
	maximum = 37
Slowest packet = 495894
Flit latency average = 19.7809
	minimum = 7
	maximum = 37
Slowest flit = 495894
Fragmentation average = 0
	minimum = 0
	maximum = 0
Injected packet rate average = 0.05025
	minimum = 0.042 (at node 6)
	maximum = 0.073 (at node 13)
Accepted packet rate average = 0.0505
	minimum = 0.041 (at node 7)
	maximum = 0.072 (at node 15)
Injected flit rate average = 0.05025
	minimum = 0.042 (at node 6)
	maximum = 0.073 (at node 13)
Accepted flit rate average= 0.0505
	minimum = 0.041 (at node 7)
	maximum = 0.072 (at node 15)
Injected packet length average = 1
Accepted packet length average = 1
Total in-flight flits = 13 (13 measured)
latency change    = 0.0147528
throughput change = 0.0185644
Class 0:
Packet latency average = 19.559
	minimum = 7
	maximum = 38
Network latency average = 19.559
	minimum = 7
	maximum = 38
Slowest packet = 497160
Flit latency average = 19.5605
	minimum = 7
	maximum = 38
Slowest flit = 497160
Fragmentation average = 0
	minimum = 0
	maximum = 0
Injected packet rate average = 0.0499687
	minimum = 0.042 (at node 4)
	maximum = 0.063 (at node 13)
Accepted packet rate average = 0.0500625
	minimum = 0.041 (at node 2)
	maximum = 0.059 (at node 15)
Injected flit rate average = 0.0499687
	minimum = 0.042 (at node 4)
	maximum = 0.063 (at node 13)
Accepted flit rate average= 0.0500625
	minimum = 0.041 (at node 2)
	maximum = 0.059 (at node 15)
Injected packet length average = 1
Accepted packet length average = 1
Total in-flight flits = 14 (14 measured)
latency change    = 0.0114302
throughput change = 0.00873908
Class 0:
Packet latency average = 19.5795
	minimum = 7
	maximum = 38
Network latency average = 19.5795
	minimum = 7
	maximum = 38
Slowest packet = 497160
Flit latency average = 19.5804
	minimum = 7
	maximum = 38
Slowest flit = 497160
Fragmentation average = 0
	minimum = 0
	maximum = 0
Injected packet rate average = 0.0497292
	minimum = 0.0443333 (at node 4)
	maximum = 0.0576667 (at node 13)
Accepted packet rate average = 0.0498542
	minimum = 0.0393333 (at node 2)
	maximum = 0.0566667 (at node 10)
Injected flit rate average = 0.0497292
	minimum = 0.0443333 (at node 4)
	maximum = 0.0576667 (at node 13)
Accepted flit rate average= 0.0498542
	minimum = 0.0393333 (at node 2)
	maximum = 0.0566667 (at node 10)
Injected packet length average = 1
Accepted packet length average = 1
Total in-flight flits = 11 (11 measured)
latency change    = 0.00104982
throughput change = 0.00417885
Draining all recorded packets ...
Draining remaining packets ...
Time taken is 6054 cycles
Class 0:
Packet latency average = 19.5139
	minimum = 7
	maximum = 37
Network latency average = 19.5139
	minimum = 7
	maximum = 37
Slowest packet = 498372
Flit latency average = 19.5139
	minimum = 7
	maximum = 37
Slowest flit = 498372
Fragmentation average = 0
	minimum = 0
	maximum = 0
Injected packet rate average = 0.050875
	minimum = 0.04 (at node 9)
	maximum = 0.069 (at node 1)
Accepted packet rate average = 0.049375
	minimum = 0.031 (at node 7)
	maximum = 0.062 (at node 0)
Injected flit rate average = 0.050875
	minimum = 0.04 (at node 9)
	maximum = 0.069 (at node 1)
Accepted flit rate average= 0.049375
	minimum = 0.031 (at node 7)
	maximum = 0.062 (at node 0)
Injected packet length average = 1
Accepted packet length average = 1
Total in-flight flits = 24 (0 measured)
latency change    = 1
throughput change = 1
Class 0:
Packet latency average = 19.6029
	minimum = 7
	maximum = 38
Network latency average = 19.6029
	minimum = 7
	maximum = 38
Slowest packet = 499079
Flit latency average = 19.6029
	minimum = 7
	maximum = 38
Slowest flit = 499079
Fragmentation average = 0
	minimum = 0
	maximum = 0
Injected packet rate average = 0.0498125
	minimum = 0.043 (at node 9)
	maximum = 0.0595 (at node 1)
Accepted packet rate average = 0.0491875
	minimum = 0.042 (at node 7)
	maximum = 0.056 (at node 9)
Injected flit rate average = 0.0498125
	minimum = 0.043 (at node 9)
	maximum = 0.0595 (at node 1)
Accepted flit rate average= 0.0491875
	minimum = 0.042 (at node 7)
	maximum = 0.056 (at node 9)
Injected packet length average = 1
Accepted packet length average = 1
Total in-flight flits = 20 (0 measured)
latency change    = 0.00454006
throughput change = 0.00381194
Class 0:
Packet latency average = 19.6809
	minimum = 7
	maximum = 37
Network latency average = 19.6796
	minimum = 7
	maximum = 37
Slowest packet = 499864
Flit latency average = 19.6796
	minimum = 7
	maximum = 37
Slowest flit = 499864
Fragmentation average = 0
	minimum = 0
	maximum = 0
Injected packet rate average = 0.0495
	minimum = 0.034 (at node 3)
	maximum = 0.061 (at node 14)
Accepted packet rate average = 0.0499375
	minimum = 0.037 (at node 4)
	maximum = 0.059 (at node 7)
Injected flit rate average = 0.0495
	minimum = 0.034 (at node 3)
	maximum = 0.061 (at node 14)
Accepted flit rate average= 0.0499375
	minimum = 0.037 (at node 4)
	maximum = 0.059 (at node 7)
Injected packet length average = 1
Accepted packet length average = 1
Total in-flight flits = 13 (0 measured)
latency change    = 0.00395961
throughput change = 0.0150188
Warmed up ...Time used is 3000 cycles
Class 0:
Packet latency average = 20.1053
	minimum = 7
	maximum = 38
Network latency average = 20.1053
	minimum = 7
	maximum = 38
Slowest packet = 500943
Flit latency average = 20.1698
	minimum = 7
	maximum = 38
Slowest flit = 500943
Fragmentation average = 0
	minimum = 0
	maximum = 0
Injected packet rate average = 0.0504375
	minimum = 0.035 (at node 6)
	maximum = 0.063 (at node 11)
Accepted packet rate average = 0.0500625
	minimum = 0.042 (at node 6)
	maximum = 0.058 (at node 0)
Injected flit rate average = 0.0504375
	minimum = 0.035 (at node 6)
	maximum = 0.063 (at node 11)
Accepted flit rate average= 0.0500625
	minimum = 0.042 (at node 6)
	maximum = 0.058 (at node 0)
Injected packet length average = 1
Accepted packet length average = 1
Total in-flight flits = 19 (19 measured)
latency change    = 0.0211128
throughput change = 0.00249688
Class 0:
Packet latency average = 19.8267
	minimum = 7
	maximum = 38
Network latency average = 19.8267
	minimum = 7
	maximum = 38
Slowest packet = 500943
Flit latency average = 19.8609
	minimum = 7
	maximum = 38
Slowest flit = 500943
Fragmentation average = 0
	minimum = 0
	maximum = 0
Injected packet rate average = 0.0506562
	minimum = 0.0375 (at node 6)
	maximum = 0.0595 (at node 11)
Accepted packet rate average = 0.0505312
	minimum = 0.0405 (at node 9)
	maximum = 0.056 (at node 10)
Injected flit rate average = 0.0506562
	minimum = 0.0375 (at node 6)
	maximum = 0.0595 (at node 11)
Accepted flit rate average= 0.0505312
	minimum = 0.0405 (at node 9)
	maximum = 0.056 (at node 10)
Injected packet length average = 1
Accepted packet length average = 1
Total in-flight flits = 17 (17 measured)
latency change    = 0.0140541
throughput change = 0.00927644
Class 0:
Packet latency average = 19.6368
	minimum = 7
	maximum = 38
Network latency average = 19.6368
	minimum = 7
	maximum = 38
Slowest packet = 500943
Flit latency average = 19.6606
	minimum = 7
	maximum = 38
Slowest flit = 500943
Fragmentation average = 0
	minimum = 0
	maximum = 0
Injected packet rate average = 0.0505833
	minimum = 0.0433333 (at node 15)
	maximum = 0.057 (at node 7)
Accepted packet rate average = 0.0505208
	minimum = 0.0426667 (at node 9)
	maximum = 0.0603333 (at node 10)
Injected flit rate average = 0.0505833
	minimum = 0.0433333 (at node 15)
	maximum = 0.057 (at node 7)
Accepted flit rate average= 0.0505208
	minimum = 0.0426667 (at node 9)
	maximum = 0.0603333 (at node 10)
Injected packet length average = 1
Accepted packet length average = 1
Total in-flight flits = 16 (16 measured)
latency change    = 0.00966895
throughput change = 0.000206186
Draining all recorded packets ...
Draining remaining packets ...
Time taken is 6055 cycles
Class 0:
Packet latency average = 19.6454
	minimum = 7
	maximum = 38
Network latency average = 19.6454
	minimum = 7
	maximum = 38
Slowest packet = 503418
Flit latency average = 19.6454
	minimum = 7
	maximum = 38
Slowest flit = 503418
Fragmentation average = 0
	minimum = 0
	maximum = 0
Injected packet rate average = 0.05275
	minimum = 0.041 (at node 3)
	maximum = 0.061 (at node 2)
Accepted packet rate average = 0.052
	minimum = 0.042 (at node 11)
	maximum = 0.069 (at node 5)
Injected flit rate average = 0.05275
	minimum = 0.041 (at node 3)
	maximum = 0.061 (at node 2)
Accepted flit rate average= 0.052
	minimum = 0.042 (at node 11)
	maximum = 0.069 (at node 5)
Injected packet length average = 1
Accepted packet length average = 1
Total in-flight flits = 12 (0 measured)
latency change    = 1
throughput change = 1
Class 0:
Packet latency average = 19.587
	minimum = 7
	maximum = 38
Network latency average = 19.587
	minimum = 7
	maximum = 38
Slowest packet = 503418
Flit latency average = 19.587
	minimum = 7
	maximum = 38
Slowest flit = 503418
Fragmentation average = 0
	minimum = 0
	maximum = 0
Injected packet rate average = 0.0525938
	minimum = 0.0455 (at node 3)
	maximum = 0.065 (at node 15)
Accepted packet rate average = 0.0520625
	minimum = 0.0435 (at node 13)
	maximum = 0.063 (at node 5)
Injected flit rate average = 0.0525938
	minimum = 0.0455 (at node 3)
	maximum = 0.065 (at node 15)
Accepted flit rate average= 0.0520625
	minimum = 0.0435 (at node 13)
	maximum = 0.063 (at node 5)
Injected packet length average = 1
Accepted packet length average = 1
Total in-flight flits = 17 (0 measured)
latency change    = 0.00298146
throughput change = 0.00120048
Class 0:
Packet latency average = 19.7407
	minimum = 7
	maximum = 38
Network latency average = 19.7407
	minimum = 7
	maximum = 38
Slowest packet = 504784
Flit latency average = 19.7407
	minimum = 7
	maximum = 38
Slowest flit = 504784
Fragmentation average = 0
	minimum = 0
	maximum = 0
Injected packet rate average = 0.049125
	minimum = 0.04 (at node 0)
	maximum = 0.058 (at node 6)
Accepted packet rate average = 0.0489375
	minimum = 0.039 (at node 7)
	maximum = 0.064 (at node 8)
Injected flit rate average = 0.049125
	minimum = 0.04 (at node 0)
	maximum = 0.058 (at node 6)
Accepted flit rate average= 0.0489375
	minimum = 0.039 (at node 7)
	maximum = 0.064 (at node 8)
Injected packet length average = 1
Accepted packet length average = 1
Total in-flight flits = 20 (0 measured)
latency change    = 0.00778623
throughput change = 0.063857
Warmed up ...Time used is 3000 cycles
Class 0:
Packet latency average = 19.3853
	minimum = 7
	maximum = 38
Network latency average = 19.3853
	minimum = 7
	maximum = 38
Slowest packet = 505659
Flit latency average = 19.4208
	minimum = 7
	maximum = 38
Slowest flit = 505659
Fragmentation average = 0
	minimum = 0
	maximum = 0
Injected packet rate average = 0.048
	minimum = 0.041 (at node 3)
	maximum = 0.055 (at node 6)
Accepted packet rate average = 0.048125
	minimum = 0.042 (at node 10)
	maximum = 0.057 (at node 7)
Injected flit rate average = 0.048
	minimum = 0.041 (at node 3)
	maximum = 0.055 (at node 6)
Accepted flit rate average= 0.048125
	minimum = 0.042 (at node 10)
	maximum = 0.057 (at node 7)
Injected packet length average = 1
Accepted packet length average = 1
Total in-flight flits = 18 (18 measured)
latency change    = 0.0183338
throughput change = 0.0168831
Class 0:
Packet latency average = 19.3331
	minimum = 7
	maximum = 38
Network latency average = 19.3331
	minimum = 7
	maximum = 38
Slowest packet = 505659
Flit latency average = 19.3516
	minimum = 7
	maximum = 38
Slowest flit = 505659
Fragmentation average = 0
	minimum = 0
	maximum = 0
Injected packet rate average = 0.0475937
	minimum = 0.038 (at node 3)
	maximum = 0.054 (at node 5)
Accepted packet rate average = 0.0478125
	minimum = 0.0415 (at node 3)
	maximum = 0.0535 (at node 11)
Injected flit rate average = 0.0475937
	minimum = 0.038 (at node 3)
	maximum = 0.054 (at node 5)
Accepted flit rate average= 0.0478125
	minimum = 0.0415 (at node 3)
	maximum = 0.0535 (at node 11)
Injected packet length average = 1
Accepted packet length average = 1
Total in-flight flits = 13 (13 measured)
latency change    = 0.0027011
throughput change = 0.00653595
Class 0:
Packet latency average = 19.2982
	minimum = 7
	maximum = 38
Network latency average = 19.2982
	minimum = 7
	maximum = 38
Slowest packet = 505659
Flit latency average = 19.3109
	minimum = 7
	maximum = 38
Slowest flit = 505659
Fragmentation average = 0
	minimum = 0
	maximum = 0
Injected packet rate average = 0.0474375
	minimum = 0.039 (at node 3)
	maximum = 0.0546667 (at node 7)
Accepted packet rate average = 0.0476458
	minimum = 0.0423333 (at node 1)
	maximum = 0.054 (at node 7)
Injected flit rate average = 0.0474375
	minimum = 0.039 (at node 3)
	maximum = 0.0546667 (at node 7)
Accepted flit rate average= 0.0476458
	minimum = 0.0423333 (at node 1)
	maximum = 0.054 (at node 7)
Injected packet length average = 1
Accepted packet length average = 1
Total in-flight flits = 10 (10 measured)
latency change    = 0.00180956
throughput change = 0.00349803
Draining all recorded packets ...
Draining remaining packets ...
Time taken is 6055 cycles
Class 0:
Packet latency average = 19.3393
	minimum = 7
	maximum = 38
Network latency average = 19.3393
	minimum = 7
	maximum = 38
Slowest packet = 508122
Flit latency average = 19.3393
	minimum = 7
	maximum = 38
Slowest flit = 508122
Fragmentation average = 0
	minimum = 0
	maximum = 0
Injected packet rate average = 0.0498125
	minimum = 0.039 (at node 3)
	maximum = 0.063 (at node 9)
Accepted packet rate average = 0.049
	minimum = 0.037 (at node 0)
	maximum = 0.063 (at node 11)
Injected flit rate average = 0.0498125
	minimum = 0.039 (at node 3)
	maximum = 0.063 (at node 9)
Accepted flit rate average= 0.049
	minimum = 0.037 (at node 0)
	maximum = 0.063 (at node 11)
Injected packet length average = 1
Accepted packet length average = 1
Total in-flight flits = 13 (0 measured)
latency change    = 1
throughput change = 1
Class 0:
Packet latency average = 19.3486
	minimum = 7
	maximum = 38
Network latency average = 19.3486
	minimum = 7
	maximum = 38
Slowest packet = 508122
Flit latency average = 19.3486
	minimum = 7
	maximum = 38
Slowest flit = 508122
Fragmentation average = 0
	minimum = 0
	maximum = 0
Injected packet rate average = 0.049875
	minimum = 0.0425 (at node 1)
	maximum = 0.056 (at node 15)
Accepted packet rate average = 0.049125
	minimum = 0.0425 (at node 0)
	maximum = 0.058 (at node 6)
Injected flit rate average = 0.049875
	minimum = 0.0425 (at node 1)
	maximum = 0.056 (at node 15)
Accepted flit rate average= 0.049125
	minimum = 0.0425 (at node 0)
	maximum = 0.058 (at node 6)
Injected packet length average = 1
Accepted packet length average = 1
Total in-flight flits = 24 (0 measured)
latency change    = 0.00048142
throughput change = 0.00254453
Class 0:
Packet latency average = 19.2028
	minimum = 7
	maximum = 38
Network latency average = 19.2028
	minimum = 7
	maximum = 38
Slowest packet = 509697
Flit latency average = 19.2028
	minimum = 7
	maximum = 38
Slowest flit = 509697
Fragmentation average = 0
	minimum = 0
	maximum = 0
Injected packet rate average = 0.0490625
	minimum = 0.036 (at node 5)
	maximum = 0.062 (at node 10)
Accepted packet rate average = 0.0499375
	minimum = 0.033 (at node 7)
	maximum = 0.061 (at node 2)
Injected flit rate average = 0.0490625
	minimum = 0.036 (at node 5)
	maximum = 0.062 (at node 10)
Accepted flit rate average= 0.0499375
	minimum = 0.033 (at node 7)
	maximum = 0.061 (at node 2)
Injected packet length average = 1
Accepted packet length average = 1
Total in-flight flits = 10 (0 measured)
latency change    = 0.00759511
throughput change = 0.0162703
Warmed up ...Time used is 3000 cycles
Class 0:
Packet latency average = 19.769
	minimum = 7
	maximum = 38
Network latency average = 19.769
	minimum = 7
	maximum = 38
Slowest packet = 510359
Flit latency average = 19.7776
	minimum = 7
	maximum = 38
Slowest flit = 510359
Fragmentation average = 0
	minimum = 0
	maximum = 0
Injected packet rate average = 0.053375
	minimum = 0.042 (at node 7)
	maximum = 0.068 (at node 1)
Accepted packet rate average = 0.0525625
	minimum = 0.031 (at node 1)
	maximum = 0.068 (at node 8)
Injected flit rate average = 0.053375
	minimum = 0.042 (at node 7)
	maximum = 0.068 (at node 1)
Accepted flit rate average= 0.0525625
	minimum = 0.031 (at node 1)
	maximum = 0.068 (at node 8)
Injected packet length average = 1
Accepted packet length average = 1
Total in-flight flits = 23 (23 measured)
latency change    = 0.0286409
throughput change = 0.0499405
Class 0:
Packet latency average = 19.6478
	minimum = 7
	maximum = 38
Network latency average = 19.6478
	minimum = 7
	maximum = 38
Slowest packet = 510359
Flit latency average = 19.6529
	minimum = 7
	maximum = 38
Slowest flit = 510359
Fragmentation average = 0
	minimum = 0
	maximum = 0
Injected packet rate average = 0.0519063
	minimum = 0.045 (at node 7)
	maximum = 0.0625 (at node 9)
Accepted packet rate average = 0.0515938
	minimum = 0.042 (at node 12)
	maximum = 0.0605 (at node 10)
Injected flit rate average = 0.0519063
	minimum = 0.045 (at node 7)
	maximum = 0.0625 (at node 9)
Accepted flit rate average= 0.0515938
	minimum = 0.042 (at node 12)
	maximum = 0.0605 (at node 10)
Injected packet length average = 1
Accepted packet length average = 1
Total in-flight flits = 20 (20 measured)
latency change    = 0.00616748
throughput change = 0.0187765
Class 0:
Packet latency average = 19.4041
	minimum = 7
	maximum = 38
Network latency average = 19.4041
	minimum = 7
	maximum = 38
Slowest packet = 510359
Flit latency average = 19.4086
	minimum = 7
	maximum = 38
Slowest flit = 510359
Fragmentation average = 0
	minimum = 0
	maximum = 0
Injected packet rate average = 0.0507083
	minimum = 0.044 (at node 11)
	maximum = 0.0603333 (at node 9)
Accepted packet rate average = 0.050625
	minimum = 0.042 (at node 12)
	maximum = 0.0596667 (at node 2)
Injected flit rate average = 0.0507083
	minimum = 0.044 (at node 11)
	maximum = 0.0603333 (at node 9)
Accepted flit rate average= 0.050625
	minimum = 0.042 (at node 12)
	maximum = 0.0596667 (at node 2)
Injected packet length average = 1
Accepted packet length average = 1
Total in-flight flits = 14 (14 measured)
latency change    = 0.0125563
throughput change = 0.0191358
Draining all recorded packets ...
Draining remaining packets ...
Time taken is 6051 cycles
====== Overall Traffic Statistics ======
====== Traffic class 0 ======
Packet latency average = 19.541 (100 samples)
	minimum = 7 (100 samples)
	maximum = 38.24 (100 samples)
Network latency average = 19.5409 (100 samples)
	minimum = 7 (100 samples)
	maximum = 38.24 (100 samples)
Flit latency average = 19.5544 (100 samples)
	minimum = 7 (100 samples)
	maximum = 38.26 (100 samples)
Fragmentation average = 0 (100 samples)
	minimum = 0 (100 samples)
	maximum = 0 (100 samples)
Injected packet rate average = 0.0501773 (100 samples)
	minimum = 0.0437082 (100 samples)
	maximum = 0.0569858 (100 samples)
Accepted packet rate average = 0.0501877 (100 samples)
	minimum = 0.0432022 (100 samples)
	maximum = 0.0572573 (100 samples)
Injected flit rate average = 0.0501773 (100 samples)
	minimum = 0.0437082 (100 samples)
	maximum = 0.0569858 (100 samples)
Accepted flit rate average = 0.0501877 (100 samples)
	minimum = 0.0432022 (100 samples)
	maximum = 0.0572573 (100 samples)
Injected packet size average = 1 (100 samples)
Accepted packet size average = 1 (100 samples)
Hops average = 3.49942 (100 samples)
Total run time 7.41441
