BEGIN Configuration File: /tmp/tmpuf0yl1t4.cfg
topology = mesh;
k = 4;
n = 2;
routing_function = planar_adapt;
num_vcs = 4;
vc_buf_size = 4;
wait_for_tail_credit = 1;
vc_allocator = islip;
sw_allocator = islip;
alloc_iters = 1;
credit_delay = 2;
routing_delay = 1;
vc_alloc_delay = 1;
sw_alloc_delay = 1;
input_speedup = 2;
output_speedup = 1;
internal_speedup = 1.0;
traffic = uniform;
packet_size = 1;
sim_type = latency;
injection_rate = 0.02;
warmup_periods = 3;
sample_period = 1000;
sim_count = 100;
seed = 4;

END Configuration File: /tmp/tmpuf0yl1t4.cfg
Class 0:
Packet latency average = 19.0602
	minimum = 7
	maximum = 37
Network latency average = 19.0602
	minimum = 7
	maximum = 37
Slowest packet = 24
Flit latency average = 19.0602
	minimum = 7
	maximum = 37
Slowest flit = 24
Fragmentation average = 0
	minimum = 0
	maximum = 0
Injected packet rate average = 0.021
	minimum = 0.011 (at node 0)
	maximum = 0.032 (at node 5)
Accepted packet rate average = 0.02075
	minimum = 0.016 (at node 1)
	maximum = 0.028 (at node 3)
Injected flit rate average = 0.021
	minimum = 0.011 (at node 0)
	maximum = 0.032 (at node 5)
Accepted flit rate average= 0.02075
	minimum = 0.016 (at node 1)
	maximum = 0.028 (at node 3)
Injected packet length average = 1
Accepted packet length average = 1
Total in-flight flits = 4 (0 measured)
latency change    = 1
throughput change = 1
Class 0:
Packet latency average = 19.4006
	minimum = 7
	maximum = 40
Network latency average = 19.4006
	minimum = 7
	maximum = 40
Slowest packet = 645
Flit latency average = 19.4006
	minimum = 7
	maximum = 40
Slowest flit = 645
Fragmentation average = 0
	minimum = 0
	maximum = 0
Injected packet rate average = 0.0207188
	minimum = 0.0135 (at node 0)
	maximum = 0.025 (at node 5)
Accepted packet rate average = 0.0205938
	minimum = 0.0145 (at node 2)
	maximum = 0.0245 (at node 3)
Injected flit rate average = 0.0207188
	minimum = 0.0135 (at node 0)
	maximum = 0.025 (at node 5)
Accepted flit rate average= 0.0205938
	minimum = 0.0145 (at node 2)
	maximum = 0.0245 (at node 3)
Injected packet length average = 1
Accepted packet length average = 1
Total in-flight flits = 4 (0 measured)
latency change    = 0.0175441
throughput change = 0.00758725
Class 0:
Packet latency average = 19.7377
	minimum = 7
	maximum = 37
Network latency average = 19.7377
	minimum = 7
	maximum = 37
Slowest packet = 700
Flit latency average = 19.7377
	minimum = 7
	maximum = 37
Slowest flit = 700
Fragmentation average = 0
	minimum = 0
	maximum = 0
Injected packet rate average = 0.0204375
	minimum = 0.011 (at node 6)
	maximum = 0.031 (at node 14)
Accepted packet rate average = 0.02025
	minimum = 0.016 (at node 4)
	maximum = 0.024 (at node 9)
Injected flit rate average = 0.0204375
	minimum = 0.011 (at node 6)
	maximum = 0.031 (at node 14)
Accepted flit rate average= 0.02025
	minimum = 0.016 (at node 4)
	maximum = 0.024 (at node 9)
Injected packet length average = 1
Accepted packet length average = 1
Total in-flight flits = 7 (0 measured)
latency change    = 0.0170764
throughput change = 0.0169753
Warmed up ...Time used is 3000 cycles
Class 0:
Packet latency average = 19.1553
	minimum = 7
	maximum = 37
Network latency average = 19.1553
	minimum = 7
	maximum = 37
Slowest packet = 1005
Flit latency average = 19.2658
	minimum = 7
	maximum = 37
Slowest flit = 1005
Fragmentation average = 0
	minimum = 0
	maximum = 0
Injected packet rate average = 0.019875
	minimum = 0.011 (at node 12)
	maximum = 0.028 (at node 6)
Accepted packet rate average = 0.01975
	minimum = 0.014 (at node 11)
	maximum = 0.027 (at node 2)
Injected flit rate average = 0.019875
	minimum = 0.011 (at node 12)
	maximum = 0.028 (at node 6)
Accepted flit rate average= 0.01975
	minimum = 0.014 (at node 11)
	maximum = 0.027 (at node 2)
Injected packet length average = 1
Accepted packet length average = 1
Total in-flight flits = 9 (9 measured)
latency change    = 0.0303996
throughput change = 0.0253165
Class 0:
Packet latency average = 19.4944
	minimum = 7
	maximum = 37
Network latency average = 19.4944
	minimum = 7
	maximum = 37
Slowest packet = 1005
Flit latency average = 19.5459
	minimum = 7
	maximum = 37
Slowest flit = 1005
Fragmentation average = 0
	minimum = 0
	maximum = 0
Injected packet rate average = 0.0197813
	minimum = 0.0115 (at node 4)
	maximum = 0.0265 (at node 13)
Accepted packet rate average = 0.01975
	minimum = 0.017 (at node 8)
	maximum = 0.0245 (at node 10)
Injected flit rate average = 0.0197813
	minimum = 0.0115 (at node 4)
	maximum = 0.0265 (at node 13)
Accepted flit rate average= 0.01975
	minimum = 0.017 (at node 8)
	maximum = 0.0245 (at node 10)
Injected packet length average = 1
Accepted packet length average = 1
Total in-flight flits = 8 (8 measured)
latency change    = 0.0173927
throughput change = 0
Class 0:
Packet latency average = 19.4304
	minimum = 7
	maximum = 37
Network latency average = 19.4304
	minimum = 7
	maximum = 37
Slowest packet = 1005
Flit latency average = 19.4647
	minimum = 7
	maximum = 37
Slowest flit = 1005
Fragmentation average = 0
	minimum = 0
	maximum = 0
Injected packet rate average = 0.0199792
	minimum = 0.0133333 (at node 4)
	maximum = 0.0256667 (at node 6)
Accepted packet rate average = 0.0200417
	minimum = 0.0173333 (at node 8)
	maximum = 0.0236667 (at node 0)
Injected flit rate average = 0.0199792
	minimum = 0.0133333 (at node 4)
	maximum = 0.0256667 (at node 6)
Accepted flit rate average= 0.0200417
	minimum = 0.0173333 (at node 8)
	maximum = 0.0236667 (at node 0)
Injected packet length average = 1
Accepted packet length average = 1
Total in-flight flits = 4 (4 measured)
latency change    = 0.00329554
throughput change = 0.014553
Draining all recorded packets ...
Draining remaining packets ...
Time taken is 6051 cycles
Class 0:
Packet latency average = 19.5868
	minimum = 7
	maximum = 37
Network latency average = 19.5868
	minimum = 7
	maximum = 37
Slowest packet = 1973
Flit latency average = 19.5868
	minimum = 7
	maximum = 37
Slowest flit = 1973
Fragmentation average = 0
	minimum = 0
	maximum = 0
Injected packet rate average = 0.0201875
	minimum = 0.011 (at node 8)
	maximum = 0.028 (at node 10)
Accepted packet rate average = 0.0198125
	minimum = 0.014 (at node 5)
	maximum = 0.03 (at node 1)
Injected flit rate average = 0.0201875
	minimum = 0.011 (at node 8)
	maximum = 0.028 (at node 10)
Accepted flit rate average= 0.0198125
	minimum = 0.014 (at node 5)
	maximum = 0.03 (at node 1)
Injected packet length average = 1
Accepted packet length average = 1
Total in-flight flits = 6 (0 measured)
latency change    = 1
throughput change = 1
Class 0:
Packet latency average = 19.5806
	minimum = 7
	maximum = 38
Network latency average = 19.5806
	minimum = 7
	maximum = 38
Slowest packet = 2573
Flit latency average = 19.5806
	minimum = 7
	maximum = 38
Slowest flit = 2573
Fragmentation average = 0
	minimum = 0
	maximum = 0
Injected packet rate average = 0.0201563
	minimum = 0.013 (at node 2)
	maximum = 0.029 (at node 10)
Accepted packet rate average = 0.0199688
	minimum = 0.017 (at node 3)
	maximum = 0.024 (at node 6)
Injected flit rate average = 0.0201563
	minimum = 0.013 (at node 2)
	maximum = 0.029 (at node 10)
Accepted flit rate average= 0.0199688
	minimum = 0.017 (at node 3)
	maximum = 0.024 (at node 6)
Injected packet length average = 1
Accepted packet length average = 1
Total in-flight flits = 6 (0 measured)
latency change    = 0.000314398
throughput change = 0.00782473
Class 0:
Packet latency average = 19.8025
	minimum = 7
	maximum = 37
Network latency average = 19.8025
	minimum = 7
	maximum = 37
Slowest packet = 2703
Flit latency average = 19.8025
	minimum = 7
	maximum = 37
Slowest flit = 2703
Fragmentation average = 0
	minimum = 0
	maximum = 0
Injected packet rate average = 0.0199375
	minimum = 0.014 (at node 15)
	maximum = 0.03 (at node 7)
Accepted packet rate average = 0.0199375
	minimum = 0.011 (at node 13)
	maximum = 0.034 (at node 11)
Injected flit rate average = 0.0199375
	minimum = 0.014 (at node 15)
	maximum = 0.03 (at node 7)
Accepted flit rate average= 0.0199375
	minimum = 0.011 (at node 13)
	maximum = 0.034 (at node 11)
Injected packet length average = 1
Accepted packet length average = 1
Total in-flight flits = 6 (0 measured)
latency change    = 0.0112063
throughput change = 0.0015674
Warmed up ...Time used is 3000 cycles
Class 0:
Packet latency average = 18.567
	minimum = 7
	maximum = 37
Network latency average = 18.567
	minimum = 7
	maximum = 37
Slowest packet = 2954
Flit latency average = 18.5892
	minimum = 7
	maximum = 37
Slowest flit = 2954
Fragmentation average = 0
	minimum = 0
	maximum = 0
Injected packet rate average = 0.0183125
	minimum = 0.011 (at node 3)
	maximum = 0.028 (at node 12)
Accepted packet rate average = 0.0185625
	minimum = 0.011 (at node 9)
	maximum = 0.027 (at node 13)
Injected flit rate average = 0.0183125
	minimum = 0.011 (at node 3)
	maximum = 0.028 (at node 12)
Accepted flit rate average= 0.0185625
	minimum = 0.011 (at node 9)
	maximum = 0.027 (at node 13)
Injected packet length average = 1
Accepted packet length average = 1
Total in-flight flits = 2 (2 measured)
latency change    = 0.0665426
throughput change = 0.0740741
Class 0:
Packet latency average = 19.0408
	minimum = 7
	maximum = 38
Network latency average = 19.0408
	minimum = 7
	maximum = 38
Slowest packet = 3311
Flit latency average = 19.0471
	minimum = 7
	maximum = 38
Slowest flit = 3311
Fragmentation average = 0
	minimum = 0
	maximum = 0
Injected packet rate average = 0.0184687
	minimum = 0.014 (at node 7)
	maximum = 0.0255 (at node 15)
Accepted packet rate average = 0.0185625
	minimum = 0.0145 (at node 2)
	maximum = 0.027 (at node 13)
Injected flit rate average = 0.0184687
	minimum = 0.014 (at node 7)
	maximum = 0.0255 (at node 15)
Accepted flit rate average= 0.0185625
	minimum = 0.0145 (at node 2)
	maximum = 0.027 (at node 13)
Injected packet length average = 1
Accepted packet length average = 1
Total in-flight flits = 3 (3 measured)
latency change    = 0.0248837
throughput change = 0
Class 0:
Packet latency average = 19.2016
	minimum = 7
	maximum = 38
Network latency average = 19.2016
	minimum = 7
	maximum = 38
Slowest packet = 3311
Flit latency average = 19.2048
	minimum = 7
	maximum = 38
Slowest flit = 3311
Fragmentation average = 0
	minimum = 0
	maximum = 0
Injected packet rate average = 0.0181875
	minimum = 0.014 (at node 2)
	maximum = 0.0236667 (at node 15)
Accepted packet rate average = 0.0182083
	minimum = 0.0143333 (at node 9)
	maximum = 0.0246667 (at node 8)
Injected flit rate average = 0.0181875
	minimum = 0.014 (at node 2)
	maximum = 0.0236667 (at node 15)
Accepted flit rate average= 0.0182083
	minimum = 0.0143333 (at node 9)
	maximum = 0.0246667 (at node 8)
Injected packet length average = 1
Accepted packet length average = 1
Total in-flight flits = 5 (5 measured)
latency change    = 0.00837412
throughput change = 0.0194508
Class 0:
Packet latency average = 19.3093
	minimum = 7
	maximum = 38
Network latency average = 19.3093
	minimum = 7
	maximum = 38
Slowest packet = 3311
Flit latency average = 19.3111
	minimum = 7
	maximum = 38
Slowest flit = 3311
Fragmentation average = 0
	minimum = 0
	maximum = 0
Injected packet rate average = 0.0185312
	minimum = 0.014 (at node 7)
	maximum = 0.02425 (at node 15)
Accepted packet rate average = 0.0185312
	minimum = 0.01475 (at node 9)
	maximum = 0.0235 (at node 8)
Injected flit rate average = 0.0185312
	minimum = 0.014 (at node 7)
	maximum = 0.02425 (at node 15)
Accepted flit rate average= 0.0185312
	minimum = 0.01475 (at node 9)
	maximum = 0.0235 (at node 8)
Injected packet length average = 1
Accepted packet length average = 1
Total in-flight flits = 6 (6 measured)
latency change    = 0.00557809
throughput change = 0.0174255
Draining all recorded packets ...
Draining remaining packets ...
Time taken is 7037 cycles
Class 0:
Packet latency average = 19.8589
	minimum = 7
	maximum = 40
Network latency average = 19.8589
	minimum = 7
	maximum = 40
Slowest packet = 4369
Flit latency average = 19.8589
	minimum = 7
	maximum = 40
Slowest flit = 4369
Fragmentation average = 0
	minimum = 0
	maximum = 0
Injected packet rate average = 0.020875
	minimum = 0.012 (at node 1)
	maximum = 0.028 (at node 8)
Accepted packet rate average = 0.020375
	minimum = 0.014 (at node 5)
	maximum = 0.028 (at node 11)
Injected flit rate average = 0.020875
	minimum = 0.012 (at node 1)
	maximum = 0.028 (at node 8)
Accepted flit rate average= 0.020375
	minimum = 0.014 (at node 5)
	maximum = 0.028 (at node 11)
Injected packet length average = 1
Accepted packet length average = 1
Total in-flight flits = 8 (0 measured)
latency change    = 1
throughput change = 1
Class 0:
Packet latency average = 19.5814
	minimum = 7
	maximum = 40
Network latency average = 19.5814
	minimum = 7
	maximum = 40
Slowest packet = 4369
Flit latency average = 19.5814
	minimum = 7
	maximum = 40
Slowest flit = 4369
Fragmentation average = 0
	minimum = 0
	maximum = 0
Injected packet rate average = 0.0194375
	minimum = 0.0135 (at node 5)
	maximum = 0.0245 (at node 2)
Accepted packet rate average = 0.0191875
	minimum = 0.014 (at node 5)
	maximum = 0.0255 (at node 7)
Injected flit rate average = 0.0194375
	minimum = 0.0135 (at node 5)
	maximum = 0.0245 (at node 2)
Accepted flit rate average= 0.0191875
	minimum = 0.014 (at node 5)
	maximum = 0.0255 (at node 7)
Injected packet length average = 1
Accepted packet length average = 1
Total in-flight flits = 8 (0 measured)
latency change    = 0.0141697
throughput change = 0.0618893
Class 0:
Packet latency average = 19.4834
	minimum = 7
	maximum = 37
Network latency average = 19.4834
	minimum = 7
	maximum = 37
Slowest packet = 4815
Flit latency average = 19.4834
	minimum = 7
	maximum = 37
Slowest flit = 4815
Fragmentation average = 0
	minimum = 0
	maximum = 0
Injected packet rate average = 0.019
	minimum = 0.016 (at node 1)
	maximum = 0.023 (at node 11)
Accepted packet rate average = 0.018875
	minimum = 0.013 (at node 1)
	maximum = 0.03 (at node 13)
Injected flit rate average = 0.019
	minimum = 0.016 (at node 1)
	maximum = 0.023 (at node 11)
Accepted flit rate average= 0.018875
	minimum = 0.013 (at node 1)
	maximum = 0.03 (at node 13)
Injected packet length average = 1
Accepted packet length average = 1
Total in-flight flits = 10 (0 measured)
latency change    = 0.00502937
throughput change = 0.0165563
Warmed up ...Time used is 3000 cycles
Class 0:
Packet latency average = 18.9073
	minimum = 7
	maximum = 37
Network latency average = 18.9073
	minimum = 7
	maximum = 37
Slowest packet = 5045
Flit latency average = 19.1269
	minimum = 7
	maximum = 37
Slowest flit = 5035
Fragmentation average = 0
	minimum = 0
	maximum = 0
Injected packet rate average = 0.020125
	minimum = 0.013 (at node 8)
	maximum = 0.027 (at node 12)
Accepted packet rate average = 0.0201875
	minimum = 0.013 (at node 5)
	maximum = 0.028 (at node 3)
Injected flit rate average = 0.020125
	minimum = 0.013 (at node 8)
	maximum = 0.027 (at node 12)
Accepted flit rate average= 0.0201875
	minimum = 0.013 (at node 5)
	maximum = 0.028 (at node 3)
Injected packet length average = 1
Accepted packet length average = 1
Total in-flight flits = 9 (9 measured)
latency change    = 0.0304694
throughput change = 0.0650155
Class 0:
Packet latency average = 18.9733
	minimum = 7
	maximum = 37
Network latency average = 18.9733
	minimum = 7
	maximum = 37
Slowest packet = 5045
Flit latency average = 19.082
	minimum = 7
	maximum = 37
Slowest flit = 5035
Fragmentation average = 0
	minimum = 0
	maximum = 0
Injected packet rate average = 0.0200625
	minimum = 0.016 (at node 1)
	maximum = 0.027 (at node 15)
Accepted packet rate average = 0.0201875
	minimum = 0.0155 (at node 0)
	maximum = 0.0245 (at node 9)
Injected flit rate average = 0.0200625
	minimum = 0.016 (at node 1)
	maximum = 0.027 (at node 15)
Accepted flit rate average= 0.0201875
	minimum = 0.0155 (at node 0)
	maximum = 0.0245 (at node 9)
Injected packet length average = 1
Accepted packet length average = 1
Total in-flight flits = 6 (6 measured)
latency change    = 0.00347448
throughput change = 0
Class 0:
Packet latency average = 19
	minimum = 7
	maximum = 37
Network latency average = 19
	minimum = 7
	maximum = 37
Slowest packet = 5045
Flit latency average = 19.0706
	minimum = 7
	maximum = 37
Slowest flit = 5035
Fragmentation average = 0
	minimum = 0
	maximum = 0
Injected packet rate average = 0.0205208
	minimum = 0.0153333 (at node 2)
	maximum = 0.025 (at node 0)
Accepted packet rate average = 0.0206458
	minimum = 0.017 (at node 5)
	maximum = 0.0246667 (at node 4)
Injected flit rate average = 0.0205208
	minimum = 0.0153333 (at node 2)
	maximum = 0.025 (at node 0)
Accepted flit rate average= 0.0206458
	minimum = 0.017 (at node 5)
	maximum = 0.0246667 (at node 4)
Injected packet length average = 1
Accepted packet length average = 1
Total in-flight flits = 4 (4 measured)
latency change    = 0.00140682
throughput change = 0.0221998
Class 0:
Packet latency average = 18.831
	minimum = 7
	maximum = 37
Network latency average = 18.831
	minimum = 7
	maximum = 37
Slowest packet = 5045
Flit latency average = 18.8857
	minimum = 7
	maximum = 37
Slowest flit = 5035
Fragmentation average = 0
	minimum = 0
	maximum = 0
Injected packet rate average = 0.0204375
	minimum = 0.01675 (at node 2)
	maximum = 0.023 (at node 0)
Accepted packet rate average = 0.0205
	minimum = 0.017 (at node 1)
	maximum = 0.02225 (at node 8)
Injected flit rate average = 0.0204375
	minimum = 0.01675 (at node 2)
	maximum = 0.023 (at node 0)
Accepted flit rate average= 0.0205
	minimum = 0.017 (at node 1)
	maximum = 0.02225 (at node 8)
Injected packet length average = 1
Accepted packet length average = 1
Total in-flight flits = 6 (6 measured)
latency change    = 0.008973
throughput change = 0.00711382
Draining all recorded packets ...
Draining remaining packets ...
Time taken is 7055 cycles
Class 0:
Packet latency average = 19.1832
	minimum = 7
	maximum = 37
Network latency average = 19.1832
	minimum = 7
	maximum = 37
Slowest packet = 6442
Flit latency average = 19.1832
	minimum = 7
	maximum = 37
Slowest flit = 6442
Fragmentation average = 0
	minimum = 0
	maximum = 0
Injected packet rate average = 0.0203125
	minimum = 0.012 (at node 7)
	maximum = 0.029 (at node 1)
Accepted packet rate average = 0.020125
	minimum = 0.011 (at node 11)
	maximum = 0.026 (at node 9)
Injected flit rate average = 0.0203125
	minimum = 0.012 (at node 7)
	maximum = 0.029 (at node 1)
Accepted flit rate average= 0.020125
	minimum = 0.011 (at node 11)
	maximum = 0.026 (at node 9)
Injected packet length average = 1
Accepted packet length average = 1
Total in-flight flits = 3 (0 measured)
latency change    = 1
throughput change = 1
Class 0:
Packet latency average = 19.5346
	minimum = 7
	maximum = 37
Network latency average = 19.5346
	minimum = 7
	maximum = 37
Slowest packet = 6442
Flit latency average = 19.5346
	minimum = 7
	maximum = 37
Slowest flit = 6442
Fragmentation average = 0
	minimum = 0
	maximum = 0
Injected packet rate average = 0.0205625
	minimum = 0.015 (at node 7)
	maximum = 0.027 (at node 4)
Accepted packet rate average = 0.0203438
	minimum = 0.017 (at node 15)
	maximum = 0.0235 (at node 2)
Injected flit rate average = 0.0205625
	minimum = 0.015 (at node 7)
	maximum = 0.027 (at node 4)
Accepted flit rate average= 0.0203438
	minimum = 0.017 (at node 15)
	maximum = 0.0235 (at node 2)
Injected packet length average = 1
Accepted packet length average = 1
Total in-flight flits = 7 (0 measured)
latency change    = 0.0179852
throughput change = 0.0107527
Class 0:
Packet latency average = 19.6974
	minimum = 7
	maximum = 37
Network latency average = 19.6974
	minimum = 7
	maximum = 37
Slowest packet = 7021
Flit latency average = 19.6974
	minimum = 7
	maximum = 37
Slowest flit = 7021
Fragmentation average = 0
	minimum = 0
	maximum = 0
Injected packet rate average = 0.019
	minimum = 0.013 (at node 7)
	maximum = 0.026 (at node 15)
Accepted packet rate average = 0.019
	minimum = 0.008 (at node 9)
	maximum = 0.03 (at node 7)
Injected flit rate average = 0.019
	minimum = 0.013 (at node 7)
	maximum = 0.026 (at node 15)
Accepted flit rate average= 0.019
	minimum = 0.008 (at node 9)
	maximum = 0.03 (at node 7)
Injected packet length average = 1
Accepted packet length average = 1
Total in-flight flits = 7 (0 measured)
latency change    = 0.00826538
throughput change = 0.0707237
Warmed up ...Time used is 3000 cycles
Class 0:
Packet latency average = 19.5538
	minimum = 7
	maximum = 37
Network latency average = 19.5538
	minimum = 7
	maximum = 37
Slowest packet = 7406
Flit latency average = 19.5759
	minimum = 7
	maximum = 37
Slowest flit = 7406
Fragmentation average = 0
	minimum = 0
	maximum = 0
Injected packet rate average = 0.0199375
	minimum = 0.011 (at node 9)
	maximum = 0.028 (at node 11)
Accepted packet rate average = 0.0201875
	minimum = 0.011 (at node 11)
	maximum = 0.033 (at node 1)
Injected flit rate average = 0.0199375
	minimum = 0.011 (at node 9)
	maximum = 0.028 (at node 11)
Accepted flit rate average= 0.0201875
	minimum = 0.011 (at node 11)
	maximum = 0.033 (at node 1)
Injected packet length average = 1
Accepted packet length average = 1
Total in-flight flits = 3 (3 measured)
latency change    = 0.00734236
throughput change = 0.0588235
Class 0:
Packet latency average = 19.877
	minimum = 7
	maximum = 38
Network latency average = 19.877
	minimum = 7
	maximum = 38
Slowest packet = 7715
Flit latency average = 19.8846
	minimum = 7
	maximum = 38
Slowest flit = 7715
Fragmentation average = 0
	minimum = 0
	maximum = 0
Injected packet rate average = 0.0199063
	minimum = 0.015 (at node 9)
	maximum = 0.026 (at node 6)
Accepted packet rate average = 0.0200313
	minimum = 0.014 (at node 11)
	maximum = 0.025 (at node 1)
Injected flit rate average = 0.0199063
	minimum = 0.015 (at node 9)
	maximum = 0.026 (at node 6)
Accepted flit rate average= 0.0200313
	minimum = 0.014 (at node 11)
	maximum = 0.025 (at node 1)
Injected packet length average = 1
Accepted packet length average = 1
Total in-flight flits = 3 (3 measured)
latency change    = 0.0162587
throughput change = 0.00780031
Class 0:
Packet latency average = 19.7977
	minimum = 7
	maximum = 39
Network latency average = 19.7977
	minimum = 7
	maximum = 39
Slowest packet = 8008
Flit latency average = 19.8033
	minimum = 7
	maximum = 39
Slowest flit = 8008
Fragmentation average = 0
	minimum = 0
	maximum = 0
Injected packet rate average = 0.0200833
	minimum = 0.0173333 (at node 3)
	maximum = 0.0243333 (at node 6)
Accepted packet rate average = 0.020125
	minimum = 0.016 (at node 11)
	maximum = 0.0236667 (at node 5)
Injected flit rate average = 0.0200833
	minimum = 0.0173333 (at node 3)
	maximum = 0.0243333 (at node 6)
Accepted flit rate average= 0.020125
	minimum = 0.016 (at node 11)
	maximum = 0.0236667 (at node 5)
Injected packet length average = 1
Accepted packet length average = 1
Total in-flight flits = 5 (5 measured)
latency change    = 0.00400378
throughput change = 0.00465839
Class 0:
Packet latency average = 19.7957
	minimum = 7
	maximum = 40
Network latency average = 19.7957
	minimum = 7
	maximum = 40
Slowest packet = 8333
Flit latency average = 19.7998
	minimum = 7
	maximum = 40
Slowest flit = 8333
Fragmentation average = 0
	minimum = 0
	maximum = 0
Injected packet rate average = 0.0202656
	minimum = 0.01725 (at node 3)
	maximum = 0.0235 (at node 6)
Accepted packet rate average = 0.0202969
	minimum = 0.0165 (at node 8)
	maximum = 0.02275 (at node 7)
Injected flit rate average = 0.0202656
	minimum = 0.01725 (at node 3)
	maximum = 0.0235 (at node 6)
Accepted flit rate average= 0.0202969
	minimum = 0.0165 (at node 8)
	maximum = 0.02275 (at node 7)
Injected packet length average = 1
Accepted packet length average = 1
Total in-flight flits = 5 (5 measured)
latency change    = 0.000103068
throughput change = 0.00846805
Draining all recorded packets ...
Draining remaining packets ...
Time taken is 7050 cycles
Class 0:
Packet latency average = 19.5017
	minimum = 7
	maximum = 37
Network latency average = 19.5017
	minimum = 7
	maximum = 37
Slowest packet = 8658
Flit latency average = 19.5017
	minimum = 7
	maximum = 37
Slowest flit = 8658
Fragmentation average = 0
	minimum = 0
	maximum = 0
Injected packet rate average = 0.019
	minimum = 0.011 (at node 0)
	maximum = 0.026 (at node 5)
Accepted packet rate average = 0.0188125
	minimum = 0.011 (at node 6)
	maximum = 0.036 (at node 14)
Injected flit rate average = 0.019
	minimum = 0.011 (at node 0)
	maximum = 0.026 (at node 5)
Accepted flit rate average= 0.0188125
	minimum = 0.011 (at node 6)
	maximum = 0.036 (at node 14)
Injected packet length average = 1
Accepted packet length average = 1
Total in-flight flits = 3 (0 measured)
latency change    = 1
throughput change = 1
Class 0:
Packet latency average = 19.6396
	minimum = 7
	maximum = 37
Network latency average = 19.6396
	minimum = 7
	maximum = 37
Slowest packet = 8658
Flit latency average = 19.6396
	minimum = 7
	maximum = 37
Slowest flit = 8658
Fragmentation average = 0
	minimum = 0
	maximum = 0
Injected packet rate average = 0.0197813
	minimum = 0.015 (at node 13)
	maximum = 0.0245 (at node 5)
Accepted packet rate average = 0.0195938
	minimum = 0.0115 (at node 6)
	maximum = 0.0295 (at node 14)
Injected flit rate average = 0.0197813
	minimum = 0.015 (at node 13)
	maximum = 0.0245 (at node 5)
Accepted flit rate average= 0.0195938
	minimum = 0.0115 (at node 6)
	maximum = 0.0295 (at node 14)
Injected packet length average = 1
Accepted packet length average = 1
Total in-flight flits = 6 (0 measured)
latency change    = 0.00702115
throughput change = 0.0398724
Class 0:
Packet latency average = 19.8349
	minimum = 7
	maximum = 38
Network latency average = 19.8349
	minimum = 7
	maximum = 38
Slowest packet = 9418
Flit latency average = 19.8349
	minimum = 7
	maximum = 38
Slowest flit = 9418
Fragmentation average = 0
	minimum = 0
	maximum = 0
Injected packet rate average = 0.0203125
	minimum = 0.014 (at node 9)
	maximum = 0.028 (at node 7)
Accepted packet rate average = 0.0204375
	minimum = 0.013 (at node 4)
	maximum = 0.029 (at node 15)
Injected flit rate average = 0.0203125
	minimum = 0.014 (at node 9)
	maximum = 0.028 (at node 7)
Accepted flit rate average= 0.0204375
	minimum = 0.013 (at node 4)
	maximum = 0.029 (at node 15)
Injected packet length average = 1
Accepted packet length average = 1
Total in-flight flits = 4 (0 measured)
latency change    = 0.00984675
throughput change = 0.0412844
Warmed up ...Time used is 3000 cycles
Class 0:
Packet latency average = 18.9527
	minimum = 7
	maximum = 38
Network latency average = 18.9527
	minimum = 7
	maximum = 38
Slowest packet = 9736
Flit latency average = 19.0062
	minimum = 7
	maximum = 38
Slowest flit = 9736
Fragmentation average = 0
	minimum = 0
	maximum = 0
Injected packet rate average = 0.020375
	minimum = 0.013 (at node 11)
	maximum = 0.033 (at node 5)
Accepted packet rate average = 0.0200625
	minimum = 0.013 (at node 8)
	maximum = 0.028 (at node 0)
Injected flit rate average = 0.020375
	minimum = 0.013 (at node 11)
	maximum = 0.033 (at node 5)
Accepted flit rate average= 0.0200625
	minimum = 0.013 (at node 8)
	maximum = 0.028 (at node 0)
Injected packet length average = 1
Accepted packet length average = 1
Total in-flight flits = 9 (9 measured)
latency change    = 0.0465465
throughput change = 0.0186916
Class 0:
Packet latency average = 19.0319
	minimum = 7
	maximum = 38
Network latency average = 19.0319
	minimum = 7
	maximum = 38
Slowest packet = 9736
Flit latency average = 19.0586
	minimum = 7
	maximum = 38
Slowest flit = 9736
Fragmentation average = 0
	minimum = 0
	maximum = 0
Injected packet rate average = 0.0196563
	minimum = 0.012 (at node 4)
	maximum = 0.027 (at node 6)
Accepted packet rate average = 0.0197188
	minimum = 0.0155 (at node 8)
	maximum = 0.0255 (at node 0)
Injected flit rate average = 0.0196563
	minimum = 0.012 (at node 4)
	maximum = 0.027 (at node 6)
Accepted flit rate average= 0.0197188
	minimum = 0.0155 (at node 8)
	maximum = 0.0255 (at node 0)
Injected packet length average = 1
Accepted packet length average = 1
Total in-flight flits = 2 (2 measured)
latency change    = 0.0041623
throughput change = 0.0174326
Class 0:
Packet latency average = 19.0081
	minimum = 7
	maximum = 38
Network latency average = 19.0081
	minimum = 7
	maximum = 38
Slowest packet = 9736
Flit latency average = 19.0253
	minimum = 7
	maximum = 38
Slowest flit = 9736
Fragmentation average = 0
	minimum = 0
	maximum = 0
Injected packet rate average = 0.0205833
	minimum = 0.0143333 (at node 3)
	maximum = 0.026 (at node 6)
Accepted packet rate average = 0.0205625
	minimum = 0.0166667 (at node 12)
	maximum = 0.0233333 (at node 0)
Injected flit rate average = 0.0205833
	minimum = 0.0143333 (at node 3)
	maximum = 0.026 (at node 6)
Accepted flit rate average= 0.0205625
	minimum = 0.0166667 (at node 12)
	maximum = 0.0233333 (at node 0)
Injected packet length average = 1
Accepted packet length average = 1
Total in-flight flits = 5 (5 measured)
latency change    = 0.00124997
throughput change = 0.0410334
Draining all recorded packets ...
Draining remaining packets ...
Time taken is 6061 cycles
Class 0:
Packet latency average = 19.6156
	minimum = 7
	maximum = 37
Network latency average = 19.6156
	minimum = 7
	maximum = 37
Slowest packet = 10698
Flit latency average = 19.6156
	minimum = 7
	maximum = 37
Slowest flit = 10698
Fragmentation average = 0
	minimum = 0
	maximum = 0
Injected packet rate average = 0.019625
	minimum = 0.013 (at node 8)
	maximum = 0.034 (at node 14)
Accepted packet rate average = 0.0191875
	minimum = 0.012 (at node 3)
	maximum = 0.03 (at node 8)
Injected flit rate average = 0.019625
	minimum = 0.013 (at node 8)
	maximum = 0.034 (at node 14)
Accepted flit rate average= 0.0191875
	minimum = 0.012 (at node 3)
	maximum = 0.03 (at node 8)
Injected packet length average = 1
Accepted packet length average = 1
Total in-flight flits = 7 (0 measured)
latency change    = 1
throughput change = 1
Class 0:
Packet latency average = 19.4564
	minimum = 7
	maximum = 37
Network latency average = 19.4564
	minimum = 7
	maximum = 37
Slowest packet = 10698
Flit latency average = 19.4564
	minimum = 7
	maximum = 37
Slowest flit = 10698
Fragmentation average = 0
	minimum = 0
	maximum = 0
Injected packet rate average = 0.020625
	minimum = 0.015 (at node 3)
	maximum = 0.028 (at node 14)
Accepted packet rate average = 0.0204063
	minimum = 0.017 (at node 0)
	maximum = 0.0245 (at node 7)
Injected flit rate average = 0.020625
	minimum = 0.015 (at node 3)
	maximum = 0.028 (at node 14)
Accepted flit rate average= 0.0204063
	minimum = 0.017 (at node 0)
	maximum = 0.0245 (at node 7)
Injected packet length average = 1
Accepted packet length average = 1
Total in-flight flits = 7 (0 measured)
latency change    = 0.00818652
throughput change = 0.0597243
Class 0:
Packet latency average = 19.2667
	minimum = 7
	maximum = 37
Network latency average = 19.2667
	minimum = 7
	maximum = 37
Slowest packet = 11352
Flit latency average = 19.2667
	minimum = 7
	maximum = 37
Slowest flit = 11352
Fragmentation average = 0
	minimum = 0
	maximum = 0
Injected packet rate average = 0.020625
	minimum = 0.015 (at node 14)
	maximum = 0.031 (at node 13)
Accepted packet rate average = 0.020625
	minimum = 0.016 (at node 3)
	maximum = 0.03 (at node 12)
Injected flit rate average = 0.020625
	minimum = 0.015 (at node 14)
	maximum = 0.031 (at node 13)
Accepted flit rate average= 0.020625
	minimum = 0.016 (at node 3)
	maximum = 0.03 (at node 12)
Injected packet length average = 1
Accepted packet length average = 1
Total in-flight flits = 7 (0 measured)
latency change    = 0.00984543
throughput change = 0.0106061
Warmed up ...Time used is 3000 cycles
Class 0:
Packet latency average = 19.5046
	minimum = 7
	maximum = 37
Network latency average = 19.5046
	minimum = 7
	maximum = 37
Slowest packet = 11795
Flit latency average = 19.5422
	minimum = 7
	maximum = 37
Slowest flit = 11795
Fragmentation average = 0
	minimum = 0
	maximum = 0
Injected packet rate average = 0.021
	minimum = 0.013 (at node 1)
	maximum = 0.03 (at node 8)
Accepted packet rate average = 0.02075
	minimum = 0.014 (at node 2)
	maximum = 0.033 (at node 13)
Injected flit rate average = 0.021
	minimum = 0.013 (at node 1)
	maximum = 0.03 (at node 8)
Accepted flit rate average= 0.02075
	minimum = 0.014 (at node 2)
	maximum = 0.033 (at node 13)
Injected packet length average = 1
Accepted packet length average = 1
Total in-flight flits = 11 (11 measured)
latency change    = 0.0121996
throughput change = 0.0060241
Class 0:
Packet latency average = 19.6388
	minimum = 7
	maximum = 43
Network latency average = 19.6388
	minimum = 7
	maximum = 43
Slowest packet = 11902
Flit latency average = 19.6568
	minimum = 7
	maximum = 43
Slowest flit = 11902
Fragmentation average = 0
	minimum = 0
	maximum = 0
Injected packet rate average = 0.0199688
	minimum = 0.016 (at node 1)
	maximum = 0.0255 (at node 11)
Accepted packet rate average = 0.0200313
	minimum = 0.015 (at node 11)
	maximum = 0.0275 (at node 13)
Injected flit rate average = 0.0199688
	minimum = 0.016 (at node 1)
	maximum = 0.0255 (at node 11)
Accepted flit rate average= 0.0200313
	minimum = 0.015 (at node 11)
	maximum = 0.0275 (at node 13)
Injected packet length average = 1
Accepted packet length average = 1
Total in-flight flits = 5 (5 measured)
latency change    = 0.00683269
throughput change = 0.0358814
Class 0:
Packet latency average = 19.6808
	minimum = 7
	maximum = 43
Network latency average = 19.6808
	minimum = 7
	maximum = 43
Slowest packet = 11902
Flit latency average = 19.6929
	minimum = 7
	maximum = 43
Slowest flit = 11902
Fragmentation average = 0
	minimum = 0
	maximum = 0
Injected packet rate average = 0.0193125
	minimum = 0.0163333 (at node 6)
	maximum = 0.0226667 (at node 11)
Accepted packet rate average = 0.0193333
	minimum = 0.016 (at node 7)
	maximum = 0.026 (at node 8)
Injected flit rate average = 0.0193125
	minimum = 0.0163333 (at node 6)
	maximum = 0.0226667 (at node 11)
Accepted flit rate average= 0.0193333
	minimum = 0.016 (at node 7)
	maximum = 0.026 (at node 8)
Injected packet length average = 1
Accepted packet length average = 1
Total in-flight flits = 6 (6 measured)
latency change    = 0.00213307
throughput change = 0.0360991
Draining all recorded packets ...
Draining remaining packets ...
Time taken is 6054 cycles
Class 0:
Packet latency average = 19.2792
	minimum = 7
	maximum = 37
Network latency average = 19.2792
	minimum = 7
	maximum = 37
Slowest packet = 12530
Flit latency average = 19.2792
	minimum = 7
	maximum = 37
Slowest flit = 12530
Fragmentation average = 0
	minimum = 0
	maximum = 0
Injected packet rate average = 0.0196875
	minimum = 0.011 (at node 5)
	maximum = 0.028 (at node 7)
Accepted packet rate average = 0.01925
	minimum = 0.014 (at node 8)
	maximum = 0.028 (at node 10)
Injected flit rate average = 0.0196875
	minimum = 0.011 (at node 5)
	maximum = 0.028 (at node 7)
Accepted flit rate average= 0.01925
	minimum = 0.014 (at node 8)
	maximum = 0.028 (at node 10)
Injected packet length average = 1
Accepted packet length average = 1
Total in-flight flits = 7 (0 measured)
latency change    = 1
throughput change = 1
Class 0:
Packet latency average = 19.3726
	minimum = 7
	maximum = 38
Network latency average = 19.3726
	minimum = 7
	maximum = 38
Slowest packet = 12975
Flit latency average = 19.3726
	minimum = 7
	maximum = 38
Slowest flit = 12975
Fragmentation average = 0
	minimum = 0
	maximum = 0
Injected packet rate average = 0.019875
	minimum = 0.0145 (at node 14)
	maximum = 0.0265 (at node 0)
Accepted packet rate average = 0.019625
	minimum = 0.015 (at node 3)
	maximum = 0.0275 (at node 5)
Injected flit rate average = 0.019875
	minimum = 0.0145 (at node 14)
	maximum = 0.0265 (at node 0)
Accepted flit rate average= 0.019625
	minimum = 0.015 (at node 3)
	maximum = 0.0275 (at node 5)
Injected packet length average = 1
Accepted packet length average = 1
Total in-flight flits = 8 (0 measured)
latency change    = 0.00482076
throughput change = 0.0191083
Class 0:
Packet latency average = 19.5393
	minimum = 7
	maximum = 37
Network latency average = 19.5393
	minimum = 7
	maximum = 37
Slowest packet = 13202
Flit latency average = 19.5393
	minimum = 7
	maximum = 37
Slowest flit = 13202
Fragmentation average = 0
	minimum = 0
	maximum = 0
Injected packet rate average = 0.023
	minimum = 0.016 (at node 12)
	maximum = 0.03 (at node 0)
Accepted packet rate average = 0.0230625
	minimum = 0.009 (at node 7)
	maximum = 0.032 (at node 9)
Injected flit rate average = 0.023
	minimum = 0.016 (at node 12)
	maximum = 0.03 (at node 0)
Accepted flit rate average= 0.0230625
	minimum = 0.009 (at node 7)
	maximum = 0.032 (at node 9)
Injected packet length average = 1
Accepted packet length average = 1
Total in-flight flits = 7 (0 measured)
latency change    = 0.0085307
throughput change = 0.149051
Warmed up ...Time used is 3000 cycles
Class 0:
Packet latency average = 19.0426
	minimum = 7
	maximum = 37
Network latency average = 19.0426
	minimum = 7
	maximum = 37
Slowest packet = 13603
Flit latency average = 19.0032
	minimum = 7
	maximum = 37
Slowest flit = 13603
Fragmentation average = 0
	minimum = 0
	maximum = 0
Injected packet rate average = 0.0193125
	minimum = 0.008 (at node 12)
	maximum = 0.029 (at node 7)
Accepted packet rate average = 0.0195
	minimum = 0.011 (at node 1)
	maximum = 0.03 (at node 2)
Injected flit rate average = 0.0193125
	minimum = 0.008 (at node 12)
	maximum = 0.029 (at node 7)
Accepted flit rate average= 0.0195
	minimum = 0.011 (at node 1)
	maximum = 0.03 (at node 2)
Injected packet length average = 1
Accepted packet length average = 1
Total in-flight flits = 4 (4 measured)
latency change    = 0.0260821
throughput change = 0.182692
Class 0:
Packet latency average = 19.4025
	minimum = 7
	maximum = 39
Network latency average = 19.4025
	minimum = 7
	maximum = 39
Slowest packet = 13868
Flit latency average = 19.3795
	minimum = 7
	maximum = 39
Slowest flit = 13868
Fragmentation average = 0
	minimum = 0
	maximum = 0
Injected packet rate average = 0.0200625
	minimum = 0.0145 (at node 12)
	maximum = 0.0275 (at node 8)
Accepted packet rate average = 0.0200938
	minimum = 0.015 (at node 8)
	maximum = 0.028 (at node 2)
Injected flit rate average = 0.0200625
	minimum = 0.0145 (at node 12)
	maximum = 0.0275 (at node 8)
Accepted flit rate average= 0.0200938
	minimum = 0.015 (at node 8)
	maximum = 0.028 (at node 2)
Injected packet length average = 1
Accepted packet length average = 1
Total in-flight flits = 6 (6 measured)
latency change    = 0.0185488
throughput change = 0.029549
Class 0:
Packet latency average = 19.4483
	minimum = 7
	maximum = 39
Network latency average = 19.4483
	minimum = 7
	maximum = 39
Slowest packet = 13868
Flit latency average = 19.4323
	minimum = 7
	maximum = 39
Slowest flit = 13868
Fragmentation average = 0
	minimum = 0
	maximum = 0
Injected packet rate average = 0.0196875
	minimum = 0.0143333 (at node 12)
	maximum = 0.0256667 (at node 8)
Accepted packet rate average = 0.0197083
	minimum = 0.0146667 (at node 13)
	maximum = 0.0243333 (at node 12)
Injected flit rate average = 0.0196875
	minimum = 0.0143333 (at node 12)
	maximum = 0.0256667 (at node 8)
Accepted flit rate average= 0.0197083
	minimum = 0.0146667 (at node 13)
	maximum = 0.0243333 (at node 12)
Injected packet length average = 1
Accepted packet length average = 1
Total in-flight flits = 6 (6 measured)
latency change    = 0.00235668
throughput change = 0.019556
Class 0:
Packet latency average = 19.4996
	minimum = 7
	maximum = 39
Network latency average = 19.4996
	minimum = 7
	maximum = 39
Slowest packet = 13868
Flit latency average = 19.4875
	minimum = 7
	maximum = 39
Slowest flit = 13868
Fragmentation average = 0
	minimum = 0
	maximum = 0
Injected packet rate average = 0.0200625
	minimum = 0.0155 (at node 12)
	maximum = 0.0255 (at node 8)
Accepted packet rate average = 0.0200313
	minimum = 0.0165 (at node 4)
	maximum = 0.02275 (at node 2)
Injected flit rate average = 0.0200625
	minimum = 0.0155 (at node 12)
	maximum = 0.0255 (at node 8)
Accepted flit rate average= 0.0200313
	minimum = 0.0165 (at node 4)
	maximum = 0.02275 (at node 2)
Injected packet length average = 1
Accepted packet length average = 1
Total in-flight flits = 9 (9 measured)
latency change    = 0.0026287
throughput change = 0.0161206
Draining all recorded packets ...
Draining remaining packets ...
Time taken is 7049 cycles
Class 0:
Packet latency average = 19.149
	minimum = 7
	maximum = 37
Network latency average = 19.149
	minimum = 7
	maximum = 37
Slowest packet = 14809
Flit latency average = 19.149
	minimum = 7
	maximum = 37
Slowest flit = 14809
Fragmentation average = 0
	minimum = 0
	maximum = 0
Injected packet rate average = 0.0195625
	minimum = 0.013 (at node 3)
	maximum = 0.03 (at node 10)
Accepted packet rate average = 0.018875
	minimum = 0.007 (at node 11)
	maximum = 0.027 (at node 4)
Injected flit rate average = 0.0195625
	minimum = 0.013 (at node 3)
	maximum = 0.03 (at node 10)
Accepted flit rate average= 0.018875
	minimum = 0.007 (at node 11)
	maximum = 0.027 (at node 4)
Injected packet length average = 1
Accepted packet length average = 1
Total in-flight flits = 11 (0 measured)
latency change    = 1
throughput change = 1
Class 0:
Packet latency average = 19.5437
	minimum = 7
	maximum = 37
Network latency average = 19.5437
	minimum = 7
	maximum = 37
Slowest packet = 14809
Flit latency average = 19.5437
	minimum = 7
	maximum = 37
Slowest flit = 14809
Fragmentation average = 0
	minimum = 0
	maximum = 0
Injected packet rate average = 0.0190625
	minimum = 0.012 (at node 1)
	maximum = 0.0265 (at node 10)
Accepted packet rate average = 0.0189687
	minimum = 0.013 (at node 6)
	maximum = 0.024 (at node 0)
Injected flit rate average = 0.0190625
	minimum = 0.012 (at node 1)
	maximum = 0.0265 (at node 10)
Accepted flit rate average= 0.0189687
	minimum = 0.013 (at node 6)
	maximum = 0.024 (at node 0)
Injected packet length average = 1
Accepted packet length average = 1
Total in-flight flits = 3 (0 measured)
latency change    = 0.0201933
throughput change = 0.00494234
Class 0:
Packet latency average = 19.2969
	minimum = 7
	maximum = 37
Network latency average = 19.2969
	minimum = 7
	maximum = 37
Slowest packet = 15432
Flit latency average = 19.2969
	minimum = 7
	maximum = 37
Slowest flit = 15432
Fragmentation average = 0
	minimum = 0
	maximum = 0
Injected packet rate average = 0.0185
	minimum = 0.008 (at node 8)
	maximum = 0.027 (at node 6)
Accepted packet rate average = 0.0183125
	minimum = 0.012 (at node 4)
	maximum = 0.025 (at node 13)
Injected flit rate average = 0.0185
	minimum = 0.008 (at node 8)
	maximum = 0.027 (at node 6)
Accepted flit rate average= 0.0183125
	minimum = 0.012 (at node 4)
	maximum = 0.025 (at node 13)
Injected packet length average = 1
Accepted packet length average = 1
Total in-flight flits = 6 (0 measured)
latency change    = 0.0127859
throughput change = 0.0358362
Warmed up ...Time used is 3000 cycles
Class 0:
Packet latency average = 19.2734
	minimum = 7
	maximum = 37
Network latency average = 19.2734
	minimum = 7
	maximum = 37
Slowest packet = 15719
Flit latency average = 19.2102
	minimum = 7
	maximum = 37
Slowest flit = 15719
Fragmentation average = 0
	minimum = 0
	maximum = 0
Injected packet rate average = 0.01825
	minimum = 0.014 (at node 0)
	maximum = 0.025 (at node 4)
Accepted packet rate average = 0.0184375
	minimum = 0.008 (at node 1)
	maximum = 0.025 (at node 6)
Injected flit rate average = 0.01825
	minimum = 0.014 (at node 0)
	maximum = 0.025 (at node 4)
Accepted flit rate average= 0.0184375
	minimum = 0.008 (at node 1)
	maximum = 0.025 (at node 6)
Injected packet length average = 1
Accepted packet length average = 1
Total in-flight flits = 3 (3 measured)
latency change    = 0.00122303
throughput change = 0.00677966
Class 0:
Packet latency average = 19.9554
	minimum = 7
	maximum = 37
Network latency average = 19.9554
	minimum = 7
	maximum = 37
Slowest packet = 15719
Flit latency average = 19.9196
	minimum = 7
	maximum = 37
Slowest flit = 15719
Fragmentation average = 0
	minimum = 0
	maximum = 0
Injected packet rate average = 0.0197188
	minimum = 0.012 (at node 9)
	maximum = 0.0265 (at node 13)
Accepted packet rate average = 0.0198125
	minimum = 0.0125 (at node 1)
	maximum = 0.025 (at node 6)
Injected flit rate average = 0.0197188
	minimum = 0.012 (at node 9)
	maximum = 0.0265 (at node 13)
Accepted flit rate average= 0.0198125
	minimum = 0.0125 (at node 1)
	maximum = 0.025 (at node 6)
Injected packet length average = 1
Accepted packet length average = 1
Total in-flight flits = 3 (3 measured)
latency change    = 0.0341791
throughput change = 0.0694006
Class 0:
Packet latency average = 19.735
	minimum = 7
	maximum = 38
Network latency average = 19.735
	minimum = 7
	maximum = 38
Slowest packet = 16344
Flit latency average = 19.7126
	minimum = 7
	maximum = 38
Slowest flit = 16344
Fragmentation average = 0
	minimum = 0
	maximum = 0
Injected packet rate average = 0.0199167
	minimum = 0.014 (at node 9)
	maximum = 0.0246667 (at node 3)
Accepted packet rate average = 0.0199375
	minimum = 0.014 (at node 1)
	maximum = 0.024 (at node 0)
Injected flit rate average = 0.0199167
	minimum = 0.014 (at node 9)
	maximum = 0.0246667 (at node 3)
Accepted flit rate average= 0.0199375
	minimum = 0.014 (at node 1)
	maximum = 0.024 (at node 0)
Injected packet length average = 1
Accepted packet length average = 1
Total in-flight flits = 5 (5 measured)
latency change    = 0.0111679
throughput change = 0.00626959
Class 0:
Packet latency average = 19.7302
	minimum = 7
	maximum = 38
Network latency average = 19.7302
	minimum = 7
	maximum = 38
Slowest packet = 16344
Flit latency average = 19.7134
	minimum = 7
	maximum = 38
Slowest flit = 16344
Fragmentation average = 0
	minimum = 0
	maximum = 0
Injected packet rate average = 0.0198125
	minimum = 0.01625 (at node 6)
	maximum = 0.02525 (at node 3)
Accepted packet rate average = 0.0198438
	minimum = 0.01425 (at node 1)
	maximum = 0.02425 (at node 0)
Injected flit rate average = 0.0198125
	minimum = 0.01625 (at node 6)
	maximum = 0.02525 (at node 3)
Accepted flit rate average= 0.0198438
	minimum = 0.01425 (at node 1)
	maximum = 0.02425 (at node 0)
Injected packet length average = 1
Accepted packet length average = 1
Total in-flight flits = 4 (4 measured)
latency change    = 0.00024299
throughput change = 0.00472441
Class 0:
Packet latency average = 19.7922
	minimum = 7
	maximum = 46
Network latency average = 19.7922
	minimum = 7
	maximum = 46
Slowest packet = 16975
Flit latency average = 19.7785
	minimum = 7
	maximum = 46
Slowest flit = 16975
Fragmentation average = 0
	minimum = 0
	maximum = 0
Injected packet rate average = 0.0197625
	minimum = 0.0164 (at node 6)
	maximum = 0.0246 (at node 3)
Accepted packet rate average = 0.01975
	minimum = 0.0156 (at node 1)
	maximum = 0.024 (at node 0)
Injected flit rate average = 0.0197625
	minimum = 0.0164 (at node 6)
	maximum = 0.0246 (at node 3)
Accepted flit rate average= 0.01975
	minimum = 0.0156 (at node 1)
	maximum = 0.024 (at node 0)
Injected packet length average = 1
Accepted packet length average = 1
Total in-flight flits = 7 (7 measured)
latency change    = 0.00313393
throughput change = 0.00474684
Draining all recorded packets ...
Draining remaining packets ...
Time taken is 8061 cycles
Class 0:
Packet latency average = 19.8542
	minimum = 7
	maximum = 41
Network latency average = 19.8542
	minimum = 7
	maximum = 41
Slowest packet = 17481
Flit latency average = 19.8542
	minimum = 7
	maximum = 41
Slowest flit = 17481
Fragmentation average = 0
	minimum = 0
	maximum = 0
Injected packet rate average = 0.0183125
	minimum = 0.012 (at node 8)
	maximum = 0.028 (at node 12)
Accepted packet rate average = 0.018
	minimum = 0.009 (at node 7)
	maximum = 0.023 (at node 1)
Injected flit rate average = 0.0183125
	minimum = 0.012 (at node 8)
	maximum = 0.028 (at node 12)
Accepted flit rate average= 0.018
	minimum = 0.009 (at node 7)
	maximum = 0.023 (at node 1)
Injected packet length average = 1
Accepted packet length average = 1
Total in-flight flits = 5 (0 measured)
latency change    = 1
throughput change = 1
Class 0:
Packet latency average = 19.7171
	minimum = 7
	maximum = 41
Network latency average = 19.7171
	minimum = 7
	maximum = 41
Slowest packet = 17481
Flit latency average = 19.7171
	minimum = 7
	maximum = 41
Slowest flit = 17481
Fragmentation average = 0
	minimum = 0
	maximum = 0
Injected packet rate average = 0.019
	minimum = 0.015 (at node 6)
	maximum = 0.025 (at node 12)
Accepted packet rate average = 0.0187812
	minimum = 0.013 (at node 13)
	maximum = 0.025 (at node 1)
Injected flit rate average = 0.019
	minimum = 0.015 (at node 6)
	maximum = 0.025 (at node 12)
Accepted flit rate average= 0.0187812
	minimum = 0.013 (at node 13)
	maximum = 0.025 (at node 1)
Injected packet length average = 1
Accepted packet length average = 1
Total in-flight flits = 7 (0 measured)
latency change    = 0.00694972
throughput change = 0.0415973
Class 0:
Packet latency average = 20.1502
	minimum = 7
	maximum = 43
Network latency average = 20.1502
	minimum = 7
	maximum = 43
Slowest packet = 18012
Flit latency average = 20.1502
	minimum = 7
	maximum = 43
Slowest flit = 18012
Fragmentation average = 0
	minimum = 0
	maximum = 0
Injected packet rate average = 0.0193125
	minimum = 0.01 (at node 5)
	maximum = 0.025 (at node 11)
Accepted packet rate average = 0.0195625
	minimum = 0.013 (at node 6)
	maximum = 0.025 (at node 0)
Injected flit rate average = 0.0193125
	minimum = 0.01 (at node 5)
	maximum = 0.025 (at node 11)
Accepted flit rate average= 0.0195625
	minimum = 0.013 (at node 6)
	maximum = 0.025 (at node 0)
Injected packet length average = 1
Accepted packet length average = 1
Total in-flight flits = 3 (0 measured)
latency change    = 0.0214897
throughput change = 0.0399361
Warmed up ...Time used is 3000 cycles
Class 0:
Packet latency average = 19.1821
	minimum = 7
	maximum = 37
Network latency average = 19.1821
	minimum = 7
	maximum = 37
Slowest packet = 18247
Flit latency average = 19.192
	minimum = 7
	maximum = 37
Slowest flit = 18247
Fragmentation average = 0
	minimum = 0
	maximum = 0
Injected packet rate average = 0.021875
	minimum = 0.015 (at node 3)
	maximum = 0.033 (at node 10)
Accepted packet rate average = 0.0218125
	minimum = 0.017 (at node 6)
	maximum = 0.031 (at node 9)
Injected flit rate average = 0.021875
	minimum = 0.015 (at node 3)
	maximum = 0.033 (at node 10)
Accepted flit rate average= 0.0218125
	minimum = 0.017 (at node 6)
	maximum = 0.031 (at node 9)
Injected packet length average = 1
Accepted packet length average = 1
Total in-flight flits = 4 (4 measured)
latency change    = 0.0504679
throughput change = 0.103152
Class 0:
Packet latency average = 19.4171
	minimum = 7
	maximum = 37
Network latency average = 19.4171
	minimum = 7
	maximum = 37
Slowest packet = 18247
Flit latency average = 19.4213
	minimum = 7
	maximum = 37
Slowest flit = 18247
Fragmentation average = 0
	minimum = 0
	maximum = 0
Injected packet rate average = 0.0204063
	minimum = 0.016 (at node 2)
	maximum = 0.0265 (at node 5)
Accepted packet rate average = 0.02025
	minimum = 0.016 (at node 11)
	maximum = 0.0275 (at node 1)
Injected flit rate average = 0.0204063
	minimum = 0.016 (at node 2)
	maximum = 0.0265 (at node 5)
Accepted flit rate average= 0.02025
	minimum = 0.016 (at node 11)
	maximum = 0.0275 (at node 1)
Injected packet length average = 1
Accepted packet length average = 1
Total in-flight flits = 8 (8 measured)
latency change    = 0.0121014
throughput change = 0.0771605
Class 0:
Packet latency average = 19.5533
	minimum = 7
	maximum = 39
Network latency average = 19.5533
	minimum = 7
	maximum = 39
Slowest packet = 19039
Flit latency average = 19.5558
	minimum = 7
	maximum = 39
Slowest flit = 19039
Fragmentation average = 0
	minimum = 0
	maximum = 0
Injected packet rate average = 0.0197917
	minimum = 0.0156667 (at node 13)
	maximum = 0.025 (at node 5)
Accepted packet rate average = 0.0197917
	minimum = 0.0156667 (at node 11)
	maximum = 0.0233333 (at node 1)
Injected flit rate average = 0.0197917
	minimum = 0.0156667 (at node 13)
	maximum = 0.025 (at node 5)
Accepted flit rate average= 0.0197917
	minimum = 0.0156667 (at node 11)
	maximum = 0.0233333 (at node 1)
Injected packet length average = 1
Accepted packet length average = 1
Total in-flight flits = 3 (3 measured)
latency change    = 0.00696925
throughput change = 0.0231579
Class 0:
Packet latency average = 19.6006
	minimum = 7
	maximum = 41
Network latency average = 19.6006
	minimum = 7
	maximum = 41
Slowest packet = 19208
Flit latency average = 19.6024
	minimum = 7
	maximum = 41
Slowest flit = 19208
Fragmentation average = 0
	minimum = 0
	maximum = 0
Injected packet rate average = 0.0197188
	minimum = 0.01625 (at node 13)
	maximum = 0.023 (at node 5)
Accepted packet rate average = 0.0196875
	minimum = 0.0155 (at node 13)
	maximum = 0.02375 (at node 0)
Injected flit rate average = 0.0197188
	minimum = 0.01625 (at node 13)
	maximum = 0.023 (at node 5)
Accepted flit rate average= 0.0196875
	minimum = 0.0155 (at node 13)
	maximum = 0.02375 (at node 0)
Injected packet length average = 1
Accepted packet length average = 1
Total in-flight flits = 5 (5 measured)
latency change    = 0.0024137
throughput change = 0.00529101
Class 0:
Packet latency average = 19.5076
	minimum = 7
	maximum = 41
Network latency average = 19.5076
	minimum = 7
	maximum = 41
Slowest packet = 19208
Flit latency average = 19.5091
	minimum = 7
	maximum = 41
Slowest flit = 19208
Fragmentation average = 0
	minimum = 0
	maximum = 0
Injected packet rate average = 0.0199
	minimum = 0.0168 (at node 13)
	maximum = 0.0224 (at node 4)
Accepted packet rate average = 0.0198375
	minimum = 0.017 (at node 13)
	maximum = 0.0236 (at node 14)
Injected flit rate average = 0.0199
	minimum = 0.0168 (at node 13)
	maximum = 0.0224 (at node 4)
Accepted flit rate average= 0.0198375
	minimum = 0.017 (at node 13)
	maximum = 0.0236 (at node 14)
Injected packet length average = 1
Accepted packet length average = 1
Total in-flight flits = 8 (8 measured)
latency change    = 0.00477049
throughput change = 0.00756144
Draining all recorded packets ...
Draining remaining packets ...
Time taken is 8053 cycles
Class 0:
Packet latency average = 19.3659
	minimum = 7
	maximum = 37
Network latency average = 19.3659
	minimum = 7
	maximum = 37
Slowest packet = 19912
Flit latency average = 19.3659
	minimum = 7
	maximum = 37
Slowest flit = 19912
Fragmentation average = 0
	minimum = 0
	maximum = 0
Injected packet rate average = 0.02075
	minimum = 0.014 (at node 13)
	maximum = 0.028 (at node 5)
Accepted packet rate average = 0.0205
	minimum = 0.014 (at node 4)
	maximum = 0.028 (at node 13)
Injected flit rate average = 0.02075
	minimum = 0.014 (at node 13)
	maximum = 0.028 (at node 5)
Accepted flit rate average= 0.0205
	minimum = 0.014 (at node 4)
	maximum = 0.028 (at node 13)
Injected packet length average = 1
Accepted packet length average = 1
Total in-flight flits = 4 (0 measured)
latency change    = 1
throughput change = 1
Class 0:
Packet latency average = 19.7757
	minimum = 7
	maximum = 42
Network latency average = 19.7757
	minimum = 7
	maximum = 42
Slowest packet = 20151
Flit latency average = 19.7757
	minimum = 7
	maximum = 42
Slowest flit = 20151
Fragmentation average = 0
	minimum = 0
	maximum = 0
Injected packet rate average = 0.0201875
	minimum = 0.0145 (at node 13)
	maximum = 0.025 (at node 10)
Accepted packet rate average = 0.0200625
	minimum = 0.0155 (at node 1)
	maximum = 0.024 (at node 13)
Injected flit rate average = 0.0201875
	minimum = 0.0145 (at node 13)
	maximum = 0.025 (at node 10)
Accepted flit rate average= 0.0200625
	minimum = 0.0155 (at node 1)
	maximum = 0.024 (at node 13)
Injected packet length average = 1
Accepted packet length average = 1
Total in-flight flits = 4 (0 measured)
latency change    = 0.0207248
throughput change = 0.0218069
Class 0:
Packet latency average = 19.1524
	minimum = 7
	maximum = 37
Network latency average = 19.1524
	minimum = 7
	maximum = 37
Slowest packet = 20571
Flit latency average = 19.1524
	minimum = 7
	maximum = 37
Slowest flit = 20571
Fragmentation average = 0
	minimum = 0
	maximum = 0
Injected packet rate average = 0.0200625
	minimum = 0.01 (at node 4)
	maximum = 0.031 (at node 5)
Accepted packet rate average = 0.0196875
	minimum = 0.009 (at node 0)
	maximum = 0.03 (at node 14)
Injected flit rate average = 0.0200625
	minimum = 0.01 (at node 4)
	maximum = 0.031 (at node 5)
Accepted flit rate average= 0.0196875
	minimum = 0.009 (at node 0)
	maximum = 0.03 (at node 14)
Injected packet length average = 1
Accepted packet length average = 1
Total in-flight flits = 10 (0 measured)
latency change    = 0.0325453
throughput change = 0.0190476
Warmed up ...Time used is 3000 cycles
Class 0:
Packet latency average = 18.7994
	minimum = 7
	maximum = 37
Network latency average = 18.7994
	minimum = 7
	maximum = 37
Slowest packet = 20855
Flit latency average = 18.9136
	minimum = 7
	maximum = 37
Slowest flit = 20855
Fragmentation average = 0
	minimum = 0
	maximum = 0
Injected packet rate average = 0.0200625
	minimum = 0.012 (at node 11)
	maximum = 0.028 (at node 0)
Accepted packet rate average = 0.02025
	minimum = 0.015 (at node 4)
	maximum = 0.03 (at node 2)
Injected flit rate average = 0.0200625
	minimum = 0.012 (at node 11)
	maximum = 0.028 (at node 0)
Accepted flit rate average= 0.02025
	minimum = 0.015 (at node 4)
	maximum = 0.03 (at node 2)
Injected packet length average = 1
Accepted packet length average = 1
Total in-flight flits = 7 (7 measured)
latency change    = 0.0187782
throughput change = 0.0277778
Class 0:
Packet latency average = 19.3887
	minimum = 7
	maximum = 38
Network latency average = 19.3887
	minimum = 7
	maximum = 38
Slowest packet = 21381
Flit latency average = 19.4367
	minimum = 7
	maximum = 38
Slowest flit = 21381
Fragmentation average = 0
	minimum = 0
	maximum = 0
Injected packet rate average = 0.0200938
	minimum = 0.0165 (at node 8)
	maximum = 0.028 (at node 1)
Accepted packet rate average = 0.02025
	minimum = 0.0165 (at node 1)
	maximum = 0.025 (at node 3)
Injected flit rate average = 0.0200938
	minimum = 0.0165 (at node 8)
	maximum = 0.028 (at node 1)
Accepted flit rate average= 0.02025
	minimum = 0.0165 (at node 1)
	maximum = 0.025 (at node 3)
Injected packet length average = 1
Accepted packet length average = 1
Total in-flight flits = 5 (5 measured)
latency change    = 0.0303966
throughput change = 0
Class 0:
Packet latency average = 19.4241
	minimum = 7
	maximum = 38
Network latency average = 19.4241
	minimum = 7
	maximum = 38
Slowest packet = 21381
Flit latency average = 19.456
	minimum = 7
	maximum = 38
Slowest flit = 21381
Fragmentation average = 0
	minimum = 0
	maximum = 0
Injected packet rate average = 0.0199375
	minimum = 0.018 (at node 15)
	maximum = 0.023 (at node 9)
Accepted packet rate average = 0.0201042
	minimum = 0.0156667 (at node 1)
	maximum = 0.0233333 (at node 3)
Injected flit rate average = 0.0199375
	minimum = 0.018 (at node 15)
	maximum = 0.023 (at node 9)
Accepted flit rate average= 0.0201042
	minimum = 0.0156667 (at node 1)
	maximum = 0.0233333 (at node 3)
Injected packet length average = 1
Accepted packet length average = 1
Total in-flight flits = 2 (2 measured)
latency change    = 0.00182089
throughput change = 0.00725389
Draining all recorded packets ...
Draining remaining packets ...
Time taken is 6054 cycles
Class 0:
Packet latency average = 19.9776
	minimum = 7
	maximum = 37
Network latency average = 19.9776
	minimum = 7
	maximum = 37
Slowest packet = 21840
Flit latency average = 19.9776
	minimum = 7
	maximum = 37
Slowest flit = 21840
Fragmentation average = 0
	minimum = 0
	maximum = 0
Injected packet rate average = 0.019875
	minimum = 0.015 (at node 8)
	maximum = 0.026 (at node 1)
Accepted packet rate average = 0.0195
	minimum = 0.013 (at node 2)
	maximum = 0.029 (at node 15)
Injected flit rate average = 0.019875
	minimum = 0.015 (at node 8)
	maximum = 0.026 (at node 1)
Accepted flit rate average= 0.0195
	minimum = 0.013 (at node 2)
	maximum = 0.029 (at node 15)
Injected packet length average = 1
Accepted packet length average = 1
Total in-flight flits = 6 (0 measured)
latency change    = 1
throughput change = 1
Class 0:
Packet latency average = 19.9013
	minimum = 7
	maximum = 37
Network latency average = 19.9013
	minimum = 7
	maximum = 37
Slowest packet = 21840
Flit latency average = 19.9013
	minimum = 7
	maximum = 37
Slowest flit = 21840
Fragmentation average = 0
	minimum = 0
	maximum = 0
Injected packet rate average = 0.0200625
	minimum = 0.0145 (at node 8)
	maximum = 0.025 (at node 1)
Accepted packet rate average = 0.0199375
	minimum = 0.014 (at node 13)
	maximum = 0.028 (at node 4)
Injected flit rate average = 0.0200625
	minimum = 0.0145 (at node 8)
	maximum = 0.025 (at node 1)
Accepted flit rate average= 0.0199375
	minimum = 0.014 (at node 13)
	maximum = 0.028 (at node 4)
Injected packet length average = 1
Accepted packet length average = 1
Total in-flight flits = 4 (0 measured)
latency change    = 0.00383444
throughput change = 0.0219436
Class 0:
Packet latency average = 19.6849
	minimum = 7
	maximum = 37
Network latency average = 19.6849
	minimum = 7
	maximum = 37
Slowest packet = 22390
Flit latency average = 19.6849
	minimum = 7
	maximum = 37
Slowest flit = 22390
Fragmentation average = 0
	minimum = 0
	maximum = 0
Injected packet rate average = 0.0199375
	minimum = 0.014 (at node 9)
	maximum = 0.026 (at node 10)
Accepted packet rate average = 0.0194375
	minimum = 0.011 (at node 15)
	maximum = 0.027 (at node 1)
Injected flit rate average = 0.0199375
	minimum = 0.014 (at node 9)
	maximum = 0.026 (at node 10)
Accepted flit rate average= 0.0194375
	minimum = 0.011 (at node 15)
	maximum = 0.027 (at node 1)
Injected packet length average = 1
Accepted packet length average = 1
Total in-flight flits = 12 (0 measured)
latency change    = 0.0109915
throughput change = 0.0257235
Warmed up ...Time used is 3000 cycles
Class 0:
Packet latency average = 20.0784
	minimum = 7
	maximum = 37
Network latency average = 20.0784
	minimum = 7
	maximum = 37
Slowest packet = 22740
Flit latency average = 20.1027
	minimum = 7
	maximum = 37
Slowest flit = 22740
Fragmentation average = 0
	minimum = 0
	maximum = 0
Injected packet rate average = 0.0200625
	minimum = 0.013 (at node 11)
	maximum = 0.029 (at node 7)
Accepted packet rate average = 0.0206875
	minimum = 0.012 (at node 10)
	maximum = 0.025 (at node 7)
Injected flit rate average = 0.0200625
	minimum = 0.013 (at node 11)
	maximum = 0.029 (at node 7)
Accepted flit rate average= 0.0206875
	minimum = 0.012 (at node 10)
	maximum = 0.025 (at node 7)
Injected packet length average = 1
Accepted packet length average = 1
Total in-flight flits = 2 (2 measured)
latency change    = 0.0195973
throughput change = 0.060423
Class 0:
Packet latency average = 19.9139
	minimum = 7
	maximum = 37
Network latency average = 19.9139
	minimum = 7
	maximum = 37
Slowest packet = 22740
Flit latency average = 19.9293
	minimum = 7
	maximum = 37
Slowest flit = 22740
Fragmentation average = 0
	minimum = 0
	maximum = 0
Injected packet rate average = 0.02025
	minimum = 0.0145 (at node 15)
	maximum = 0.0245 (at node 4)
Accepted packet rate average = 0.0203438
	minimum = 0.015 (at node 10)
	maximum = 0.026 (at node 2)
Injected flit rate average = 0.02025
	minimum = 0.0145 (at node 15)
	maximum = 0.0245 (at node 4)
Accepted flit rate average= 0.0203438
	minimum = 0.015 (at node 10)
	maximum = 0.026 (at node 2)
Injected packet length average = 1
Accepted packet length average = 1
Total in-flight flits = 9 (9 measured)
latency change    = 0.00825763
throughput change = 0.0168971
Class 0:
Packet latency average = 19.9548
	minimum = 7
	maximum = 41
Network latency average = 19.9548
	minimum = 7
	maximum = 41
Slowest packet = 23405
Flit latency average = 19.9647
	minimum = 7
	maximum = 41
Slowest flit = 23405
Fragmentation average = 0
	minimum = 0
	maximum = 0
Injected packet rate average = 0.0199583
	minimum = 0.0153333 (at node 10)
	maximum = 0.0243333 (at node 7)
Accepted packet rate average = 0.0200625
	minimum = 0.0173333 (at node 5)
	maximum = 0.0266667 (at node 14)
Injected flit rate average = 0.0199583
	minimum = 0.0153333 (at node 10)
	maximum = 0.0243333 (at node 7)
Accepted flit rate average= 0.0200625
	minimum = 0.0173333 (at node 5)
	maximum = 0.0266667 (at node 14)
Injected packet length average = 1
Accepted packet length average = 1
Total in-flight flits = 7 (7 measured)
latency change    = 0.00204745
throughput change = 0.0140187
Class 0:
Packet latency average = 19.8777
	minimum = 7
	maximum = 41
Network latency average = 19.8777
	minimum = 7
	maximum = 41
Slowest packet = 23405
Flit latency average = 19.8858
	minimum = 7
	maximum = 41
Slowest flit = 23405
Fragmentation average = 0
	minimum = 0
	maximum = 0
Injected packet rate average = 0.0201719
	minimum = 0.01725 (at node 9)
	maximum = 0.024 (at node 7)
Accepted packet rate average = 0.02025
	minimum = 0.01725 (at node 15)
	maximum = 0.0265 (at node 14)
Injected flit rate average = 0.0201719
	minimum = 0.01725 (at node 9)
	maximum = 0.024 (at node 7)
Accepted flit rate average= 0.02025
	minimum = 0.01725 (at node 15)
	maximum = 0.0265 (at node 14)
Injected packet length average = 1
Accepted packet length average = 1
Total in-flight flits = 7 (7 measured)
latency change    = 0.00387663
throughput change = 0.00925926
Draining all recorded packets ...
Draining remaining packets ...
Time taken is 7045 cycles
Class 0:
Packet latency average = 19.7143
	minimum = 7
	maximum = 37
Network latency average = 19.7143
	minimum = 7
	maximum = 37
Slowest packet = 24019
Flit latency average = 19.7143
	minimum = 7
	maximum = 37
Slowest flit = 24019
Fragmentation average = 0
	minimum = 0
	maximum = 0
Injected packet rate average = 0.0181875
	minimum = 0.011 (at node 4)
	maximum = 0.027 (at node 1)
Accepted packet rate average = 0.0179375
	minimum = 0.011 (at node 14)
	maximum = 0.023 (at node 3)
Injected flit rate average = 0.0181875
	minimum = 0.011 (at node 4)
	maximum = 0.027 (at node 1)
Accepted flit rate average= 0.0179375
	minimum = 0.011 (at node 14)
	maximum = 0.023 (at node 3)
Injected packet length average = 1
Accepted packet length average = 1
Total in-flight flits = 4 (0 measured)
latency change    = 1
throughput change = 1
Class 0:
Packet latency average = 19.6
	minimum = 7
	maximum = 37
Network latency average = 19.6
	minimum = 7
	maximum = 37
Slowest packet = 24019
Flit latency average = 19.6
	minimum = 7
	maximum = 37
Slowest flit = 24019
Fragmentation average = 0
	minimum = 0
	maximum = 0
Injected packet rate average = 0.0182187
	minimum = 0.012 (at node 13)
	maximum = 0.025 (at node 1)
Accepted packet rate average = 0.018125
	minimum = 0.0155 (at node 15)
	maximum = 0.023 (at node 0)
Injected flit rate average = 0.0182187
	minimum = 0.012 (at node 13)
	maximum = 0.025 (at node 1)
Accepted flit rate average= 0.018125
	minimum = 0.0155 (at node 15)
	maximum = 0.023 (at node 0)
Injected packet length average = 1
Accepted packet length average = 1
Total in-flight flits = 3 (0 measured)
latency change    = 0.0058309
throughput change = 0.0103448
Class 0:
Packet latency average = 19.1043
	minimum = 7
	maximum = 37
Network latency average = 19.1043
	minimum = 7
	maximum = 37
Slowest packet = 24702
Flit latency average = 19.1043
	minimum = 7
	maximum = 37
Slowest flit = 24702
Fragmentation average = 0
	minimum = 0
	maximum = 0
Injected packet rate average = 0.0215
	minimum = 0.015 (at node 6)
	maximum = 0.03 (at node 5)
Accepted packet rate average = 0.0215625
	minimum = 0.015 (at node 5)
	maximum = 0.028 (at node 1)
Injected flit rate average = 0.0215
	minimum = 0.015 (at node 6)
	maximum = 0.03 (at node 5)
Accepted flit rate average= 0.0215625
	minimum = 0.015 (at node 5)
	maximum = 0.028 (at node 1)
Injected packet length average = 1
Accepted packet length average = 1
Total in-flight flits = 2 (0 measured)
latency change    = 0.0259445
throughput change = 0.15942
Warmed up ...Time used is 3000 cycles
Class 0:
Packet latency average = 19.4518
	minimum = 7
	maximum = 37
Network latency average = 19.4518
	minimum = 7
	maximum = 37
Slowest packet = 24930
Flit latency average = 19.4686
	minimum = 7
	maximum = 37
Slowest flit = 24930
Fragmentation average = 0
	minimum = 0
	maximum = 0
Injected packet rate average = 0.019125
	minimum = 0.01 (at node 2)
	maximum = 0.03 (at node 7)
Accepted packet rate average = 0.0189375
	minimum = 0.011 (at node 9)
	maximum = 0.025 (at node 3)
Injected flit rate average = 0.019125
	minimum = 0.01 (at node 2)
	maximum = 0.03 (at node 7)
Accepted flit rate average= 0.0189375
	minimum = 0.011 (at node 9)
	maximum = 0.025 (at node 3)
Injected packet length average = 1
Accepted packet length average = 1
Total in-flight flits = 5 (5 measured)
latency change    = 0.0178636
throughput change = 0.138614
Class 0:
Packet latency average = 19.4599
	minimum = 7
	maximum = 39
Network latency average = 19.4599
	minimum = 7
	maximum = 39
Slowest packet = 25486
Flit latency average = 19.4677
	minimum = 7
	maximum = 39
Slowest flit = 25486
Fragmentation average = 0
	minimum = 0
	maximum = 0
Injected packet rate average = 0.0205
	minimum = 0.0145 (at node 15)
	maximum = 0.0275 (at node 7)
Accepted packet rate average = 0.0203125
	minimum = 0.0155 (at node 5)
	maximum = 0.024 (at node 2)
Injected flit rate average = 0.0205
	minimum = 0.0145 (at node 15)
	maximum = 0.0275 (at node 7)
Accepted flit rate average= 0.0203125
	minimum = 0.0155 (at node 5)
	maximum = 0.024 (at node 2)
Injected packet length average = 1
Accepted packet length average = 1
Total in-flight flits = 8 (8 measured)
latency change    = 0.000413636
throughput change = 0.0676923
Class 0:
Packet latency average = 19.5424
	minimum = 7
	maximum = 40
Network latency average = 19.5424
	minimum = 7
	maximum = 40
Slowest packet = 25877
Flit latency average = 19.5474
	minimum = 7
	maximum = 40
Slowest flit = 25877
Fragmentation average = 0
	minimum = 0
	maximum = 0
Injected packet rate average = 0.0203542
	minimum = 0.0156667 (at node 2)
	maximum = 0.0243333 (at node 14)
Accepted packet rate average = 0.0202083
	minimum = 0.0153333 (at node 5)
	maximum = 0.0253333 (at node 15)
Injected flit rate average = 0.0203542
	minimum = 0.0156667 (at node 2)
	maximum = 0.0243333 (at node 14)
Accepted flit rate average= 0.0202083
	minimum = 0.0153333 (at node 5)
	maximum = 0.0253333 (at node 15)
Injected packet length average = 1
Accepted packet length average = 1
Total in-flight flits = 9 (9 measured)
latency change    = 0.00422052
throughput change = 0.00515464
Class 0:
Packet latency average = 19.4957
	minimum = 7
	maximum = 40
Network latency average = 19.4957
	minimum = 7
	maximum = 40
Slowest packet = 25877
Flit latency average = 19.4996
	minimum = 7
	maximum = 40
Slowest flit = 25877
Fragmentation average = 0
	minimum = 0
	maximum = 0
Injected packet rate average = 0.0201406
	minimum = 0.0155 (at node 5)
	maximum = 0.02375 (at node 10)
Accepted packet rate average = 0.0201094
	minimum = 0.0165 (at node 5)
	maximum = 0.02375 (at node 6)
Injected flit rate average = 0.0201406
	minimum = 0.0155 (at node 5)
	maximum = 0.02375 (at node 10)
Accepted flit rate average= 0.0201094
	minimum = 0.0165 (at node 5)
	maximum = 0.02375 (at node 6)
Injected packet length average = 1
Accepted packet length average = 1
Total in-flight flits = 4 (4 measured)
latency change    = 0.00239209
throughput change = 0.004921
Class 0:
Packet latency average = 19.7206
	minimum = 7
	maximum = 40
Network latency average = 19.7206
	minimum = 7
	maximum = 40
Slowest packet = 25877
Flit latency average = 19.7235
	minimum = 7
	maximum = 40
Slowest flit = 25877
Fragmentation average = 0
	minimum = 0
	maximum = 0
Injected packet rate average = 0.0203375
	minimum = 0.0164 (at node 5)
	maximum = 0.0238 (at node 10)
Accepted packet rate average = 0.02025
	minimum = 0.0172 (at node 1)
	maximum = 0.025 (at node 6)
Injected flit rate average = 0.0203375
	minimum = 0.0164 (at node 5)
	maximum = 0.0238 (at node 10)
Accepted flit rate average= 0.02025
	minimum = 0.0172 (at node 1)
	maximum = 0.025 (at node 6)
Injected packet length average = 1
Accepted packet length average = 1
Total in-flight flits = 9 (9 measured)
latency change    = 0.0114055
throughput change = 0.00694444
Draining all recorded packets ...
Draining remaining packets ...
Time taken is 8059 cycles
Class 0:
Packet latency average = 19.8746
	minimum = 7
	maximum = 39
Network latency average = 19.8746
	minimum = 7
	maximum = 39
Slowest packet = 26668
Flit latency average = 19.8746
	minimum = 7
	maximum = 39
Slowest flit = 26668
Fragmentation average = 0
	minimum = 0
	maximum = 0
Injected packet rate average = 0.0200625
	minimum = 0.012 (at node 14)
	maximum = 0.029 (at node 7)
Accepted packet rate average = 0.0194375
	minimum = 0.013 (at node 3)
	maximum = 0.033 (at node 10)
Injected flit rate average = 0.0200625
	minimum = 0.012 (at node 14)
	maximum = 0.029 (at node 7)
Accepted flit rate average= 0.0194375
	minimum = 0.013 (at node 3)
	maximum = 0.033 (at node 10)
Injected packet length average = 1
Accepted packet length average = 1
Total in-flight flits = 10 (0 measured)
latency change    = 1
throughput change = 1
Class 0:
Packet latency average = 19.7076
	minimum = 7
	maximum = 39
Network latency average = 19.7076
	minimum = 7
	maximum = 39
Slowest packet = 26668
Flit latency average = 19.7076
	minimum = 7
	maximum = 39
Slowest flit = 26668
Fragmentation average = 0
	minimum = 0
	maximum = 0
Injected packet rate average = 0.0203438
	minimum = 0.016 (at node 14)
	maximum = 0.025 (at node 9)
Accepted packet rate average = 0.0200938
	minimum = 0.0125 (at node 13)
	maximum = 0.029 (at node 6)
Injected flit rate average = 0.0203438
	minimum = 0.016 (at node 14)
	maximum = 0.025 (at node 9)
Accepted flit rate average= 0.0200938
	minimum = 0.0125 (at node 13)
	maximum = 0.029 (at node 6)
Injected packet length average = 1
Accepted packet length average = 1
Total in-flight flits = 8 (0 measured)
latency change    = 0.00847274
throughput change = 0.0326594
Class 0:
Packet latency average = 18.973
	minimum = 7
	maximum = 37
Network latency average = 18.973
	minimum = 7
	maximum = 37
Slowest packet = 27300
Flit latency average = 18.973
	minimum = 7
	maximum = 37
Slowest flit = 27300
Fragmentation average = 0
	minimum = 0
	maximum = 0
Injected packet rate average = 0.0205
	minimum = 0.015 (at node 7)
	maximum = 0.029 (at node 3)
Accepted packet rate average = 0.0208125
	minimum = 0.013 (at node 15)
	maximum = 0.028 (at node 1)
Injected flit rate average = 0.0205
	minimum = 0.015 (at node 7)
	maximum = 0.029 (at node 3)
Accepted flit rate average= 0.0208125
	minimum = 0.013 (at node 15)
	maximum = 0.028 (at node 1)
Injected packet length average = 1
Accepted packet length average = 1
Total in-flight flits = 3 (0 measured)
latency change    = 0.0387207
throughput change = 0.0345345
Warmed up ...Time used is 3000 cycles
Class 0:
Packet latency average = 19.5329
	minimum = 7
	maximum = 37
Network latency average = 19.5329
	minimum = 7
	maximum = 37
Slowest packet = 27567
Flit latency average = 19.5404
	minimum = 7
	maximum = 37
Slowest flit = 27567
Fragmentation average = 0
	minimum = 0
	maximum = 0
Injected packet rate average = 0.0200625
	minimum = 0.015 (at node 0)
	maximum = 0.025 (at node 3)
Accepted packet rate average = 0.020125
	minimum = 0.012 (at node 8)
	maximum = 0.027 (at node 4)
Injected flit rate average = 0.0200625
	minimum = 0.015 (at node 0)
	maximum = 0.025 (at node 3)
Accepted flit rate average= 0.020125
	minimum = 0.012 (at node 8)
	maximum = 0.027 (at node 4)
Injected packet length average = 1
Accepted packet length average = 1
Total in-flight flits = 2 (2 measured)
latency change    = 0.0286666
throughput change = 0.0341615
Class 0:
Packet latency average = 19.4024
	minimum = 7
	maximum = 38
Network latency average = 19.4024
	minimum = 7
	maximum = 38
Slowest packet = 27954
Flit latency average = 19.4066
	minimum = 7
	maximum = 38
Slowest flit = 27954
Fragmentation average = 0
	minimum = 0
	maximum = 0
Injected packet rate average = 0.020875
	minimum = 0.016 (at node 7)
	maximum = 0.0265 (at node 3)
Accepted packet rate average = 0.0209063
	minimum = 0.0135 (at node 15)
	maximum = 0.027 (at node 4)
Injected flit rate average = 0.020875
	minimum = 0.016 (at node 7)
	maximum = 0.0265 (at node 3)
Accepted flit rate average= 0.0209063
	minimum = 0.0135 (at node 15)
	maximum = 0.027 (at node 4)
Injected packet length average = 1
Accepted packet length average = 1
Total in-flight flits = 2 (2 measured)
latency change    = 0.00672664
throughput change = 0.0373692
Class 0:
Packet latency average = 19.5047
	minimum = 7
	maximum = 38
Network latency average = 19.5047
	minimum = 7
	maximum = 38
Slowest packet = 27954
Flit latency average = 19.5073
	minimum = 7
	maximum = 38
Slowest flit = 27954
Fragmentation average = 0
	minimum = 0
	maximum = 0
Injected packet rate average = 0.02
	minimum = 0.0173333 (at node 1)
	maximum = 0.024 (at node 3)
Accepted packet rate average = 0.02
	minimum = 0.0153333 (at node 5)
	maximum = 0.024 (at node 4)
Injected flit rate average = 0.02
	minimum = 0.0173333 (at node 1)
	maximum = 0.024 (at node 3)
Accepted flit rate average= 0.02
	minimum = 0.0153333 (at node 5)
	maximum = 0.024 (at node 4)
Injected packet length average = 1
Accepted packet length average = 1
Total in-flight flits = 3 (3 measured)
latency change    = 0.00524488
throughput change = 0.0453125
Draining all recorded packets ...
Draining remaining packets ...
Time taken is 6049 cycles
Class 0:
Packet latency average = 18.6592
	minimum = 7
	maximum = 38
Network latency average = 18.6592
	minimum = 7
	maximum = 38
Slowest packet = 28721
Flit latency average = 18.6592
	minimum = 7
	maximum = 38
Slowest flit = 28721
Fragmentation average = 0
	minimum = 0
	maximum = 0
Injected packet rate average = 0.017125
	minimum = 0.011 (at node 6)
	maximum = 0.025 (at node 4)
Accepted packet rate average = 0.0166875
	minimum = 0.012 (at node 13)
	maximum = 0.025 (at node 11)
Injected flit rate average = 0.017125
	minimum = 0.011 (at node 6)
	maximum = 0.025 (at node 4)
Accepted flit rate average= 0.0166875
	minimum = 0.012 (at node 13)
	maximum = 0.025 (at node 11)
Injected packet length average = 1
Accepted packet length average = 1
Total in-flight flits = 7 (0 measured)
latency change    = 1
throughput change = 1
Class 0:
Packet latency average = 19.1407
	minimum = 7
	maximum = 45
Network latency average = 19.1407
	minimum = 7
	maximum = 45
Slowest packet = 28949
Flit latency average = 19.1407
	minimum = 7
	maximum = 45
Slowest flit = 28949
Fragmentation average = 0
	minimum = 0
	maximum = 0
Injected packet rate average = 0.0191562
	minimum = 0.0145 (at node 7)
	maximum = 0.024 (at node 5)
Accepted packet rate average = 0.018875
	minimum = 0.015 (at node 14)
	maximum = 0.0265 (at node 11)
Injected flit rate average = 0.0191562
	minimum = 0.0145 (at node 7)
	maximum = 0.024 (at node 5)
Accepted flit rate average= 0.018875
	minimum = 0.015 (at node 14)
	maximum = 0.0265 (at node 11)
Injected packet length average = 1
Accepted packet length average = 1
Total in-flight flits = 9 (0 measured)
latency change    = 0.0251585
throughput change = 0.115894
Class 0:
Packet latency average = 19.9594
	minimum = 7
	maximum = 38
Network latency average = 19.9594
	minimum = 7
	maximum = 38
Slowest packet = 29156
Flit latency average = 19.9594
	minimum = 7
	maximum = 38
Slowest flit = 29156
Fragmentation average = 0
	minimum = 0
	maximum = 0
Injected packet rate average = 0.019875
	minimum = 0.006 (at node 13)
	maximum = 0.03 (at node 9)
Accepted packet rate average = 0.02
	minimum = 0.014 (at node 4)
	maximum = 0.027 (at node 11)
Injected flit rate average = 0.019875
	minimum = 0.006 (at node 13)
	maximum = 0.03 (at node 9)
Accepted flit rate average= 0.02
	minimum = 0.014 (at node 4)
	maximum = 0.027 (at node 11)
Injected packet length average = 1
Accepted packet length average = 1
Total in-flight flits = 7 (0 measured)
latency change    = 0.0410156
throughput change = 0.05625
[...]
	maximum = 37
Slowest flit = 213848
Fragmentation average = 0
	minimum = 0
	maximum = 0
Injected packet rate average = 0.0201875
	minimum = 0.013 (at node 6)
	maximum = 0.032 (at node 10)
Accepted packet rate average = 0.02
	minimum = 0.012 (at node 15)
	maximum = 0.026 (at node 9)
Injected flit rate average = 0.0201875
	minimum = 0.013 (at node 6)
	maximum = 0.032 (at node 10)
Accepted flit rate average= 0.02
	minimum = 0.012 (at node 15)
	maximum = 0.026 (at node 9)
Injected packet length average = 1
Accepted packet length average = 1
Total in-flight flits = 3 (0 measured)
latency change    = 1
throughput change = 1
Class 0:
Packet latency average = 19.1832
	minimum = 7
	maximum = 45
Network latency average = 19.1832
	minimum = 7
	maximum = 45
Slowest packet = 214328
Flit latency average = 19.1832
	minimum = 7
	maximum = 45
Slowest flit = 214328
Fragmentation average = 0
	minimum = 0
	maximum = 0
Injected packet rate average = 0.0202813
	minimum = 0.0135 (at node 14)
	maximum = 0.026 (at node 10)
Accepted packet rate average = 0.020125
	minimum = 0.0165 (at node 15)
	maximum = 0.024 (at node 3)
Injected flit rate average = 0.0202813
	minimum = 0.0135 (at node 14)
	maximum = 0.026 (at node 10)
Accepted flit rate average= 0.020125
	minimum = 0.0165 (at node 15)
	maximum = 0.024 (at node 3)
Injected packet length average = 1
Accepted packet length average = 1
Total in-flight flits = 5 (0 measured)
latency change    = 0.0194886
throughput change = 0.00621118
Class 0:
Packet latency average = 19.2671
	minimum = 7
	maximum = 37
Network latency average = 19.2671
	minimum = 7
	maximum = 37
Slowest packet = 214592
Flit latency average = 19.2671
	minimum = 7
	maximum = 37
Slowest flit = 214592
Fragmentation average = 0
	minimum = 0
	maximum = 0
Injected packet rate average = 0.0191875
	minimum = 0.016 (at node 6)
	maximum = 0.031 (at node 10)
Accepted packet rate average = 0.0191875
	minimum = 0.011 (at node 8)
	maximum = 0.028 (at node 14)
Injected flit rate average = 0.0191875
	minimum = 0.016 (at node 6)
	maximum = 0.031 (at node 10)
Accepted flit rate average= 0.0191875
	minimum = 0.011 (at node 8)
	maximum = 0.028 (at node 14)
Injected packet length average = 1
Accepted packet length average = 1
Total in-flight flits = 5 (0 measured)
latency change    = 0.00435308
throughput change = 0.0488599
Warmed up ...Time used is 3000 cycles
Class 0:
Packet latency average = 19.7115
	minimum = 7
	maximum = 40
Network latency average = 19.7115
	minimum = 7
	maximum = 40
Slowest packet = 215007
Flit latency average = 19.7161
	minimum = 7
	maximum = 40
Slowest flit = 215007
Fragmentation average = 0
	minimum = 0
	maximum = 0
Injected packet rate average = 0.019375
	minimum = 0.01 (at node 6)
	maximum = 0.025 (at node 14)
Accepted packet rate average = 0.019375
	minimum = 0.012 (at node 1)
	maximum = 0.029 (at node 6)
Injected flit rate average = 0.019375
	minimum = 0.01 (at node 6)
	maximum = 0.025 (at node 14)
Accepted flit rate average= 0.019375
	minimum = 0.012 (at node 1)
	maximum = 0.029 (at node 6)
Injected packet length average = 1
Accepted packet length average = 1
Total in-flight flits = 5 (5 measured)
latency change    = 0.0225439
throughput change = 0.00967742
Class 0:
Packet latency average = 19.7703
	minimum = 7
	maximum = 40
Network latency average = 19.7703
	minimum = 7
	maximum = 40
Slowest packet = 215007
Flit latency average = 19.772
	minimum = 7
	maximum = 40
Slowest flit = 215007
Fragmentation average = 0
	minimum = 0
	maximum = 0
Injected packet rate average = 0.0205938
	minimum = 0.014 (at node 4)
	maximum = 0.027 (at node 10)
Accepted packet rate average = 0.0205625
	minimum = 0.0145 (at node 2)
	maximum = 0.0245 (at node 3)
Injected flit rate average = 0.0205938
	minimum = 0.014 (at node 4)
	maximum = 0.027 (at node 10)
Accepted flit rate average= 0.0205625
	minimum = 0.0145 (at node 2)
	maximum = 0.0245 (at node 3)
Injected packet length average = 1
Accepted packet length average = 1
Total in-flight flits = 6 (6 measured)
latency change    = 0.00297495
throughput change = 0.0577508
Class 0:
Packet latency average = 19.7081
	minimum = 7
	maximum = 40
Network latency average = 19.7081
	minimum = 7
	maximum = 40
Slowest packet = 215007
Flit latency average = 19.7096
	minimum = 7
	maximum = 40
Slowest flit = 215007
Fragmentation average = 0
	minimum = 0
	maximum = 0
Injected packet rate average = 0.0204375
	minimum = 0.0156667 (at node 4)
	maximum = 0.0263333 (at node 14)
Accepted packet rate average = 0.020375
	minimum = 0.015 (at node 4)
	maximum = 0.025 (at node 8)
Injected flit rate average = 0.0204375
	minimum = 0.0156667 (at node 4)
	maximum = 0.0263333 (at node 14)
Accepted flit rate average= 0.020375
	minimum = 0.015 (at node 4)
	maximum = 0.025 (at node 8)
Injected packet length average = 1
Accepted packet length average = 1
Total in-flight flits = 8 (8 measured)
latency change    = 0.00315463
throughput change = 0.00920245
Class 0:
Packet latency average = 19.7517
	minimum = 7
	maximum = 40
Network latency average = 19.7517
	minimum = 7
	maximum = 40
Slowest packet = 215007
Flit latency average = 19.7527
	minimum = 7
	maximum = 40
Slowest flit = 215007
Fragmentation average = 0
	minimum = 0
	maximum = 0
Injected packet rate average = 0.0203281
	minimum = 0.01725 (at node 1)
	maximum = 0.02625 (at node 14)
Accepted packet rate average = 0.0203438
	minimum = 0.01625 (at node 2)
	maximum = 0.0235 (at node 8)
Injected flit rate average = 0.0203281
	minimum = 0.01725 (at node 1)
	maximum = 0.02625 (at node 14)
Accepted flit rate average= 0.0203438
	minimum = 0.01625 (at node 2)
	maximum = 0.0235 (at node 8)
Injected packet length average = 1
Accepted packet length average = 1
Total in-flight flits = 4 (4 measured)
latency change    = 0.00220819
throughput change = 0.0015361
Class 0:
Packet latency average = 19.5508
	minimum = 7
	maximum = 40
Network latency average = 19.5508
	minimum = 7
	maximum = 40
Slowest packet = 215007
Flit latency average = 19.5522
	minimum = 7
	maximum = 40
Slowest flit = 215007
Fragmentation average = 0
	minimum = 0
	maximum = 0
Injected packet rate average = 0.0197375
	minimum = 0.017 (at node 1)
	maximum = 0.0256 (at node 14)
Accepted packet rate average = 0.0197375
	minimum = 0.016 (at node 2)
	maximum = 0.0228 (at node 14)
Injected flit rate average = 0.0197375
	minimum = 0.017 (at node 1)
	maximum = 0.0256 (at node 14)
Accepted flit rate average= 0.0197375
	minimum = 0.016 (at node 2)
	maximum = 0.0228 (at node 14)
Injected packet length average = 1
Accepted packet length average = 1
Total in-flight flits = 5 (5 measured)
latency change    = 0.0102762
throughput change = 0.0307156
Draining all recorded packets ...
Draining remaining packets ...
Time taken is 8055 cycles
Class 0:
Packet latency average = 19.7273
	minimum = 7
	maximum = 37
Network latency average = 19.7273
	minimum = 7
	maximum = 37
Slowest packet = 216367
Flit latency average = 19.7273
	minimum = 7
	maximum = 37
Slowest flit = 216367
Fragmentation average = 0
	minimum = 0
	maximum = 0
Injected packet rate average = 0.0203125
	minimum = 0.014 (at node 0)
	maximum = 0.024 (at node 2)
Accepted packet rate average = 0.0199375
	minimum = 0.011 (at node 1)
	maximum = 0.028 (at node 13)
Injected flit rate average = 0.0203125
	minimum = 0.014 (at node 0)
	maximum = 0.024 (at node 2)
Accepted flit rate average= 0.0199375
	minimum = 0.011 (at node 1)
	maximum = 0.028 (at node 13)
Injected packet length average = 1
Accepted packet length average = 1
Total in-flight flits = 6 (0 measured)
latency change    = 1
throughput change = 1
Class 0:
Packet latency average = 19.2726
	minimum = 7
	maximum = 39
Network latency average = 19.2726
	minimum = 7
	maximum = 39
Slowest packet = 216705
Flit latency average = 19.2726
	minimum = 7
	maximum = 39
Slowest flit = 216705
Fragmentation average = 0
	minimum = 0
	maximum = 0
Injected packet rate average = 0.0203125
	minimum = 0.016 (at node 15)
	maximum = 0.024 (at node 2)
Accepted packet rate average = 0.0200625
	minimum = 0.015 (at node 7)
	maximum = 0.027 (at node 11)
Injected flit rate average = 0.0203125
	minimum = 0.016 (at node 15)
	maximum = 0.024 (at node 2)
Accepted flit rate average= 0.0200625
	minimum = 0.015 (at node 7)
	maximum = 0.027 (at node 11)
Injected packet length average = 1
Accepted packet length average = 1
Total in-flight flits = 8 (0 measured)
latency change    = 0.0235924
throughput change = 0.00623053
Class 0:
Packet latency average = 19.1678
	minimum = 7
	maximum = 45
Network latency average = 19.1678
	minimum = 7
	maximum = 45
Slowest packet = 217176
Flit latency average = 19.1678
	minimum = 7
	maximum = 45
Slowest flit = 217176
Fragmentation average = 0
	minimum = 0
	maximum = 0
Injected packet rate average = 0.0180625
	minimum = 0.011 (at node 0)
	maximum = 0.025 (at node 5)
Accepted packet rate average = 0.01825
	minimum = 0.01 (at node 13)
	maximum = 0.024 (at node 0)
Injected flit rate average = 0.0180625
	minimum = 0.011 (at node 0)
	maximum = 0.025 (at node 5)
Accepted flit rate average= 0.01825
	minimum = 0.01 (at node 13)
	maximum = 0.024 (at node 0)
Injected packet length average = 1
Accepted packet length average = 1
Total in-flight flits = 5 (0 measured)
latency change    = 0.00546632
throughput change = 0.0993151
Warmed up ...Time used is 3000 cycles
Class 0:
Packet latency average = 18.8036
	minimum = 7
	maximum = 42
Network latency average = 18.8036
	minimum = 7
	maximum = 42
Slowest packet = 217422
Flit latency average = 18.881
	minimum = 7
	maximum = 42
Slowest flit = 217422
Fragmentation average = 0
	minimum = 0
	maximum = 0
Injected packet rate average = 0.021375
	minimum = 0.013 (at node 8)
	maximum = 0.03 (at node 12)
Accepted packet rate average = 0.021
	minimum = 0.015 (at node 9)
	maximum = 0.03 (at node 11)
Injected flit rate average = 0.021375
	minimum = 0.013 (at node 8)
	maximum = 0.03 (at node 12)
Accepted flit rate average= 0.021
	minimum = 0.015 (at node 9)
	maximum = 0.03 (at node 11)
Injected packet length average = 1
Accepted packet length average = 1
Total in-flight flits = 11 (11 measured)
latency change    = 0.0193677
throughput change = 0.130952
Class 0:
Packet latency average = 19.1341
	minimum = 7
	maximum = 42
Network latency average = 19.1341
	minimum = 7
	maximum = 42
Slowest packet = 217422
Flit latency average = 19.171
	minimum = 7
	maximum = 42
Slowest flit = 217422
Fragmentation average = 0
	minimum = 0
	maximum = 0
Injected packet rate average = 0.0208125
	minimum = 0.014 (at node 8)
	maximum = 0.028 (at node 12)
Accepted packet rate average = 0.0206563
	minimum = 0.0145 (at node 13)
	maximum = 0.025 (at node 10)
Injected flit rate average = 0.0208125
	minimum = 0.014 (at node 8)
	maximum = 0.028 (at node 12)
Accepted flit rate average= 0.0206563
	minimum = 0.0145 (at node 13)
	maximum = 0.025 (at node 10)
Injected packet length average = 1
Accepted packet length average = 1
Total in-flight flits = 10 (10 measured)
latency change    = 0.0172739
throughput change = 0.0166415
Class 0:
Packet latency average = 19.387
	minimum = 7
	maximum = 42
Network latency average = 19.387
	minimum = 7
	maximum = 42
Slowest packet = 217422
Flit latency average = 19.4096
	minimum = 7
	maximum = 42
Slowest flit = 217422
Fragmentation average = 0
	minimum = 0
	maximum = 0
Injected packet rate average = 0.021375
	minimum = 0.016 (at node 8)
	maximum = 0.027 (at node 0)
Accepted packet rate average = 0.0213125
	minimum = 0.0173333 (at node 13)
	maximum = 0.024 (at node 3)
Injected flit rate average = 0.021375
	minimum = 0.016 (at node 8)
	maximum = 0.027 (at node 0)
Accepted flit rate average= 0.0213125
	minimum = 0.0173333 (at node 13)
	maximum = 0.024 (at node 3)
Injected packet length average = 1
Accepted packet length average = 1
Total in-flight flits = 8 (8 measured)
latency change    = 0.0130441
throughput change = 0.0307918
Class 0:
Packet latency average = 19.2847
	minimum = 7
	maximum = 42
Network latency average = 19.2847
	minimum = 7
	maximum = 42
Slowest packet = 217422
Flit latency average = 19.3024
	minimum = 7
	maximum = 42
Slowest flit = 217422
Fragmentation average = 0
	minimum = 0
	maximum = 0
Injected packet rate average = 0.0209375
	minimum = 0.0165 (at node 4)
	maximum = 0.0255 (at node 2)
Accepted packet rate average = 0.020875
	minimum = 0.0165 (at node 13)
	maximum = 0.02375 (at node 3)
Injected flit rate average = 0.0209375
	minimum = 0.0165 (at node 4)
	maximum = 0.0255 (at node 2)
Accepted flit rate average= 0.020875
	minimum = 0.0165 (at node 13)
	maximum = 0.02375 (at node 3)
Injected packet length average = 1
Accepted packet length average = 1
Total in-flight flits = 9 (9 measured)
latency change    = 0.00530394
throughput change = 0.0209581
Draining all recorded packets ...
Draining remaining packets ...
Time taken is 7054 cycles
Class 0:
Packet latency average = 19.7191
	minimum = 7
	maximum = 38
Network latency average = 19.7191
	minimum = 7
	maximum = 38
Slowest packet = 218799
Flit latency average = 19.7191
	minimum = 7
	maximum = 38
Slowest flit = 218799
Fragmentation average = 0
	minimum = 0
	maximum = 0
Injected packet rate average = 0.019125
	minimum = 0.012 (at node 4)
	maximum = 0.027 (at node 14)
Accepted packet rate average = 0.0186875
	minimum = 0.012 (at node 1)
	maximum = 0.027 (at node 5)
Injected flit rate average = 0.019125
	minimum = 0.012 (at node 4)
	maximum = 0.027 (at node 14)
Accepted flit rate average= 0.0186875
	minimum = 0.012 (at node 1)
	maximum = 0.027 (at node 5)
Injected packet length average = 1
Accepted packet length average = 1
Total in-flight flits = 7 (0 measured)
latency change    = 1
throughput change = 1
Class 0:
Packet latency average = 19.6187
	minimum = 7
	maximum = 38
Network latency average = 19.6187
	minimum = 7
	maximum = 38
Slowest packet = 218799
Flit latency average = 19.6187
	minimum = 7
	maximum = 38
Slowest flit = 218799
Fragmentation average = 0
	minimum = 0
	maximum = 0
Injected packet rate average = 0.0195938
	minimum = 0.0125 (at node 15)
	maximum = 0.0245 (at node 2)
Accepted packet rate average = 0.0193437
	minimum = 0.014 (at node 1)
	maximum = 0.0275 (at node 5)
Injected flit rate average = 0.0195938
	minimum = 0.0125 (at node 15)
	maximum = 0.0245 (at node 2)
Accepted flit rate average= 0.0193437
	minimum = 0.014 (at node 1)
	maximum = 0.0275 (at node 5)
Injected packet length average = 1
Accepted packet length average = 1
Total in-flight flits = 8 (0 measured)
latency change    = 0.00511366
throughput change = 0.0339257
Class 0:
Packet latency average = 18.7407
	minimum = 7
	maximum = 37
Network latency average = 18.7407
	minimum = 7
	maximum = 37
Slowest packet = 219274
Flit latency average = 18.7407
	minimum = 7
	maximum = 37
Slowest flit = 219274
Fragmentation average = 0
	minimum = 0
	maximum = 0
Injected packet rate average = 0.0185
	minimum = 0.009 (at node 14)
	maximum = 0.029 (at node 2)
Accepted packet rate average = 0.0185625
	minimum = 0.015 (at node 13)
	maximum = 0.026 (at node 0)
Injected flit rate average = 0.0185
	minimum = 0.009 (at node 14)
	maximum = 0.029 (at node 2)
Accepted flit rate average= 0.0185625
	minimum = 0.015 (at node 13)
	maximum = 0.026 (at node 0)
Injected packet length average = 1
Accepted packet length average = 1
Total in-flight flits = 7 (0 measured)
latency change    = 0.0468498
throughput change = 0.0420875
Warmed up ...Time used is 3000 cycles
Class 0:
Packet latency average = 20.5051
	minimum = 7
	maximum = 40
Network latency average = 20.5051
	minimum = 7
	maximum = 40
Slowest packet = 219631
Flit latency average = 20.5395
	minimum = 7
	maximum = 40
Slowest flit = 219631
Fragmentation average = 0
	minimum = 0
	maximum = 0
Injected packet rate average = 0.01875
	minimum = 0.01 (at node 9)
	maximum = 0.027 (at node 0)
Accepted packet rate average = 0.019
	minimum = 0.009 (at node 12)
	maximum = 0.024 (at node 11)
Injected flit rate average = 0.01875
	minimum = 0.01 (at node 9)
	maximum = 0.027 (at node 0)
Accepted flit rate average= 0.019
	minimum = 0.009 (at node 12)
	maximum = 0.024 (at node 11)
Injected packet length average = 1
Accepted packet length average = 1
Total in-flight flits = 3 (3 measured)
latency change    = 0.0860427
throughput change = 0.0230263
Class 0:
Packet latency average = 19.8646
	minimum = 7
	maximum = 41
Network latency average = 19.8646
	minimum = 7
	maximum = 41
Slowest packet = 220144
Flit latency average = 19.8882
	minimum = 7
	maximum = 41
Slowest flit = 220144
Fragmentation average = 0
	minimum = 0
	maximum = 0
Injected packet rate average = 0.0197813
	minimum = 0.0135 (at node 11)
	maximum = 0.024 (at node 15)
Accepted packet rate average = 0.0198438
	minimum = 0.013 (at node 5)
	maximum = 0.028 (at node 8)
Injected flit rate average = 0.0197813
	minimum = 0.0135 (at node 11)
	maximum = 0.024 (at node 15)
Accepted flit rate average= 0.0198438
	minimum = 0.013 (at node 5)
	maximum = 0.028 (at node 8)
Injected packet length average = 1
Accepted packet length average = 1
Total in-flight flits = 5 (5 measured)
latency change    = 0.0322382
throughput change = 0.0425197
Class 0:
Packet latency average = 19.8138
	minimum = 7
	maximum = 41
Network latency average = 19.8138
	minimum = 7
	maximum = 41
Slowest packet = 220144
Flit latency average = 19.8294
	minimum = 7
	maximum = 41
Slowest flit = 220144
Fragmentation average = 0
	minimum = 0
	maximum = 0
Injected packet rate average = 0.0204167
	minimum = 0.0153333 (at node 12)
	maximum = 0.0256667 (at node 2)
Accepted packet rate average = 0.0203958
	minimum = 0.013 (at node 5)
	maximum = 0.0286667 (at node 8)
Injected flit rate average = 0.0204167
	minimum = 0.0153333 (at node 12)
	maximum = 0.0256667 (at node 2)
Accepted flit rate average= 0.0203958
	minimum = 0.013 (at node 5)
	maximum = 0.0286667 (at node 8)
Injected packet length average = 1
Accepted packet length average = 1
Total in-flight flits = 8 (8 measured)
latency change    = 0.00256709
throughput change = 0.0270684
Class 0:
Packet latency average = 19.7214
	minimum = 7
	maximum = 41
Network latency average = 19.7214
	minimum = 7
	maximum = 41
Slowest packet = 220144
Flit latency average = 19.7337
	minimum = 7
	maximum = 41
Slowest flit = 220144
Fragmentation average = 0
	minimum = 0
	maximum = 0
Injected packet rate average = 0.0201563
	minimum = 0.01525 (at node 12)
	maximum = 0.02525 (at node 2)
Accepted packet rate average = 0.0201875
	minimum = 0.015 (at node 5)
	maximum = 0.02725 (at node 8)
Injected flit rate average = 0.0201563
	minimum = 0.01525 (at node 12)
	maximum = 0.02525 (at node 2)
Accepted flit rate average= 0.0201875
	minimum = 0.015 (at node 5)
	maximum = 0.02725 (at node 8)
Injected packet length average = 1
Accepted packet length average = 1
Total in-flight flits = 5 (5 measured)
latency change    = 0.00468452
throughput change = 0.0103199
Draining all recorded packets ...
Draining remaining packets ...
Time taken is 7022 cycles
====== Overall Traffic Statistics ======
====== Traffic class 0 ======
Packet latency average = 19.6015 (100 samples)
	minimum = 7 (100 samples)
	maximum = 40.41 (100 samples)
Network latency average = 19.6015 (100 samples)
	minimum = 7 (100 samples)
	maximum = 40.4 (100 samples)
Flit latency average = 19.6138 (100 samples)
	minimum = 7 (100 samples)
	maximum = 40.4 (100 samples)
Fragmentation average = 0 (100 samples)
	minimum = 0 (100 samples)
	maximum = 0 (100 samples)
Injected packet rate average = 0.0200146 (100 samples)
	minimum = 0.0162025 (100 samples)
	maximum = 0.0240015 (100 samples)
Accepted packet rate average = 0.020023 (100 samples)
	minimum = 0.0159797 (100 samples)
	maximum = 0.0241636 (100 samples)
Injected flit rate average = 0.0200146 (100 samples)
	minimum = 0.0162025 (100 samples)
	maximum = 0.0240015 (100 samples)
Accepted flit rate average = 0.020023 (100 samples)
	minimum = 0.0159797 (100 samples)
	maximum = 0.0241636 (100 samples)
Injected packet size average = 1 (100 samples)
Accepted packet size average = 1 (100 samples)
Hops average = 3.49983 (100 samples)
Total run time 4.91191
