BEGIN Configuration File: /tmp/tmpqi_7s1dy.cfg
topology = mesh;
k = 4;
n = 2;
routing_function = dor;
num_vcs = 4;
vc_buf_size = 4;
wait_for_tail_credit = 1;
vc_allocator = islip;
sw_allocator = islip;
alloc_iters = 1;
credit_delay = 2;
routing_delay = 1;
vc_alloc_delay = 1;
sw_alloc_delay = 1;
input_speedup = 2;
output_speedup = 1;
internal_speedup = 1.0;
traffic = uniform;
packet_size = 1;
sim_type = latency;
injection_rate = 0.01;
warmup_periods = 3;
sample_period = 1000;
sim_count = 100;
seed = 0;

END Configuration File: /tmp/tmpqi_7s1dy.cfg
Class 0:
Packet latency average = 19.1623
	minimum = 7
	maximum = 37
Network latency average = 19.1623
	minimum = 7
	maximum = 37
Slowest packet = 23
Flit latency average = 19.1623
	minimum = 7
	maximum = 37
Slowest flit = 23
Fragmentation average = 0
	minimum = 0
	maximum = 0
Injected packet rate average = 0.00975
	minimum = 0.004 (at node 11)
	maximum = 0.014 (at node 13)
Accepted packet rate average = 0.009625
	minimum = 0.004 (at node 11)
	maximum = 0.016 (at node 9)
Injected flit rate average = 0.00975
	minimum = 0.004 (at node 11)
	maximum = 0.014 (at node 13)
Accepted flit rate average= 0.009625
	minimum = 0.004 (at node 11)
	maximum = 0.016 (at node 9)
Injected packet length average = 1
Accepted packet length average = 1
Total in-flight flits = 2 (0 measured)
latency change    = 1
throughput change = 1
Class 0:
Packet latency average = 19.141
	minimum = 7
	maximum = 37
Network latency average = 19.141
	minimum = 7
	maximum = 37
Slowest packet = 23
Flit latency average = 19.141
	minimum = 7
	maximum = 37
Slowest flit = 23
Fragmentation average = 0
	minimum = 0
	maximum = 0
Injected packet rate average = 0.009625
	minimum = 0.006 (at node 11)
	maximum = 0.0125 (at node 0)
Accepted packet rate average = 0.00953125
	minimum = 0.004 (at node 11)
	maximum = 0.013 (at node 2)
Injected flit rate average = 0.009625
	minimum = 0.006 (at node 11)
	maximum = 0.0125 (at node 0)
Accepted flit rate average= 0.00953125
	minimum = 0.004 (at node 11)
	maximum = 0.013 (at node 2)
Injected packet length average = 1
Accepted packet length average = 1
Total in-flight flits = 3 (0 measured)
latency change    = 0.00111562
throughput change = 0.00983607
Class 0:
Packet latency average = 20.3951
	minimum = 7
	maximum = 37
Network latency average = 20.3951
	minimum = 7
	maximum = 37
Slowest packet = 320
Flit latency average = 20.3951
	minimum = 7
	maximum = 37
Slowest flit = 320
Fragmentation average = 0
	minimum = 0
	maximum = 0
Injected packet rate average = 0.01
	minimum = 0.006 (at node 0)
	maximum = 0.012 (at node 3)
Accepted packet rate average = 0.010125
	minimum = 0.007 (at node 10)
	maximum = 0.014 (at node 0)
Injected flit rate average = 0.01
	minimum = 0.006 (at node 0)
	maximum = 0.012 (at node 3)
Accepted flit rate average= 0.010125
	minimum = 0.007 (at node 10)
	maximum = 0.014 (at node 0)
Injected packet length average = 1
Accepted packet length average = 1
Total in-flight flits = 1 (0 measured)
latency change    = 0.0614893
throughput change = 0.058642
Warmed up ...Time used is 3000 cycles
Class 0:
Packet latency average = 20.2517
	minimum = 7
	maximum = 37
Network latency average = 20.2517
	minimum = 7
	maximum = 37
Slowest packet = 489
Flit latency average = 20.2986
	minimum = 7
	maximum = 37
Slowest flit = 489
Fragmentation average = 0
	minimum = 0
	maximum = 0
Injected packet rate average = 0.0091875
	minimum = 0.005 (at node 1)
	maximum = 0.015 (at node 4)
Accepted packet rate average = 0.009
	minimum = 0.002 (at node 6)
	maximum = 0.016 (at node 1)
Injected flit rate average = 0.0091875
	minimum = 0.005 (at node 1)
	maximum = 0.015 (at node 4)
Accepted flit rate average= 0.009
	minimum = 0.002 (at node 6)
	maximum = 0.016 (at node 1)
Injected packet length average = 1
Accepted packet length average = 1
Total in-flight flits = 4 (4 measured)
latency change    = 0.0070766
throughput change = 0.125
Class 0:
Packet latency average = 19.6804
	minimum = 7
	maximum = 37
Network latency average = 19.6804
	minimum = 7
	maximum = 37
Slowest packet = 489
Flit latency average = 19.7055
	minimum = 7
	maximum = 37
Slowest flit = 489
Fragmentation average = 0
	minimum = 0
	maximum = 0
Injected packet rate average = 0.00909375
	minimum = 0.007 (at node 12)
	maximum = 0.0125 (at node 10)
Accepted packet rate average = 0.009125
	minimum = 0.0065 (at node 7)
	maximum = 0.012 (at node 8)
Injected flit rate average = 0.00909375
	minimum = 0.007 (at node 12)
	maximum = 0.0125 (at node 10)
Accepted flit rate average= 0.009125
	minimum = 0.0065 (at node 7)
	maximum = 0.012 (at node 8)
Injected packet length average = 1
Accepted packet length average = 1
Total in-flight flits = 0 (0 measured)
latency change    = 0.0290307
throughput change = 0.0136986
Class 0:
Packet latency average = 19.3229
	minimum = 7
	maximum = 37
Network latency average = 19.3229
	minimum = 7
	maximum = 37
Slowest packet = 489
Flit latency average = 19.34
	minimum = 7
	maximum = 37
Slowest flit = 489
Fragmentation average = 0
	minimum = 0
	maximum = 0
Injected packet rate average = 0.009375
	minimum = 0.00766667 (at node 2)
	maximum = 0.013 (at node 3)
Accepted packet rate average = 0.0093125
	minimum = 0.00666667 (at node 14)
	maximum = 0.0113333 (at node 12)
Injected flit rate average = 0.009375
	minimum = 0.00766667 (at node 2)
	maximum = 0.013 (at node 3)
Accepted flit rate average= 0.0093125
	minimum = 0.00666667 (at node 14)
	maximum = 0.0113333 (at node 12)
Injected packet length average = 1
Accepted packet length average = 1
Total in-flight flits = 4 (4 measured)
latency change    = 0.0185036
throughput change = 0.0201342
Class 0:
Packet latency average = 19.5574
	minimum = 7
	maximum = 37
Network latency average = 19.5574
	minimum = 7
	maximum = 37
Slowest packet = 489
Flit latency average = 19.5696
	minimum = 7
	maximum = 37
Slowest flit = 489
Fragmentation average = 0
	minimum = 0
	maximum = 0
Injected packet rate average = 0.00954687
	minimum = 0.007 (at node 2)
	maximum = 0.01375 (at node 3)
Accepted packet rate average = 0.00954687
	minimum = 0.00675 (at node 0)
	maximum = 0.011 (at node 12)
Injected flit rate average = 0.00954687
	minimum = 0.007 (at node 2)
	maximum = 0.01375 (at node 3)
Accepted flit rate average= 0.00954687
	minimum = 0.00675 (at node 0)
	maximum = 0.011 (at node 12)
Injected packet length average = 1
Accepted packet length average = 1
Total in-flight flits = 1 (1 measured)
latency change    = 0.0119907
throughput change = 0.0245499
Draining all recorded packets ...
Draining remaining packets ...
Time taken is 7033 cycles
Class 0:
Packet latency average = 20.2544
	minimum = 7
	maximum = 37
Network latency average = 20.2544
	minimum = 7
	maximum = 37
Slowest packet = 1094
Flit latency average = 20.2544
	minimum = 7
	maximum = 37
Slowest flit = 1094
Fragmentation average = 0
	minimum = 0
	maximum = 0
Injected packet rate average = 0.0109375
	minimum = 0.007 (at node 5)
	maximum = 0.018 (at node 1)
Accepted packet rate average = 0.0105625
	minimum = 0.007 (at node 3)
	maximum = 0.017 (at node 4)
Injected flit rate average = 0.0109375
	minimum = 0.007 (at node 5)
	maximum = 0.018 (at node 1)
Accepted flit rate average= 0.0105625
	minimum = 0.007 (at node 3)
	maximum = 0.017 (at node 4)
Injected packet length average = 1
Accepted packet length average = 1
Total in-flight flits = 6 (0 measured)
latency change    = 1
throughput change = 1
Class 0:
Packet latency average = 19.4373
	minimum = 7
	maximum = 37
Network latency average = 19.4373
	minimum = 7
	maximum = 37
Slowest packet = 1094
Flit latency average = 19.4373
	minimum = 7
	maximum = 37
Slowest flit = 1094
Fragmentation average = 0
	minimum = 0
	maximum = 0
Injected packet rate average = 0.0113125
	minimum = 0.0075 (at node 8)
	maximum = 0.0165 (at node 1)
Accepted packet rate average = 0.0112187
	minimum = 0.006 (at node 3)
	maximum = 0.016 (at node 8)
Injected flit rate average = 0.0113125
	minimum = 0.0075 (at node 8)
	maximum = 0.0165 (at node 1)
Accepted flit rate average= 0.0112187
	minimum = 0.006 (at node 3)
	maximum = 0.016 (at node 8)
Injected packet length average = 1
Accepted packet length average = 1
Total in-flight flits = 3 (0 measured)
latency change    = 0.0420383
throughput change = 0.0584958
Class 0:
Packet latency average = 19.7241
	minimum = 7
	maximum = 37
Network latency average = 19.7241
	minimum = 7
	maximum = 37
Slowest packet = 1455
Flit latency average = 19.7241
	minimum = 7
	maximum = 37
Slowest flit = 1455
Fragmentation average = 0
	minimum = 0
	maximum = 0
Injected packet rate average = 0.0090625
	minimum = 0.003 (at node 6)
	maximum = 0.015 (at node 3)
Accepted packet rate average = 0.0090625
	minimum = 0.005 (at node 2)
	maximum = 0.014 (at node 1)
Injected flit rate average = 0.0090625
	minimum = 0.003 (at node 6)
	maximum = 0.015 (at node 3)
Accepted flit rate average= 0.0090625
	minimum = 0.005 (at node 2)
	maximum = 0.014 (at node 1)
Injected packet length average = 1
Accepted packet length average = 1
Total in-flight flits = 3 (0 measured)
latency change    = 0.0145412
throughput change = 0.237931
Warmed up ...Time used is 3000 cycles
Class 0:
Packet latency average = 19.5316
	minimum = 7
	maximum = 37
Network latency average = 19.5316
	minimum = 7
	maximum = 37
Slowest packet = 1621
Flit latency average = 19.5776
	minimum = 7
	maximum = 37
Slowest flit = 1621
Fragmentation average = 0
	minimum = 0
	maximum = 0
Injected packet rate average = 0.01
	minimum = 0.006 (at node 2)
	maximum = 0.015 (at node 11)
Accepted packet rate average = 0.0100625
	minimum = 0.005 (at node 10)
	maximum = 0.014 (at node 2)
Injected flit rate average = 0.01
	minimum = 0.006 (at node 2)
	maximum = 0.015 (at node 11)
Accepted flit rate average= 0.0100625
	minimum = 0.005 (at node 10)
	maximum = 0.014 (at node 2)
Injected packet length average = 1
Accepted packet length average = 1
Total in-flight flits = 2 (2 measured)
latency change    = 0.00985541
throughput change = 0.0993789
Class 0:
Packet latency average = 19.75
	minimum = 7
	maximum = 37
Network latency average = 19.75
	minimum = 7
	maximum = 37
Slowest packet = 1621
Flit latency average = 19.7706
	minimum = 7
	maximum = 37
Slowest flit = 1621
Fragmentation average = 0
	minimum = 0
	maximum = 0
Injected packet rate average = 0.0102813
	minimum = 0.007 (at node 3)
	maximum = 0.013 (at node 11)
Accepted packet rate average = 0.0102188
	minimum = 0.0065 (at node 5)
	maximum = 0.014 (at node 13)
Injected flit rate average = 0.0102813
	minimum = 0.007 (at node 3)
	maximum = 0.013 (at node 11)
Accepted flit rate average= 0.0102188
	minimum = 0.0065 (at node 5)
	maximum = 0.014 (at node 13)
Injected packet length average = 1
Accepted packet length average = 1
Total in-flight flits = 5 (5 measured)
latency change    = 0.0110559
throughput change = 0.0152905
Class 0:
Packet latency average = 19.7551
	minimum = 7
	maximum = 37
Network latency average = 19.7551
	minimum = 7
	maximum = 37
Slowest packet = 1621
Flit latency average = 19.7686
	minimum = 7
	maximum = 37
Slowest flit = 1621
Fragmentation average = 0
	minimum = 0
	maximum = 0
Injected packet rate average = 0.0103542
	minimum = 0.00766667 (at node 3)
	maximum = 0.0126667 (at node 11)
Accepted packet rate average = 0.0103542
	minimum = 0.008 (at node 5)
	maximum = 0.0123333 (at node 8)
Injected flit rate average = 0.0103542
	minimum = 0.00766667 (at node 3)
	maximum = 0.0126667 (at node 11)
Accepted flit rate average= 0.0103542
	minimum = 0.008 (at node 5)
	maximum = 0.0123333 (at node 8)
Injected packet length average = 1
Accepted packet length average = 1
Total in-flight flits = 3 (3 measured)
latency change    = 0.000256174
throughput change = 0.0130785
Class 0:
Packet latency average = 19.559
	minimum = 7
	maximum = 37
Network latency average = 19.559
	minimum = 7
	maximum = 37
Slowest packet = 1621
Flit latency average = 19.5701
	minimum = 7
	maximum = 37
Slowest flit = 1621
Fragmentation average = 0
	minimum = 0
	maximum = 0
Injected packet rate average = 0.0102344
	minimum = 0.0075 (at node 3)
	maximum = 0.0125 (at node 7)
Accepted packet rate average = 0.01025
	minimum = 0.0075 (at node 5)
	maximum = 0.012 (at node 13)
Injected flit rate average = 0.0102344
	minimum = 0.0075 (at node 3)
	maximum = 0.0125 (at node 7)
Accepted flit rate average= 0.01025
	minimum = 0.0075 (at node 5)
	maximum = 0.012 (at node 13)
Injected packet length average = 1
Accepted packet length average = 1
Total in-flight flits = 2 (2 measured)
latency change    = 0.0100262
throughput change = 0.0101626
Draining all recorded packets ...
Draining remaining packets ...
Time taken is 7051 cycles
Class 0:
Packet latency average = 19.993
	minimum = 7
	maximum = 38
Network latency average = 19.993
	minimum = 7
	maximum = 38
Slowest packet = 2326
Flit latency average = 19.993
	minimum = 7
	maximum = 38
Slowest flit = 2326
Fragmentation average = 0
	minimum = 0
	maximum = 0
Injected packet rate average = 0.00925
	minimum = 0.005 (at node 12)
	maximum = 0.013 (at node 9)
Accepted packet rate average = 0.0089375
	minimum = 0.004 (at node 8)
	maximum = 0.014 (at node 15)
Injected flit rate average = 0.00925
	minimum = 0.005 (at node 12)
	maximum = 0.013 (at node 9)
Accepted flit rate average= 0.0089375
	minimum = 0.004 (at node 8)
	maximum = 0.014 (at node 15)
Injected packet length average = 1
Accepted packet length average = 1
Total in-flight flits = 5 (0 measured)
latency change    = 1
throughput change = 1
Class 0:
Packet latency average = 19.1548
	minimum = 7
	maximum = 38
Network latency average = 19.1548
	minimum = 7
	maximum = 38
Slowest packet = 2326
Flit latency average = 19.1548
	minimum = 7
	maximum = 38
Slowest flit = 2326
Fragmentation average = 0
	minimum = 0
	maximum = 0
Injected packet rate average = 0.0098125
	minimum = 0.006 (at node 3)
	maximum = 0.013 (at node 5)
Accepted packet rate average = 0.0096875
	minimum = 0.0065 (at node 9)
	maximum = 0.014 (at node 11)
Injected flit rate average = 0.0098125
	minimum = 0.006 (at node 3)
	maximum = 0.013 (at node 5)
Accepted flit rate average= 0.0096875
	minimum = 0.0065 (at node 9)
	maximum = 0.014 (at node 11)
Injected packet length average = 1
Accepted packet length average = 1
Total in-flight flits = 4 (0 measured)
latency change    = 0.0437575
throughput change = 0.0774194
Class 0:
Packet latency average = 19.8861
	minimum = 7
	maximum = 37
Network latency average = 19.8861
	minimum = 7
	maximum = 37
Slowest packet = 2568
Flit latency average = 19.8861
	minimum = 7
	maximum = 37
Slowest flit = 2568
Fragmentation average = 0
	minimum = 0
	maximum = 0
Injected packet rate average = 0.0099375
	minimum = 0.005 (at node 7)
	maximum = 0.014 (at node 1)
Accepted packet rate average = 0.009875
	minimum = 0.005 (at node 4)
	maximum = 0.014 (at node 0)
Injected flit rate average = 0.0099375
	minimum = 0.005 (at node 7)
	maximum = 0.014 (at node 1)
Accepted flit rate average= 0.009875
	minimum = 0.005 (at node 4)
	maximum = 0.014 (at node 0)
Injected packet length average = 1
Accepted packet length average = 1
Total in-flight flits = 5 (0 measured)
latency change    = 0.0367713
throughput change = 0.0189873
Warmed up ...Time used is 3000 cycles
Class 0:
Packet latency average = 18.6993
	minimum = 7
	maximum = 32
Network latency average = 18.6993
	minimum = 7
	maximum = 32
Slowest packet = 2735
Flit latency average = 18.8108
	minimum = 7
	maximum = 32
Slowest flit = 2735
Fragmentation average = 0
	minimum = 0
	maximum = 0
Injected packet rate average = 0.00925
	minimum = 0.004 (at node 2)
	maximum = 0.015 (at node 11)
Accepted packet rate average = 0.00925
	minimum = 0.005 (at node 1)
	maximum = 0.015 (at node 2)
Injected flit rate average = 0.00925
	minimum = 0.004 (at node 2)
	maximum = 0.015 (at node 11)
Accepted flit rate average= 0.00925
	minimum = 0.005 (at node 1)
	maximum = 0.015 (at node 2)
Injected packet length average = 1
Accepted packet length average = 1
Total in-flight flits = 5 (5 measured)
latency change    = 0.0634663
throughput change = 0.0675676
Class 0:
Packet latency average = 19.3624
	minimum = 7
	maximum = 37
Network latency average = 19.3624
	minimum = 7
	maximum = 37
Slowest packet = 2864
Flit latency average = 19.4059
	minimum = 7
	maximum = 37
Slowest flit = 2864
Fragmentation average = 0
	minimum = 0
	maximum = 0
Injected packet rate average = 0.00934375
	minimum = 0.0035 (at node 9)
	maximum = 0.0145 (at node 11)
Accepted packet rate average = 0.00946875
	minimum = 0.006 (at node 11)
	maximum = 0.013 (at node 2)
Injected flit rate average = 0.00934375
	minimum = 0.0035 (at node 9)
	maximum = 0.0145 (at node 11)
Accepted flit rate average= 0.00946875
	minimum = 0.006 (at node 11)
	maximum = 0.013 (at node 2)
Injected packet length average = 1
Accepted packet length average = 1
Total in-flight flits = 1 (1 measured)
latency change    = 0.0342476
throughput change = 0.0231023
Class 0:
Packet latency average = 18.9297
	minimum = 7
	maximum = 37
Network latency average = 18.9297
	minimum = 7
	maximum = 37
Slowest packet = 2864
Flit latency average = 18.9641
	minimum = 7
	maximum = 37
Slowest flit = 2864
Fragmentation average = 0
	minimum = 0
	maximum = 0
Injected packet rate average = 0.00920833
	minimum = 0.005 (at node 9)
	maximum = 0.0136667 (at node 11)
Accepted packet rate average = 0.00929167
	minimum = 0.00666667 (at node 11)
	maximum = 0.0116667 (at node 2)
Injected flit rate average = 0.00920833
	minimum = 0.005 (at node 9)
	maximum = 0.0136667 (at node 11)
Accepted flit rate average= 0.00929167
	minimum = 0.00666667 (at node 11)
	maximum = 0.0116667 (at node 2)
Injected packet length average = 1
Accepted packet length average = 1
Total in-flight flits = 1 (1 measured)
latency change    = 0.0228588
throughput change = 0.0190583
Class 0:
Packet latency average = 18.8581
	minimum = 7
	maximum = 37
Network latency average = 18.8581
	minimum = 7
	maximum = 37
Slowest packet = 2864
Flit latency average = 18.8841
	minimum = 7
	maximum = 37
Slowest flit = 2864
Fragmentation average = 0
	minimum = 0
	maximum = 0
Injected packet rate average = 0.00939062
	minimum = 0.006 (at node 2)
	maximum = 0.0125 (at node 11)
Accepted packet rate average = 0.0094375
	minimum = 0.007 (at node 13)
	maximum = 0.0125 (at node 2)
Injected flit rate average = 0.00939062
	minimum = 0.006 (at node 2)
	maximum = 0.0125 (at node 11)
Accepted flit rate average= 0.0094375
	minimum = 0.007 (at node 13)
	maximum = 0.0125 (at node 2)
Injected packet length average = 1
Accepted packet length average = 1
Total in-flight flits = 2 (2 measured)
latency change    = 0.00379722
throughput change = 0.0154525
Draining all recorded packets ...
Draining remaining packets ...
Time taken is 7022 cycles
Class 0:
Packet latency average = 19.8249
	minimum = 7
	maximum = 37
Network latency average = 19.8249
	minimum = 7
	maximum = 37
Slowest packet = 3372
Flit latency average = 19.8249
	minimum = 7
	maximum = 37
Slowest flit = 3372
Fragmentation average = 0
	minimum = 0
	maximum = 0
Injected packet rate average = 0.0111875
	minimum = 0.007 (at node 2)
	maximum = 0.017 (at node 10)
Accepted packet rate average = 0.0110625
	minimum = 0.005 (at node 7)
	maximum = 0.019 (at node 6)
Injected flit rate average = 0.0111875
	minimum = 0.007 (at node 2)
	maximum = 0.017 (at node 10)
Accepted flit rate average= 0.0110625
	minimum = 0.005 (at node 7)
	maximum = 0.019 (at node 6)
Injected packet length average = 1
Accepted packet length average = 1
Total in-flight flits = 2 (0 measured)
latency change    = 1
throughput change = 1
Class 0:
Packet latency average = 19.5899
	minimum = 7
	maximum = 37
Network latency average = 19.5899
	minimum = 7
	maximum = 37
Slowest packet = 3372
Flit latency average = 19.5899
	minimum = 7
	maximum = 37
Slowest flit = 3372
Fragmentation average = 0
	minimum = 0
	maximum = 0
Injected packet rate average = 0.00996875
	minimum = 0.006 (at node 2)
	maximum = 0.013 (at node 0)
Accepted packet rate average = 0.00990625
	minimum = 0.0055 (at node 7)
	maximum = 0.016 (at node 6)
Injected flit rate average = 0.00996875
	minimum = 0.006 (at node 2)
	maximum = 0.013 (at node 0)
Accepted flit rate average= 0.00990625
	minimum = 0.0055 (at node 7)
	maximum = 0.016 (at node 6)
Injected packet length average = 1
Accepted packet length average = 1
Total in-flight flits = 2 (0 measured)
latency change    = 0.0119936
throughput change = 0.116719
Class 0:
Packet latency average = 20.1143
	minimum = 7
	maximum = 37
Network latency average = 20.1143
	minimum = 7
	maximum = 37
Slowest packet = 3640
Flit latency average = 20.1143
	minimum = 7
	maximum = 37
Slowest flit = 3640
Fragmentation average = 0
	minimum = 0
	maximum = 0
Injected packet rate average = 0.008875
	minimum = 0.004 (at node 2)
	maximum = 0.018 (at node 11)
Accepted packet rate average = 0.00875
	minimum = 0.004 (at node 5)
	maximum = 0.012 (at node 12)
Injected flit rate average = 0.008875
	minimum = 0.004 (at node 2)
	maximum = 0.018 (at node 11)
Accepted flit rate average= 0.00875
	minimum = 0.004 (at node 5)
	maximum = 0.012 (at node 12)
Injected packet length average = 1
Accepted packet length average = 1
Total in-flight flits = 4 (0 measured)
latency change    = 0.02607
throughput change = 0.132143
Warmed up ...Time used is 3000 cycles
Class 0:
Packet latency average = 19.1895
	minimum = 7
	maximum = 37
Network latency average = 19.1895
	minimum = 7
	maximum = 37
Slowest packet = 3797
Flit latency average = 19.1975
	minimum = 7
	maximum = 37
Slowest flit = 3797
Fragmentation average = 0
	minimum = 0
	maximum = 0
Injected packet rate average = 0.00975
	minimum = 0.002 (at node 10)
	maximum = 0.013 (at node 4)
Accepted packet rate average = 0.0098125
	minimum = 0.005 (at node 9)
	maximum = 0.013 (at node 3)
Injected flit rate average = 0.00975
	minimum = 0.002 (at node 10)
	maximum = 0.013 (at node 4)
Accepted flit rate average= 0.0098125
	minimum = 0.005 (at node 9)
	maximum = 0.013 (at node 3)
Injected packet length average = 1
Accepted packet length average = 1
Total in-flight flits = 3 (3 measured)
latency change    = 0.04819
throughput change = 0.10828
Class 0:
Packet latency average = 19.319
	minimum = 7
	maximum = 38
Network latency average = 19.319
	minimum = 7
	maximum = 38
Slowest packet = 3961
Flit latency average = 19.3212
	minimum = 7
	maximum = 38
Slowest flit = 3961
Fragmentation average = 0
	minimum = 0
	maximum = 0
Injected packet rate average = 0.0103125
	minimum = 0.006 (at node 10)
	maximum = 0.014 (at node 11)
Accepted packet rate average = 0.0103125
	minimum = 0.007 (at node 2)
	maximum = 0.0135 (at node 5)
Injected flit rate average = 0.0103125
	minimum = 0.006 (at node 10)
	maximum = 0.014 (at node 11)
Accepted flit rate average= 0.0103125
	minimum = 0.007 (at node 2)
	maximum = 0.0135 (at node 5)
Injected packet length average = 1
Accepted packet length average = 1
Total in-flight flits = 4 (4 measured)
latency change    = 0.00670199
throughput change = 0.0484848
Class 0:
Packet latency average = 19.2972
	minimum = 7
	maximum = 38
Network latency average = 19.2972
	minimum = 7
	maximum = 38
Slowest packet = 3961
Flit latency average = 19.2989
	minimum = 7
	maximum = 38
Slowest flit = 3961
Fragmentation average = 0
	minimum = 0
	maximum = 0
Injected packet rate average = 0.0099375
	minimum = 0.00733333 (at node 12)
	maximum = 0.0126667 (at node 3)
Accepted packet rate average = 0.00989583
	minimum = 0.00666667 (at node 2)
	maximum = 0.012 (at node 5)
Injected flit rate average = 0.0099375
	minimum = 0.00733333 (at node 12)
	maximum = 0.0126667 (at node 3)
Accepted flit rate average= 0.00989583
	minimum = 0.00666667 (at node 2)
	maximum = 0.012 (at node 5)
Injected packet length average = 1
Accepted packet length average = 1
Total in-flight flits = 6 (6 measured)
latency change    = 0.00112858
throughput change = 0.0421053
Class 0:
Packet latency average = 19.5437
	minimum = 7
	maximum = 38
Network latency average = 19.5437
	minimum = 7
	maximum = 38
Slowest packet = 3961
Flit latency average = 19.5435
	minimum = 7
	maximum = 38
Slowest flit = 3961
Fragmentation average = 0
	minimum = 0
	maximum = 0
Injected packet rate average = 0.0100625
	minimum = 0.008 (at node 12)
	maximum = 0.01325 (at node 8)
Accepted packet rate average = 0.0100625
	minimum = 0.00825 (at node 2)
	maximum = 0.01325 (at node 7)
Injected flit rate average = 0.0100625
	minimum = 0.008 (at node 12)
	maximum = 0.01325 (at node 8)
Accepted flit rate average= 0.0100625
	minimum = 0.00825 (at node 2)
	maximum = 0.01325 (at node 7)
Injected packet length average = 1
Accepted packet length average = 1
Total in-flight flits = 4 (4 measured)
latency change    = 0.0126132
throughput change = 0.0165631
Draining all recorded packets ...
Draining remaining packets ...
Time taken is 7041 cycles
Class 0:
Packet latency average = 19.3827
	minimum = 7
	maximum = 37
Network latency average = 19.3827
	minimum = 7
	maximum = 37
Slowest packet = 4448
Flit latency average = 19.3827
	minimum = 7
	maximum = 37
Slowest flit = 4448
Fragmentation average = 0
	minimum = 0
	maximum = 0
Injected packet rate average = 0.010375
	minimum = 0.005 (at node 2)
	maximum = 0.018 (at node 5)
Accepted packet rate average = 0.010125
	minimum = 0.005 (at node 10)
	maximum = 0.019 (at node 15)
Injected flit rate average = 0.010375
	minimum = 0.005 (at node 2)
	maximum = 0.018 (at node 5)
Accepted flit rate average= 0.010125
	minimum = 0.005 (at node 10)
	maximum = 0.019 (at node 15)
Injected packet length average = 1
Accepted packet length average = 1
Total in-flight flits = 4 (0 measured)
latency change    = 1
throughput change = 1
Class 0:
Packet latency average = 19.2178
	minimum = 7
	maximum = 37
Network latency average = 19.2178
	minimum = 7
	maximum = 37
Slowest packet = 4448
Flit latency average = 19.2178
	minimum = 7
	maximum = 37
Slowest flit = 4448
Fragmentation average = 0
	minimum = 0
	maximum = 0
Injected packet rate average = 0.0102813
	minimum = 0.006 (at node 14)
	maximum = 0.015 (at node 5)
Accepted packet rate average = 0.0101875
	minimum = 0.007 (at node 10)
	maximum = 0.015 (at node 1)
Injected flit rate average = 0.0102813
	minimum = 0.006 (at node 14)
	maximum = 0.015 (at node 5)
Accepted flit rate average= 0.0101875
	minimum = 0.007 (at node 10)
	maximum = 0.015 (at node 1)
Injected packet length average = 1
Accepted packet length average = 1
Total in-flight flits = 3 (0 measured)
latency change    = 0.00858187
throughput change = 0.00613497
Class 0:
Packet latency average = 19.7051
	minimum = 7
	maximum = 38
Network latency average = 19.7051
	minimum = 7
	maximum = 38
Slowest packet = 4908
Flit latency average = 19.7051
	minimum = 7
	maximum = 38
Slowest flit = 4908
Fragmentation average = 0
	minimum = 0
	maximum = 0
Injected packet rate average = 0.01
	minimum = 0.004 (at node 9)
	maximum = 0.017 (at node 0)
Accepted packet rate average = 0.00975
	minimum = 0.003 (at node 6)
	maximum = 0.017 (at node 8)
Injected flit rate average = 0.01
	minimum = 0.004 (at node 9)
	maximum = 0.017 (at node 0)
Accepted flit rate average= 0.00975
	minimum = 0.003 (at node 6)
	maximum = 0.017 (at node 8)
Injected packet length average = 1
Accepted packet length average = 1
Total in-flight flits = 7 (0 measured)
latency change    = 0.0247315
throughput change = 0.0448718
Warmed up ...Time used is 3000 cycles
Class 0:
Packet latency average = 19.4744
	minimum = 7
	maximum = 37
Network latency average = 19.4744
	minimum = 7
	maximum = 37
Slowest packet = 5027
Flit latency average = 19.5828
	minimum = 7
	maximum = 37
Slowest flit = 5027
Fragmentation average = 0
	minimum = 0
	maximum = 0
Injected packet rate average = 0.010125
	minimum = 0.006 (at node 5)
	maximum = 0.016 (at node 10)
Accepted packet rate average = 0.0101875
	minimum = 0.006 (at node 9)
	maximum = 0.013 (at node 12)
Injected flit rate average = 0.010125
	minimum = 0.006 (at node 5)
	maximum = 0.016 (at node 10)
Accepted flit rate average= 0.0101875
	minimum = 0.006 (at node 9)
	maximum = 0.013 (at node 12)
Injected packet length average = 1
Accepted packet length average = 1
Total in-flight flits = 6 (6 measured)
latency change    = 0.0118499
throughput change = 0.0429448
Class 0:
Packet latency average = 19.5751
	minimum = 7
	maximum = 37
Network latency average = 19.5751
	minimum = 7
	maximum = 37
Slowest packet = 5027
Flit latency average = 19.6281
	minimum = 7
	maximum = 37
Slowest flit = 5027
Fragmentation average = 0
	minimum = 0
	maximum = 0
Injected packet rate average = 0.00978125
	minimum = 0.0065 (at node 7)
	maximum = 0.0135 (at node 13)
Accepted packet rate average = 0.01
	minimum = 0.006 (at node 2)
	maximum = 0.015 (at node 14)
Injected flit rate average = 0.00978125
	minimum = 0.0065 (at node 7)
	maximum = 0.0135 (at node 13)
Accepted flit rate average= 0.01
	minimum = 0.006 (at node 2)
	maximum = 0.015 (at node 14)
Injected packet length average = 1
Accepted packet length average = 1
Total in-flight flits = 0 (0 measured)
latency change    = 0.00514536
throughput change = 0.01875
Class 0:
Packet latency average = 19.5462
	minimum = 7
	maximum = 37
Network latency average = 19.5462
	minimum = 7
	maximum = 37
Slowest packet = 5027
Flit latency average = 19.5818
	minimum = 7
	maximum = 37
Slowest flit = 5027
Fragmentation average = 0
	minimum = 0
	maximum = 0
Injected packet rate average = 0.0099375
	minimum = 0.00733333 (at node 4)
	maximum = 0.0136667 (at node 12)
Accepted packet rate average = 0.0100625
	minimum = 0.00666667 (at node 2)
	maximum = 0.0126667 (at node 14)
Injected flit rate average = 0.0099375
	minimum = 0.00733333 (at node 4)
	maximum = 0.0136667 (at node 12)
Accepted flit rate average= 0.0100625
	minimum = 0.00666667 (at node 2)
	maximum = 0.0126667 (at node 14)
Injected packet length average = 1
Accepted packet length average = 1
Total in-flight flits = 1 (1 measured)
latency change    = 0.00147657
throughput change = 0.00621118
Draining all recorded packets ...
Draining remaining packets ...
Time taken is 6008 cycles
Class 0:
Packet latency average = 20.1085
	minimum = 7
	maximum = 37
Network latency average = 20.1085
	minimum = 7
	maximum = 37
Slowest packet = 5482
Flit latency average = 20.1085
	minimum = 7
	maximum = 37
Slowest flit = 5482
Fragmentation average = 0
	minimum = 0
	maximum = 0
Injected packet rate average = 0.0083125
	minimum = 0.003 (at node 11)
	maximum = 0.013 (at node 9)
Accepted packet rate average = 0.0080625
	minimum = 0.004 (at node 10)
	maximum = 0.014 (at node 7)
Injected flit rate average = 0.0083125
	minimum = 0.003 (at node 11)
	maximum = 0.013 (at node 9)
Accepted flit rate average= 0.0080625
	minimum = 0.004 (at node 10)
	maximum = 0.014 (at node 7)
Injected packet length average = 1
Accepted packet length average = 1
Total in-flight flits = 4 (0 measured)
latency change    = 1
throughput change = 1
Class 0:
Packet latency average = 19.8632
	minimum = 7
	maximum = 37
Network latency average = 19.8632
	minimum = 7
	maximum = 37
Slowest packet = 5482
Flit latency average = 19.8632
	minimum = 7
	maximum = 37
Slowest flit = 5482
Fragmentation average = 0
	minimum = 0
	maximum = 0
Injected packet rate average = 0.00896875
	minimum = 0.005 (at node 0)
	maximum = 0.0135 (at node 6)
Accepted packet rate average = 0.00890625
	minimum = 0.0065 (at node 2)
	maximum = 0.013 (at node 8)
Injected flit rate average = 0.00896875
	minimum = 0.005 (at node 0)
	maximum = 0.0135 (at node 6)
Accepted flit rate average= 0.00890625
	minimum = 0.0065 (at node 2)
	maximum = 0.013 (at node 8)
Injected packet length average = 1
Accepted packet length average = 1
Total in-flight flits = 2 (0 measured)
latency change    = 0.012353
throughput change = 0.0947368
Class 0:
Packet latency average = 18.915
	minimum = 7
	maximum = 37
Network latency average = 18.915
	minimum = 7
	maximum = 37
Slowest packet = 5776
Flit latency average = 18.915
	minimum = 7
	maximum = 37
Slowest flit = 5776
Fragmentation average = 0
	minimum = 0
	maximum = 0
Injected packet rate average = 0.0096875
	minimum = 0.005 (at node 11)
	maximum = 0.014 (at node 4)
Accepted packet rate average = 0.0095625
	minimum = 0.005 (at node 4)
	maximum = 0.014 (at node 9)
Injected flit rate average = 0.0096875
	minimum = 0.005 (at node 11)
	maximum = 0.014 (at node 4)
Accepted flit rate average= 0.0095625
	minimum = 0.005 (at node 4)
	maximum = 0.014 (at node 9)
Injected packet length average = 1
Accepted packet length average = 1
Total in-flight flits = 4 (0 measured)
latency change    = 0.0501255
throughput change = 0.0686275
Warmed up ...Time used is 3000 cycles
Class 0:
Packet latency average = 19.1083
	minimum = 7
	maximum = 37
Network latency average = 19.1083
	minimum = 7
	maximum = 37
Slowest packet = 5893
Flit latency average = 19.1801
	minimum = 7
	maximum = 37
Slowest flit = 5893
Fragmentation average = 0
	minimum = 0
	maximum = 0
Injected packet rate average = 0.0100625
	minimum = 0.005 (at node 6)
	maximum = 0.016 (at node 12)
Accepted packet rate average = 0.0100625
	minimum = 0.003 (at node 13)
	maximum = 0.015 (at node 5)
Injected flit rate average = 0.0100625
	minimum = 0.005 (at node 6)
	maximum = 0.016 (at node 12)
Accepted flit rate average= 0.0100625
	minimum = 0.003 (at node 13)
	maximum = 0.015 (at node 5)
Injected packet length average = 1
Accepted packet length average = 1
Total in-flight flits = 4 (4 measured)
latency change    = 0.0101133
throughput change = 0.0496894
Class 0:
Packet latency average = 18.8906
	minimum = 7
	maximum = 37
Network latency average = 18.8906
	minimum = 7
	maximum = 37
Slowest packet = 5893
Flit latency average = 18.9279
	minimum = 7
	maximum = 37
Slowest flit = 5893
Fragmentation average = 0
	minimum = 0
	maximum = 0
Injected packet rate average = 0.010375
	minimum = 0.008 (at node 7)
	maximum = 0.0135 (at node 8)
Accepted packet rate average = 0.0104063
	minimum = 0.006 (at node 13)
	maximum = 0.013 (at node 3)
Injected flit rate average = 0.010375
	minimum = 0.008 (at node 7)
	maximum = 0.0135 (at node 8)
Accepted flit rate average= 0.0104063
	minimum = 0.006 (at node 13)
	maximum = 0.013 (at node 3)
Injected packet length average = 1
Accepted packet length average = 1
Total in-flight flits = 3 (3 measured)
latency change    = 0.0115244
throughput change = 0.033033
Class 0:
Packet latency average = 19.3112
	minimum = 7
	maximum = 37
Network latency average = 19.3112
	minimum = 7
	maximum = 37
Slowest packet = 5893
Flit latency average = 19.3333
	minimum = 7
	maximum = 37
Slowest flit = 5893
Fragmentation average = 0
	minimum = 0
	maximum = 0
Injected packet rate average = 0.0100833
	minimum = 0.00766667 (at node 13)
	maximum = 0.0123333 (at node 11)
Accepted packet rate average = 0.010125
	minimum = 0.00633333 (at node 13)
	maximum = 0.013 (at node 2)
Injected flit rate average = 0.0100833
	minimum = 0.00766667 (at node 13)
	maximum = 0.0123333 (at node 11)
Accepted flit rate average= 0.010125
	minimum = 0.00633333 (at node 13)
	maximum = 0.013 (at node 2)
Injected packet length average = 1
Accepted packet length average = 1
Total in-flight flits = 2 (2 measured)
latency change    = 0.0217814
throughput change = 0.0277778
Draining all recorded packets ...
Draining remaining packets ...
Time taken is 6044 cycles
Class 0:
Packet latency average = 19.0364
	minimum = 7
	maximum = 37
Network latency average = 19.0364
	minimum = 7
	maximum = 37
Slowest packet = 6361
Flit latency average = 19.0364
	minimum = 7
	maximum = 37
Slowest flit = 6361
Fragmentation average = 0
	minimum = 0
	maximum = 0
Injected packet rate average = 0.0106875
	minimum = 0.006 (at node 11)
	maximum = 0.019 (at node 2)
Accepted packet rate average = 0.0103125
	minimum = 0.006 (at node 12)
	maximum = 0.017 (at node 13)
Injected flit rate average = 0.0106875
	minimum = 0.006 (at node 11)
	maximum = 0.019 (at node 2)
Accepted flit rate average= 0.0103125
	minimum = 0.006 (at node 12)
	maximum = 0.017 (at node 13)
Injected packet length average = 1
Accepted packet length average = 1
Total in-flight flits = 6 (0 measured)
latency change    = 1
throughput change = 1
Class 0:
Packet latency average = 19.6235
	minimum = 7
	maximum = 37
Network latency average = 19.6235
	minimum = 7
	maximum = 37
Slowest packet = 6361
Flit latency average = 19.6235
	minimum = 7
	maximum = 37
Slowest flit = 6361
Fragmentation average = 0
	minimum = 0
	maximum = 0
Injected packet rate average = 0.0107188
	minimum = 0.0065 (at node 6)
	maximum = 0.0165 (at node 2)
Accepted packet rate average = 0.010625
	minimum = 0.008 (at node 15)
	maximum = 0.017 (at node 13)
Injected flit rate average = 0.0107188
	minimum = 0.0065 (at node 6)
	maximum = 0.0165 (at node 2)
Accepted flit rate average= 0.010625
	minimum = 0.008 (at node 15)
	maximum = 0.017 (at node 13)
Injected packet length average = 1
Accepted packet length average = 1
Total in-flight flits = 3 (0 measured)
latency change    = 0.0299215
throughput change = 0.0294118
Class 0:
Packet latency average = 18.5855
	minimum = 7
	maximum = 37
Network latency average = 18.5855
	minimum = 7
	maximum = 37
Slowest packet = 6787
Flit latency average = 18.5855
	minimum = 7
	maximum = 37
Slowest flit = 6787
Fragmentation average = 0
	minimum = 0
	maximum = 0
Injected packet rate average = 0.0095625
	minimum = 0.005 (at node 9)
	maximum = 0.014 (at node 5)
Accepted packet rate average = 0.0095
	minimum = 0.004 (at node 9)
	maximum = 0.018 (at node 10)
Injected flit rate average = 0.0095625
	minimum = 0.005 (at node 9)
	maximum = 0.014 (at node 5)
Accepted flit rate average= 0.0095
	minimum = 0.004 (at node 9)
	maximum = 0.018 (at node 10)
Injected packet length average = 1
Accepted packet length average = 1
Total in-flight flits = 4 (0 measured)
latency change    = 0.0558501
throughput change = 0.118421
Warmed up ...Time used is 3000 cycles
Class 0:
Packet latency average = 19.8385
	minimum = 7
	maximum = 37
Network latency average = 19.8385
	minimum = 7
	maximum = 37
Slowest packet = 6831
Flit latency average = 20.0424
	minimum = 7
	maximum = 37
Slowest flit = 6819
Fragmentation average = 0
	minimum = 0
	maximum = 0
Injected packet rate average = 0.0103125
	minimum = 0.004 (at node 7)
	maximum = 0.015 (at node 14)
Accepted packet rate average = 0.0103125
	minimum = 0.005 (at node 5)
	maximum = 0.016 (at node 3)
Injected flit rate average = 0.0103125
	minimum = 0.004 (at node 7)
	maximum = 0.015 (at node 14)
Accepted flit rate average= 0.0103125
	minimum = 0.005 (at node 5)
	maximum = 0.016 (at node 3)
Injected packet length average = 1
Accepted packet length average = 1
Total in-flight flits = 4 (4 measured)
latency change    = 0.0631591
throughput change = 0.0787879
Class 0:
Packet latency average = 20.2738
	minimum = 7
	maximum = 37
Network latency average = 20.2738
	minimum = 7
	maximum = 37
Slowest packet = 6831
Flit latency average = 20.3708
	minimum = 7
	maximum = 37
Slowest flit = 6819
Fragmentation average = 0
	minimum = 0
	maximum = 0
Injected packet rate average = 0.0101875
	minimum = 0.007 (at node 7)
	maximum = 0.0155 (at node 14)
Accepted packet rate average = 0.0102813
	minimum = 0.007 (at node 7)
	maximum = 0.0155 (at node 11)
Injected flit rate average = 0.0101875
	minimum = 0.007 (at node 7)
	maximum = 0.0155 (at node 14)
Accepted flit rate average= 0.0102813
	minimum = 0.007 (at node 7)
	maximum = 0.0155 (at node 11)
Injected packet length average = 1
Accepted packet length average = 1
Total in-flight flits = 1 (1 measured)
latency change    = 0.0214728
throughput change = 0.00303951
Class 0:
Packet latency average = 19.8702
	minimum = 7
	maximum = 37
Network latency average = 19.8702
	minimum = 7
	maximum = 37
Slowest packet = 6831
Flit latency average = 19.9346
	minimum = 7
	maximum = 37
Slowest flit = 6819
Fragmentation average = 0
	minimum = 0
	maximum = 0
Injected packet rate average = 0.0108958
	minimum = 0.006 (at node 12)
	maximum = 0.0146667 (at node 14)
Accepted packet rate average = 0.0108333
	minimum = 0.008 (at node 7)
	maximum = 0.0156667 (at node 11)
Injected flit rate average = 0.0108958
	minimum = 0.006 (at node 12)
	maximum = 0.0146667 (at node 14)
Accepted flit rate average= 0.0108333
	minimum = 0.008 (at node 7)
	maximum = 0.0156667 (at node 11)
Injected packet length average = 1
Accepted packet length average = 1
Total in-flight flits = 7 (7 measured)
latency change    = 0.0203165
throughput change = 0.0509615
Class 0:
Packet latency average = 19.7672
	minimum = 7
	maximum = 37
Network latency average = 19.7672
	minimum = 7
	maximum = 37
Slowest packet = 6831
Flit latency average = 19.8175
	minimum = 7
	maximum = 37
Slowest flit = 6819
Fragmentation average = 0
	minimum = 0
	maximum = 0
Injected packet rate average = 0.0104844
	minimum = 0.007 (at node 12)
	maximum = 0.014 (at node 14)
Accepted packet rate average = 0.0105313
	minimum = 0.0085 (at node 2)
	maximum = 0.01525 (at node 11)
Injected flit rate average = 0.0104844
	minimum = 0.007 (at node 12)
	maximum = 0.014 (at node 14)
Accepted flit rate average= 0.0105313
	minimum = 0.0085 (at node 2)
	maximum = 0.01525 (at node 11)
Injected packet length average = 1
Accepted packet length average = 1
Total in-flight flits = 1 (1 measured)
latency change    = 0.0052102
throughput change = 0.0286845
Class 0:
Packet latency average = 19.7024
	minimum = 7
	maximum = 37
Network latency average = 19.7024
	minimum = 7
	maximum = 37
Slowest packet = 6831
Flit latency average = 19.7429
	minimum = 7
	maximum = 37
Slowest flit = 6819
Fragmentation average = 0
	minimum = 0
	maximum = 0
Injected packet rate average = 0.01055
	minimum = 0.0078 (at node 12)
	maximum = 0.014 (at node 14)
Accepted packet rate average = 0.01055
	minimum = 0.0086 (at node 5)
	maximum = 0.014 (at node 11)
Injected flit rate average = 0.01055
	minimum = 0.0078 (at node 12)
	maximum = 0.014 (at node 14)
Accepted flit rate average= 0.01055
	minimum = 0.0086 (at node 5)
	maximum = 0.014 (at node 11)
Injected packet length average = 1
Accepted packet length average = 1
Total in-flight flits = 4 (4 measured)
latency change    = 0.00328809
throughput change = 0.00177725
Class 0:
Packet latency average = 19.7307
	minimum = 7
	maximum = 37
Network latency average = 19.7307
	minimum = 7
	maximum = 37
Slowest packet = 6831
Flit latency average = 19.7648
	minimum = 7
	maximum = 37
Slowest flit = 6819
Fragmentation average = 0
	minimum = 0
	maximum = 0
Injected packet rate average = 0.0103958
	minimum = 0.00783333 (at node 12)
	maximum = 0.014 (at node 14)
Accepted packet rate average = 0.0104063
	minimum = 0.00766667 (at node 5)
	maximum = 0.0135 (at node 11)
Injected flit rate average = 0.0103958
	minimum = 0.00783333 (at node 12)
	maximum = 0.014 (at node 14)
Accepted flit rate average= 0.0104063
	minimum = 0.00766667 (at node 5)
	maximum = 0.0135 (at node 11)
Injected packet length average = 1
Accepted packet length average = 1
Total in-flight flits = 3 (3 measured)
latency change    = 0.00143291
throughput change = 0.0138138
Draining all recorded packets ...
Draining remaining packets ...
Time taken is 9039 cycles
Class 0:
Packet latency average = 19.6095
	minimum = 7
	maximum = 37
Network latency average = 19.6095
	minimum = 7
	maximum = 37
Slowest packet = 7891
Flit latency average = 19.6095
	minimum = 7
	maximum = 37
Slowest flit = 7891
Fragmentation average = 0
	minimum = 0
	maximum = 0
Injected packet rate average = 0.01075
	minimum = 0.006 (at node 9)
	maximum = 0.016 (at node 6)
Accepted packet rate average = 0.0105625
	minimum = 0.004 (at node 6)
	maximum = 0.017 (at node 0)
Injected flit rate average = 0.01075
	minimum = 0.006 (at node 9)
	maximum = 0.016 (at node 6)
Accepted flit rate average= 0.0105625
	minimum = 0.004 (at node 6)
	maximum = 0.017 (at node 0)
Injected packet length average = 1
Accepted packet length average = 1
Total in-flight flits = 3 (0 measured)
latency change    = 1
throughput change = 1
Class 0:
Packet latency average = 19.6391
	minimum = 7
	maximum = 37
Network latency average = 19.6391
	minimum = 7
	maximum = 37
Slowest packet = 7891
Flit latency average = 19.6391
	minimum = 7
	maximum = 37
Slowest flit = 7891
Fragmentation average = 0
	minimum = 0
	maximum = 0
Injected packet rate average = 0.0102188
	minimum = 0.0075 (at node 2)
	maximum = 0.0125 (at node 0)
Accepted packet rate average = 0.0102188
	minimum = 0.006 (at node 10)
	maximum = 0.017 (at node 0)
Injected flit rate average = 0.0102188
	minimum = 0.0075 (at node 2)
	maximum = 0.0125 (at node 0)
Accepted flit rate average= 0.0102188
	minimum = 0.006 (at node 10)
	maximum = 0.017 (at node 0)
Injected packet length average = 1
Accepted packet length average = 1
Total in-flight flits = 0 (0 measured)
latency change    = 0.00151108
throughput change = 0.0336391
Class 0:
Packet latency average = 19.1169
	minimum = 7
	maximum = 37
Network latency average = 19.1169
	minimum = 7
	maximum = 37
Slowest packet = 8192
Flit latency average = 19.1169
	minimum = 7
	maximum = 37
Slowest flit = 8192
Fragmentation average = 0
	minimum = 0
	maximum = 0
Injected packet rate average = 0.01
	minimum = 0.006 (at node 3)
	maximum = 0.015 (at node 4)
Accepted packet rate average = 0.009625
	minimum = 0.004 (at node 13)
	maximum = 0.014 (at node 1)
Injected flit rate average = 0.01
	minimum = 0.006 (at node 3)
	maximum = 0.015 (at node 4)
Accepted flit rate average= 0.009625
	minimum = 0.004 (at node 13)
	maximum = 0.014 (at node 1)
Injected packet length average = 1
Accepted packet length average = 1
Total in-flight flits = 6 (0 measured)
latency change    = 0.0273193
throughput change = 0.0616883
Warmed up ...Time used is 3000 cycles
Class 0:
Packet latency average = 20.1558
	minimum = 7
	maximum = 37
Network latency average = 20.1558
	minimum = 7
	maximum = 37
Slowest packet = 8322
Flit latency average = 20.2563
	minimum = 7
	maximum = 37
Slowest flit = 8322
Fragmentation average = 0
	minimum = 0
	maximum = 0
Injected packet rate average = 0.0099375
	minimum = 0.004 (at node 4)
	maximum = 0.021 (at node 15)
Accepted packet rate average = 0.01
	minimum = 0.005 (at node 4)
	maximum = 0.013 (at node 1)
Injected flit rate average = 0.0099375
	minimum = 0.004 (at node 4)
	maximum = 0.021 (at node 15)
Accepted flit rate average= 0.01
	minimum = 0.005 (at node 4)
	maximum = 0.013 (at node 1)
Injected packet length average = 1
Accepted packet length average = 1
Total in-flight flits = 5 (5 measured)
latency change    = 0.0515464
throughput change = 0.0375
Class 0:
Packet latency average = 20.0723
	minimum = 7
	maximum = 37
Network latency average = 20.0723
	minimum = 7
	maximum = 37
Slowest packet = 8322
Flit latency average = 20.1235
	minimum = 7
	maximum = 37
Slowest flit = 8322
Fragmentation average = 0
	minimum = 0
	maximum = 0
Injected packet rate average = 0.01
	minimum = 0.005 (at node 10)
	maximum = 0.015 (at node 2)
Accepted packet rate average = 0.010125
	minimum = 0.0065 (at node 4)
	maximum = 0.013 (at node 15)
Injected flit rate average = 0.01
	minimum = 0.005 (at node 10)
	maximum = 0.015 (at node 2)
Accepted flit rate average= 0.010125
	minimum = 0.0065 (at node 4)
	maximum = 0.013 (at node 15)
Injected packet length average = 1
Accepted packet length average = 1
Total in-flight flits = 2 (2 measured)
latency change    = 0.00416081
throughput change = 0.0123457
Class 0:
Packet latency average = 19.797
	minimum = 7
	maximum = 37
Network latency average = 19.797
	minimum = 7
	maximum = 37
Slowest packet = 8322
Flit latency average = 19.8351
	minimum = 7
	maximum = 37
Slowest flit = 8322
Fragmentation average = 0
	minimum = 0
	maximum = 0
Injected packet rate average = 0.009875
	minimum = 0.006 (at node 1)
	maximum = 0.0123333 (at node 2)
Accepted packet rate average = 0.00997917
	minimum = 0.00733333 (at node 4)
	maximum = 0.0136667 (at node 1)
Injected flit rate average = 0.009875
	minimum = 0.006 (at node 1)
	maximum = 0.0123333 (at node 2)
Accepted flit rate average= 0.00997917
	minimum = 0.00733333 (at node 4)
	maximum = 0.0136667 (at node 1)
Injected packet length average = 1
Accepted packet length average = 1
Total in-flight flits = 1 (1 measured)
latency change    = 0.0139055
throughput change = 0.0146138
Class 0:
Packet latency average = 19.6944
	minimum = 7
	maximum = 37
Network latency average = 19.6944
	minimum = 7
	maximum = 37
Slowest packet = 8322
Flit latency average = 19.7249
	minimum = 7
	maximum = 37
Slowest flit = 8322
Fragmentation average = 0
	minimum = 0
	maximum = 0
Injected packet rate average = 0.00959375
	minimum = 0.0055 (at node 1)
	maximum = 0.01275 (at node 15)
Accepted packet rate average = 0.00965625
	minimum = 0.007 (at node 10)
	maximum = 0.012 (at node 1)
Injected flit rate average = 0.00959375
	minimum = 0.0055 (at node 1)
	maximum = 0.01275 (at node 15)
Accepted flit rate average= 0.00965625
	minimum = 0.007 (at node 10)
	maximum = 0.012 (at node 1)
Injected packet length average = 1
Accepted packet length average = 1
Total in-flight flits = 2 (2 measured)
latency change    = 0.00520937
throughput change = 0.0334412
Draining all recorded packets ...
Draining remaining packets ...
Time taken is 7050 cycles
Class 0:
Packet latency average = 18.6846
	minimum = 7
	maximum = 37
Network latency average = 18.6846
	minimum = 7
	maximum = 37
Slowest packet = 9040
Flit latency average = 18.6846
	minimum = 7
	maximum = 37
Slowest flit = 9040
Fragmentation average = 0
	minimum = 0
	maximum = 0
Injected packet rate average = 0.0094375
	minimum = 0.003 (at node 2)
	maximum = 0.016 (at node 13)
Accepted packet rate average = 0.0093125
	minimum = 0.004 (at node 2)
	maximum = 0.014 (at node 0)
Injected flit rate average = 0.0094375
	minimum = 0.003 (at node 2)
	maximum = 0.016 (at node 13)
Accepted flit rate average= 0.0093125
	minimum = 0.004 (at node 2)
	maximum = 0.014 (at node 0)
Injected packet length average = 1
Accepted packet length average = 1
Total in-flight flits = 2 (0 measured)
latency change    = 1
throughput change = 1
Class 0:
Packet latency average = 19.2599
	minimum = 7
	maximum = 37
Network latency average = 19.2599
	minimum = 7
	maximum = 37
Slowest packet = 9040
Flit latency average = 19.2599
	minimum = 7
	maximum = 37
Slowest flit = 9040
Fragmentation average = 0
	minimum = 0
	maximum = 0
Injected packet rate average = 0.00965625
	minimum = 0.006 (at node 2)
	maximum = 0.0125 (at node 5)
Accepted packet rate average = 0.0095
	minimum = 0.0065 (at node 2)
	maximum = 0.0125 (at node 11)
Injected flit rate average = 0.00965625
	minimum = 0.006 (at node 2)
	maximum = 0.0125 (at node 5)
Accepted flit rate average= 0.0095
	minimum = 0.0065 (at node 2)
	maximum = 0.0125 (at node 11)
Injected packet length average = 1
Accepted packet length average = 1
Total in-flight flits = 5 (0 measured)
latency change    = 0.0298706
throughput change = 0.0197368
Class 0:
Packet latency average = 18.6026
	minimum = 7
	maximum = 32
Network latency average = 18.6026
	minimum = 7
	maximum = 32
Slowest packet = 9233
Flit latency average = 18.6026
	minimum = 7
	maximum = 32
Slowest flit = 9233
Fragmentation average = 0
	minimum = 0
	maximum = 0
Injected packet rate average = 0.0093125
	minimum = 0.005 (at node 0)
	maximum = 0.016 (at node 7)
Accepted packet rate average = 0.0094375
	minimum = 0.005 (at node 4)
	maximum = 0.016 (at node 14)
Injected flit rate average = 0.0093125
	minimum = 0.005 (at node 0)
	maximum = 0.016 (at node 7)
Accepted flit rate average= 0.0094375
	minimum = 0.005 (at node 4)
	maximum = 0.016 (at node 14)
Injected packet length average = 1
Accepted packet length average = 1
Total in-flight flits = 3 (0 measured)
latency change    = 0.0353293
throughput change = 0.00662252
Warmed up ...Time used is 3000 cycles
Class 0:
Packet latency average = 19.1656
	minimum = 7
	maximum = 37
Network latency average = 19.1656
	minimum = 7
	maximum = 37
Slowest packet = 9461
Flit latency average = 19.2208
	minimum = 7
	maximum = 37
Slowest flit = 9461
Fragmentation average = 0
	minimum = 0
	maximum = 0
Injected packet rate average = 0.0098125
	minimum = 0.003 (at node 8)
	maximum = 0.015 (at node 4)
Accepted packet rate average = 0.009625
	minimum = 0.004 (at node 9)
	maximum = 0.018 (at node 10)
Injected flit rate average = 0.0098125
	minimum = 0.003 (at node 8)
	maximum = 0.015 (at node 4)
Accepted flit rate average= 0.009625
	minimum = 0.004 (at node 9)
	maximum = 0.018 (at node 10)
Injected packet length average = 1
Accepted packet length average = 1
Total in-flight flits = 6 (6 measured)
latency change    = 0.0293711
throughput change = 0.0194805
Class 0:
Packet latency average = 19.5552
	minimum = 7
	maximum = 37
Network latency average = 19.5552
	minimum = 7
	maximum = 37
Slowest packet = 9461
Flit latency average = 19.5775
	minimum = 7
	maximum = 37
Slowest flit = 9461
Fragmentation average = 0
	minimum = 0
	maximum = 0
Injected packet rate average = 0.0102188
	minimum = 0.006 (at node 14)
	maximum = 0.0125 (at node 7)
Accepted packet rate average = 0.0102813
	minimum = 0.0065 (at node 9)
	maximum = 0.0155 (at node 7)
Injected flit rate average = 0.0102188
	minimum = 0.006 (at node 14)
	maximum = 0.0125 (at node 7)
Accepted flit rate average= 0.0102813
	minimum = 0.0065 (at node 9)
	maximum = 0.0155 (at node 7)
Injected packet length average = 1
Accepted packet length average = 1
Total in-flight flits = 1 (1 measured)
latency change    = 0.0199257
throughput change = 0.0638298
Class 0:
Packet latency average = 19.3957
	minimum = 7
	maximum = 37
Network latency average = 19.3957
	minimum = 7
	maximum = 37
Slowest packet = 9461
Flit latency average = 19.4123
	minimum = 7
	maximum = 37
Slowest flit = 9461
Fragmentation average = 0
	minimum = 0
	maximum = 0
Injected packet rate average = 0.00985417
	minimum = 0.00666667 (at node 14)
	maximum = 0.0133333 (at node 12)
Accepted packet rate average = 0.00985417
	minimum = 0.00666667 (at node 9)
	maximum = 0.0133333 (at node 7)
Injected flit rate average = 0.00985417
	minimum = 0.00666667 (at node 14)
	maximum = 0.0133333 (at node 12)
Accepted flit rate average= 0.00985417
	minimum = 0.00666667 (at node 9)
	maximum = 0.0133333 (at node 7)
Injected packet length average = 1
Accepted packet length average = 1
Total in-flight flits = 3 (3 measured)
latency change    = 0.00822191
throughput change = 0.0433404
Class 0:
Packet latency average = 19.4281
	minimum = 7
	maximum = 38
Network latency average = 19.4281
	minimum = 7
	maximum = 38
Slowest packet = 9955
Flit latency average = 19.4405
	minimum = 7
	maximum = 38
Slowest flit = 9955
Fragmentation average = 0
	minimum = 0
	maximum = 0
Injected packet rate average = 0.00971875
	minimum = 0.0065 (at node 14)
	maximum = 0.0125 (at node 12)
Accepted packet rate average = 0.00971875
	minimum = 0.00725 (at node 4)
	maximum = 0.01375 (at node 10)
Injected flit rate average = 0.00971875
	minimum = 0.0065 (at node 14)
	maximum = 0.0125 (at node 12)
Accepted flit rate average= 0.00971875
	minimum = 0.00725 (at node 4)
	maximum = 0.01375 (at node 10)
Injected packet length average = 1
Accepted packet length average = 1
Total in-flight flits = 3 (3 measured)
latency change    = 0.00166589
throughput change = 0.0139335
Class 0:
Packet latency average = 19.4349
	minimum = 7
	maximum = 38
Network latency average = 19.4349
	minimum = 7
	maximum = 38
Slowest packet = 9955
Flit latency average = 19.4446
	minimum = 7
	maximum = 38
Slowest flit = 9955
Fragmentation average = 0
	minimum = 0
	maximum = 0
Injected packet rate average = 0.0099125
	minimum = 0.0076 (at node 14)
	maximum = 0.0124 (at node 12)
Accepted packet rate average = 0.009925
	minimum = 0.0082 (at node 6)
	maximum = 0.013 (at node 10)
Injected flit rate average = 0.0099125
	minimum = 0.0076 (at node 14)
	maximum = 0.0124 (at node 12)
Accepted flit rate average= 0.009925
	minimum = 0.0082 (at node 6)
	maximum = 0.013 (at node 10)
Injected packet length average = 1
Accepted packet length average = 1
Total in-flight flits = 2 (2 measured)
latency change    = 0.000348995
throughput change = 0.0207809
Draining all recorded packets ...
Draining remaining packets ...
Time taken is 8042 cycles
Class 0:
Packet latency average = 18.4545
	minimum = 7
	maximum = 37
Network latency average = 18.4545
	minimum = 7
	maximum = 37
Slowest packet = 10263
Flit latency average = 18.4545
	minimum = 7
	maximum = 37
Slowest flit = 10263
Fragmentation average = 0
	minimum = 0
	maximum = 0
Injected packet rate average = 0.008
	minimum = 0.005 (at node 9)
	maximum = 0.013 (at node 3)
Accepted packet rate average = 0.0075625
	minimum = 0.002 (at node 8)
	maximum = 0.014 (at node 2)
Injected flit rate average = 0.008
	minimum = 0.005 (at node 9)
	maximum = 0.013 (at node 3)
Accepted flit rate average= 0.0075625
	minimum = 0.002 (at node 8)
	maximum = 0.014 (at node 2)
Injected packet length average = 1
Accepted packet length average = 1
Total in-flight flits = 7 (0 measured)
latency change    = 1
throughput change = 1
Class 0:
Packet latency average = 18.6735
	minimum = 7
	maximum = 37
Network latency average = 18.6735
	minimum = 7
	maximum = 37
Slowest packet = 10263
Flit latency average = 18.6735
	minimum = 7
	maximum = 37
Slowest flit = 10263
Fragmentation average = 0
	minimum = 0
	maximum = 0
Injected packet rate average = 0.00928125
	minimum = 0.006 (at node 12)
	maximum = 0.0125 (at node 4)
Accepted packet rate average = 0.0091875
	minimum = 0.006 (at node 15)
	maximum = 0.0125 (at node 0)
Injected flit rate average = 0.00928125
	minimum = 0.006 (at node 12)
	maximum = 0.0125 (at node 4)
Accepted flit rate average= 0.0091875
	minimum = 0.006 (at node 15)
	maximum = 0.0125 (at node 0)
Injected packet length average = 1
Accepted packet length average = 1
Total in-flight flits = 3 (0 measured)
latency change    = 0.0117238
throughput change = 0.176871
Class 0:
Packet latency average = 19.0769
	minimum = 7
	maximum = 37
Network latency average = 19.0769
	minimum = 7
	maximum = 37
Slowest packet = 10472
Flit latency average = 19.0769
	minimum = 7
	maximum = 37
Slowest flit = 10472
Fragmentation average = 0
	minimum = 0
	maximum = 0
Injected packet rate average = 0.008875
	minimum = 0.005 (at node 2)
	maximum = 0.012 (at node 10)
Accepted packet rate average = 0.0089375
	minimum = 0.005 (at node 8)
	maximum = 0.013 (at node 3)
Injected flit rate average = 0.008875
	minimum = 0.005 (at node 2)
	maximum = 0.012 (at node 10)
Accepted flit rate average= 0.0089375
	minimum = 0.005 (at node 8)
	maximum = 0.013 (at node 3)
Injected packet length average = 1
Accepted packet length average = 1
Total in-flight flits = 2 (0 measured)
latency change    = 0.0211488
throughput change = 0.027972
Warmed up ...Time used is 3000 cycles
Class 0:
Packet latency average = 19.1266
	minimum = 7
	maximum = 37
Network latency average = 19.1266
	minimum = 7
	maximum = 37
Slowest packet = 10711
Flit latency average = 19.1
	minimum = 7
	maximum = 37
Slowest flit = 10711
Fragmentation average = 0
	minimum = 0
	maximum = 0
Injected packet rate average = 0.0101875
	minimum = 0.004 (at node 12)
	maximum = 0.014 (at node 1)
Accepted packet rate average = 0.01
	minimum = 0.005 (at node 0)
	maximum = 0.015 (at node 8)
Injected flit rate average = 0.0101875
	minimum = 0.004 (at node 12)
	maximum = 0.014 (at node 1)
Accepted flit rate average= 0.01
	minimum = 0.005 (at node 0)
	maximum = 0.015 (at node 8)
Injected packet length average = 1
Accepted packet length average = 1
Total in-flight flits = 5 (5 measured)
latency change    = 0.00259634
throughput change = 0.10625
Class 0:
Packet latency average = 19.1161
	minimum = 7
	maximum = 37
Network latency average = 19.1161
	minimum = 7
	maximum = 37
Slowest packet = 10711
Flit latency average = 19.1036
	minimum = 7
	maximum = 37
Slowest flit = 10711
Fragmentation average = 0
	minimum = 0
	maximum = 0
Injected packet rate average = 0.0106563
	minimum = 0.007 (at node 0)
	maximum = 0.014 (at node 11)
Accepted packet rate average = 0.0105625
	minimum = 0.0075 (at node 9)
	maximum = 0.0135 (at node 7)
Injected flit rate average = 0.0106563
	minimum = 0.007 (at node 0)
	maximum = 0.014 (at node 11)
Accepted flit rate average= 0.0105625
	minimum = 0.0075 (at node 9)
	maximum = 0.0135 (at node 7)
Injected packet length average = 1
Accepted packet length average = 1
Total in-flight flits = 5 (5 measured)
latency change    = 0.000549844
throughput change = 0.0532544
Class 0:
Packet latency average = 19.2176
	minimum = 7
	maximum = 37
Network latency average = 19.2176
	minimum = 7
	maximum = 37
Slowest packet = 10711
Flit latency average = 19.209
	minimum = 7
	maximum = 37
Slowest flit = 10711
Fragmentation average = 0
	minimum = 0
	maximum = 0
Injected packet rate average = 0.0106667
	minimum = 0.007 (at node 12)
	maximum = 0.0136667 (at node 8)
Accepted packet rate average = 0.0106667
	minimum = 0.00766667 (at node 9)
	maximum = 0.0143333 (at node 8)
Injected flit rate average = 0.0106667
	minimum = 0.007 (at node 12)
	maximum = 0.0136667 (at node 8)
Accepted flit rate average= 0.0106667
	minimum = 0.00766667 (at node 9)
	maximum = 0.0143333 (at node 8)
Injected packet length average = 1
Accepted packet length average = 1
Total in-flight flits = 2 (2 measured)
latency change    = 0.00528554
throughput change = 0.00976562
Class 0:
Packet latency average = 19.1352
	minimum = 7
	maximum = 37
Network latency average = 19.1352
	minimum = 7
	maximum = 37
Slowest packet = 10711
Flit latency average = 19.129
	minimum = 7
	maximum = 37
Slowest flit = 10711
Fragmentation average = 0
	minimum = 0
	maximum = 0
Injected packet rate average = 0.0107969
	minimum = 0.00675 (at node 12)
	maximum = 0.014 (at node 9)
Accepted packet rate average = 0.0107812
	minimum = 0.00825 (at node 9)
	maximum = 0.01475 (at node 8)
Injected flit rate average = 0.0107969
	minimum = 0.00675 (at node 12)
	maximum = 0.014 (at node 9)
Accepted flit rate average= 0.0107812
	minimum = 0.00825 (at node 9)
	maximum = 0.01475 (at node 8)
Injected packet length average = 1
Accepted packet length average = 1
Total in-flight flits = 3 (3 measured)
latency change    = 0.00431
throughput change = 0.010628
Class 0:
Packet latency average = 19.1412
	minimum = 7
	maximum = 37
Network latency average = 19.1412
	minimum = 7
	maximum = 37
Slowest packet = 10711
Flit latency average = 19.1362
	minimum = 7
	maximum = 37
Slowest flit = 10711
Fragmentation average = 0
	minimum = 0
	maximum = 0
Injected packet rate average = 0.010675
	minimum = 0.0076 (at node 12)
	maximum = 0.0132 (at node 5)
Accepted packet rate average = 0.01065
	minimum = 0.0078 (at node 4)
	maximum = 0.014 (at node 8)
Injected flit rate average = 0.010675
	minimum = 0.0076 (at node 12)
	maximum = 0.0132 (at node 5)
Accepted flit rate average= 0.01065
	minimum = 0.0078 (at node 4)
	maximum = 0.014 (at node 8)
Injected packet length average = 1
Accepted packet length average = 1
Total in-flight flits = 4 (4 measured)
latency change    = 0.000313568
throughput change = 0.0123239
Draining all recorded packets ...
Draining remaining packets ...
Time taken is 8025 cycles
Class 0:
Packet latency average = 20.0204
	minimum = 7
	maximum = 37
Network latency average = 20.0204
	minimum = 7
	maximum = 37
Slowest packet = 11492
Flit latency average = 20.0204
	minimum = 7
	maximum = 37
Slowest flit = 11492
Fragmentation average = 0
	minimum = 0
	maximum = 0
Injected packet rate average = 0.0093125
	minimum = 0.004 (at node 11)
	maximum = 0.014 (at node 13)
Accepted packet rate average = 0.0091875
	minimum = 0.002 (at node 4)
	maximum = 0.015 (at node 9)
Injected flit rate average = 0.0093125
	minimum = 0.004 (at node 11)
	maximum = 0.014 (at node 13)
Accepted flit rate average= 0.0091875
	minimum = 0.002 (at node 4)
	maximum = 0.015 (at node 9)
Injected packet length average = 1
Accepted packet length average = 1
Total in-flight flits = 2 (0 measured)
latency change    = 1
throughput change = 1
Class 0:
Packet latency average = 19.8532
	minimum = 7
	maximum = 37
Network latency average = 19.8532
	minimum = 7
	maximum = 37
Slowest packet = 11492
Flit latency average = 19.8532
	minimum = 7
	maximum = 37
Slowest flit = 11492
Fragmentation average = 0
	minimum = 0
	maximum = 0
Injected packet rate average = 0.00928125
	minimum = 0.004 (at node 5)
	maximum = 0.014 (at node 12)
Accepted packet rate average = 0.00915625
	minimum = 0.0045 (at node 4)
	maximum = 0.0125 (at node 2)
Injected flit rate average = 0.00928125
	minimum = 0.004 (at node 5)
	maximum = 0.014 (at node 12)
Accepted flit rate average= 0.00915625
	minimum = 0.0045 (at node 4)
	maximum = 0.0125 (at node 2)
Injected packet length average = 1
Accepted packet length average = 1
Total in-flight flits = 4 (0 measured)
latency change    = 0.00842008
throughput change = 0.00341297
Class 0:
Packet latency average = 19.3248
	minimum = 7
	maximum = 37
Network latency average = 19.3248
	minimum = 7
	maximum = 37
Slowest packet = 11810
Flit latency average = 19.3248
	minimum = 7
	maximum = 37
Slowest flit = 11810
Fragmentation average = 0
	minimum = 0
	maximum = 0
Injected packet rate average = 0.0098125
	minimum = 0.006 (at node 11)
	maximum = 0.019 (at node 6)
Accepted packet rate average = 0.0098125
	minimum = 0.004 (at node 9)
	maximum = 0.019 (at node 13)
Injected flit rate average = 0.0098125
	minimum = 0.006 (at node 11)
	maximum = 0.019 (at node 6)
Accepted flit rate average= 0.0098125
	minimum = 0.004 (at node 9)
	maximum = 0.019 (at node 13)
Injected packet length average = 1
Accepted packet length average = 1
Total in-flight flits = 4 (0 measured)
latency change    = 0.0273431
throughput change = 0.066879
Warmed up ...Time used is 3000 cycles
Class 0:
Packet latency average = 19.0061
	minimum = 7
	maximum = 37
Network latency average = 19.0061
	minimum = 7
	maximum = 37
Slowest packet = 11932
Flit latency average = 19.1369
	minimum = 7
	maximum = 37
Slowest flit = 11924
Fragmentation average = 0
	minimum = 0
	maximum = 0
Injected packet rate average = 0.010375
	minimum = 0.005 (at node 1)
	maximum = 0.018 (at node 12)
Accepted packet rate average = 0.0105
	minimum = 0.006 (at node 12)
	maximum = 0.016 (at node 6)
Injected flit rate average = 0.010375
	minimum = 0.005 (at node 1)
	maximum = 0.018 (at node 12)
Accepted flit rate average= 0.0105
	minimum = 0.006 (at node 12)
	maximum = 0.016 (at node 6)
Injected packet length average = 1
Accepted packet length average = 1
Total in-flight flits = 2 (2 measured)
latency change    = 0.0167706
throughput change = 0.0654762
Class 0:
Packet latency average = 19.0548
	minimum = 7
	maximum = 37
Network latency average = 19.0548
	minimum = 7
	maximum = 37
Slowest packet = 11932
Flit latency average = 19.1242
	minimum = 7
	maximum = 37
Slowest flit = 11924
Fragmentation average = 0
	minimum = 0
	maximum = 0
Injected packet rate average = 0.0098125
	minimum = 0.007 (at node 1)
	maximum = 0.0145 (at node 12)
Accepted packet rate average = 0.0098125
	minimum = 0.005 (at node 8)
	maximum = 0.015 (at node 14)
Injected flit rate average = 0.0098125
	minimum = 0.007 (at node 1)
	maximum = 0.0145 (at node 12)
Accepted flit rate average= 0.0098125
	minimum = 0.005 (at node 8)
	maximum = 0.015 (at node 14)
Injected packet length average = 1
Accepted packet length average = 1
Total in-flight flits = 4 (4 measured)
latency change    = 0.00255794
throughput change = 0.0700637
Class 0:
Packet latency average = 19.3391
	minimum = 7
	maximum = 37
Network latency average = 19.3391
	minimum = 7
	maximum = 37
Slowest packet = 11932
Flit latency average = 19.3833
	minimum = 7
	maximum = 37
Slowest flit = 11924
Fragmentation average = 0
	minimum = 0
	maximum = 0
Injected packet rate average = 0.00975
	minimum = 0.008 (at node 8)
	maximum = 0.0123333 (at node 4)
Accepted packet rate average = 0.00972917
	minimum = 0.00633333 (at node 12)
	maximum = 0.0146667 (at node 9)
Injected flit rate average = 0.00975
	minimum = 0.008 (at node 8)
	maximum = 0.0123333 (at node 4)
Accepted flit rate average= 0.00972917
	minimum = 0.00633333 (at node 12)
	maximum = 0.0146667 (at node 9)
Injected packet length average = 1
Accepted packet length average = 1
Total in-flight flits = 5 (5 measured)
latency change    = 0.0146984
throughput change = 0.00856531
Class 0:
Packet latency average = 19.6208
	minimum = 7
	maximum = 37
Network latency average = 19.6208
	minimum = 7
	maximum = 37
Slowest packet = 11932
Flit latency average = 19.6518
	minimum = 7
	maximum = 37
Slowest flit = 11924
Fragmentation average = 0
	minimum = 0
	maximum = 0
Injected packet rate average = 0.00984375
	minimum = 0.00775 (at node 8)
	maximum = 0.01175 (at node 10)
Accepted packet rate average = 0.00982813
	minimum = 0.007 (at node 12)
	maximum = 0.014 (at node 9)
Injected flit rate average = 0.00984375
	minimum = 0.00775 (at node 8)
	maximum = 0.01175 (at node 10)
Accepted flit rate average= 0.00982813
	minimum = 0.007 (at node 12)
	maximum = 0.014 (at node 9)
Injected packet length average = 1
Accepted packet length average = 1
Total in-flight flits = 5 (5 measured)
latency change    = 0.0143576
throughput change = 0.0100689
Class 0:
Packet latency average = 19.811
	minimum = 7
	maximum = 37
Network latency average = 19.811
	minimum = 7
	maximum = 37
Slowest packet = 11932
Flit latency average = 19.8344
	minimum = 7
	maximum = 37
Slowest flit = 11924
Fragmentation average = 0
	minimum = 0
	maximum = 0
Injected packet rate average = 0.0100125
	minimum = 0.008 (at node 8)
	maximum = 0.0114 (at node 3)
Accepted packet rate average = 0.0100375
	minimum = 0.007 (at node 12)
	maximum = 0.0146 (at node 9)
Injected flit rate average = 0.0100125
	minimum = 0.008 (at node 8)
	maximum = 0.0114 (at node 3)
Accepted flit rate average= 0.0100375
	minimum = 0.007 (at node 12)
	maximum = 0.0146 (at node 9)
Injected packet length average = 1
Accepted packet length average = 1
Total in-flight flits = 2 (2 measured)
latency change    = 0.00960142
throughput change = 0.0208593
Draining all recorded packets ...
Draining remaining packets ...
Time taken is 8029 cycles
Class 0:
Packet latency average = 18.6532
	minimum = 7
	maximum = 37
Network latency average = 18.6532
	minimum = 7
	maximum = 37
Slowest packet = 12789
Flit latency average = 18.6532
	minimum = 7
	maximum = 37
Slowest flit = 12789
Fragmentation average = 0
	minimum = 0
	maximum = 0
Injected packet rate average = 0.010875
	minimum = 0.007 (at node 15)
	maximum = 0.018 (at node 12)
Accepted packet rate average = 0.0108125
	minimum = 0.005 (at node 3)
	maximum = 0.015 (at node 0)
Injected flit rate average = 0.010875
	minimum = 0.007 (at node 15)
	maximum = 0.018 (at node 12)
Accepted flit rate average= 0.0108125
	minimum = 0.005 (at node 3)
	maximum = 0.015 (at node 0)
Injected packet length average = 1
Accepted packet length average = 1
Total in-flight flits = 1 (0 measured)
latency change    = 1
throughput change = 1
Class 0:
Packet latency average = 19.3121
	minimum = 7
	maximum = 37
Network latency average = 19.3121
	minimum = 7
	maximum = 37
Slowest packet = 12789
Flit latency average = 19.3121
	minimum = 7
	maximum = 37
Slowest flit = 12789
Fragmentation average = 0
	minimum = 0
	maximum = 0
Injected packet rate average = 0.00990625
	minimum = 0.005 (at node 2)
	maximum = 0.016 (at node 12)
Accepted packet rate average = 0.0098125
	minimum = 0.006 (at node 2)
	maximum = 0.014 (at node 6)
Injected flit rate average = 0.00990625
	minimum = 0.005 (at node 2)
	maximum = 0.016 (at node 12)
Accepted flit rate average= 0.0098125
	minimum = 0.006 (at node 2)
	maximum = 0.014 (at node 6)
Injected packet length average = 1
Accepted packet length average = 1
Total in-flight flits = 3 (0 measured)
latency change    = 0.0341197
throughput change = 0.101911
Class 0:
Packet latency average = 18.7661
	minimum = 7
	maximum = 37
Network latency average = 18.7661
	minimum = 7
	maximum = 37
Slowest packet = 13056
Flit latency average = 18.7661
	minimum = 7
	maximum = 37
Slowest flit = 13056
Fragmentation average = 0
	minimum = 0
	maximum = 0
Injected packet rate average = 0.010625
	minimum = 0.008 (at node 1)
	maximum = 0.014 (at node 6)
Accepted packet rate average = 0.0106875
	minimum = 0.004 (at node 4)
	maximum = 0.015 (at node 6)
Injected flit rate average = 0.010625
	minimum = 0.008 (at node 1)
	maximum = 0.014 (at node 6)
Accepted flit rate average= 0.0106875
	minimum = 0.004 (at node 4)
	maximum = 0.015 (at node 6)
Injected packet length average = 1
Accepted packet length average = 1
Total in-flight flits = 2 (0 measured)
latency change    = 0.0290961
throughput change = 0.0818713
Warmed up ...Time used is 3000 cycles
Class 0:
Packet latency average = 18.9737
	minimum = 7
	maximum = 37
Network latency average = 18.9737
	minimum = 7
	maximum = 37
Slowest packet = 13240
Flit latency average = 18.9805
	minimum = 7
	maximum = 37
Slowest flit = 13240
Fragmentation average = 0
	minimum = 0
	maximum = 0
Injected packet rate average = 0.0096875
	minimum = 0.006 (at node 14)
	maximum = 0.015 (at node 0)
Accepted packet rate average = 0.009625
	minimum = 0.006 (at node 15)
	maximum = 0.013 (at node 0)
Injected flit rate average = 0.0096875
	minimum = 0.006 (at node 14)
	maximum = 0.015 (at node 0)
Accepted flit rate average= 0.009625
	minimum = 0.006 (at node 15)
	maximum = 0.013 (at node 0)
Injected packet length average = 1
Accepted packet length average = 1
Total in-flight flits = 3 (3 measured)
latency change    = 0.0109416
throughput change = 0.11039
Class 0:
Packet latency average = 19.4025
	minimum = 7
	maximum = 37
Network latency average = 19.4025
	minimum = 7
	maximum = 37
Slowest packet = 13240
Flit latency average = 19.4031
	minimum = 7
	maximum = 37
Slowest flit = 13240
Fragmentation average = 0
	minimum = 0
	maximum = 0
Injected packet rate average = 0.0101563
	minimum = 0.0075 (at node 9)
	maximum = 0.0135 (at node 0)
Accepted packet rate average = 0.0101563
	minimum = 0.0065 (at node 2)
	maximum = 0.0155 (at node 10)
Injected flit rate average = 0.0101563
	minimum = 0.0075 (at node 9)
	maximum = 0.0135 (at node 0)
Accepted flit rate average= 0.0101563
	minimum = 0.0065 (at node 2)
	maximum = 0.0155 (at node 10)
Injected packet length average = 1
Accepted packet length average = 1
Total in-flight flits = 2 (2 measured)
latency change    = 0.0220999
throughput change = 0.0523077
Class 0:
Packet latency average = 19.2367
	minimum = 7
	maximum = 37
Network latency average = 19.2367
	minimum = 7
	maximum = 37
Slowest packet = 13240
Flit latency average = 19.2378
	minimum = 7
	maximum = 37
Slowest flit = 13240
Fragmentation average = 0
	minimum = 0
	maximum = 0
Injected packet rate average = 0.0102917
	minimum = 0.008 (at node 8)
	maximum = 0.0143333 (at node 2)
Accepted packet rate average = 0.01025
	minimum = 0.007 (at node 2)
	maximum = 0.013 (at node 10)
Injected flit rate average = 0.0102917
	minimum = 0.008 (at node 8)
	maximum = 0.0143333 (at node 2)
Accepted flit rate average= 0.01025
	minimum = 0.007 (at node 2)
	maximum = 0.013 (at node 10)
Injected packet length average = 1
Accepted packet length average = 1
Total in-flight flits = 4 (4 measured)
latency change    = 0.00861592
throughput change = 0.00914634
Class 0:
Packet latency average = 19.3433
	minimum = 7
	maximum = 37
Network latency average = 19.3433
	minimum = 7
	maximum = 37
Slowest packet = 13240
Flit latency average = 19.3438
	minimum = 7
	maximum = 37
Slowest flit = 13240
Fragmentation average = 0
	minimum = 0
	maximum = 0
Injected packet rate average = 0.0104688
	minimum = 0.008 (at node 8)
	maximum = 0.01475 (at node 2)
Accepted packet rate average = 0.0104531
	minimum = 0.00725 (at node 2)
	maximum = 0.01325 (at node 10)
Injected flit rate average = 0.0104688
	minimum = 0.008 (at node 8)
	maximum = 0.01475 (at node 2)
Accepted flit rate average= 0.0104531
	minimum = 0.00725 (at node 2)
	maximum = 0.01325 (at node 10)
Injected packet length average = 1
Accepted packet length average = 1
Total in-flight flits = 3 (3 measured)
latency change    = 0.00551062
throughput change = 0.019432
Class 0:
Packet latency average = 19.2555
	minimum = 7
	maximum = 37
Network latency average = 19.2555
	minimum = 7
	maximum = 37
Slowest packet = 13240
Flit latency average = 19.2561
	minimum = 7
	maximum = 37
Slowest flit = 13240
Fragmentation average = 0
	minimum = 0
	maximum = 0
Injected packet rate average = 0.0103
	minimum = 0.0084 (at node 12)
	maximum = 0.014 (at node 2)
Accepted packet rate average = 0.0103
	minimum = 0.0076 (at node 9)
	maximum = 0.0138 (at node 10)
Injected flit rate average = 0.0103
	minimum = 0.0084 (at node 12)
	maximum = 0.014 (at node 2)
Accepted flit rate average= 0.0103
	minimum = 0.0076 (at node 9)
	maximum = 0.0138 (at node 10)
Injected packet length average = 1
Accepted packet length average = 1
Total in-flight flits = 2 (2 measured)
latency change    = 0.00456254
throughput change = 0.0148665
Draining all recorded packets ...
Draining remaining packets ...
Time taken is 8041 cycles
Class 0:
Packet latency average = 18.4859
	minimum = 7
	maximum = 37
Network latency average = 18.4859
	minimum = 7
	maximum = 37
Slowest packet = 14151
Flit latency average = 18.4859
	minimum = 7
	maximum = 37
Slowest flit = 14151
Fragmentation average = 0
	minimum = 0
	maximum = 0
Injected packet rate average = 0.0090625
	minimum = 0.005 (at node 6)
	maximum = 0.015 (at node 5)
Accepted packet rate average = 0.008875
	minimum = 0.002 (at node 14)
	maximum = 0.017 (at node 13)
Injected flit rate average = 0.0090625
	minimum = 0.005 (at node 6)
	maximum = 0.015 (at node 5)
Accepted flit rate average= 0.008875
	minimum = 0.002 (at node 14)
	maximum = 0.017 (at node 13)
Injected packet length average = 1
Accepted packet length average = 1
Total in-flight flits = 3 (0 measured)
latency change    = 1
throughput change = 1
Class 0:
Packet latency average = 19.4245
	minimum = 7
	maximum = 37
Network latency average = 19.4245
	minimum = 7
	maximum = 37
Slowest packet = 14151
Flit latency average = 19.4245
	minimum = 7
	maximum = 37
Slowest flit = 14151
Fragmentation average = 0
	minimum = 0
	maximum = 0
Injected packet rate average = 0.00996875
	minimum = 0.0065 (at node 2)
	maximum = 0.0125 (at node 3)
Accepted packet rate average = 0.0099375
	minimum = 0.0055 (at node 14)
	maximum = 0.0165 (at node 13)
Injected flit rate average = 0.00996875
	minimum = 0.0065 (at node 2)
	maximum = 0.0125 (at node 3)
Accepted flit rate average= 0.0099375
	minimum = 0.0055 (at node 14)
	maximum = 0.0165 (at node 13)
Injected packet length average = 1
Accepted packet length average = 1
Total in-flight flits = 1 (0 measured)
latency change    = 0.048321
throughput change = 0.106918
Class 0:
Packet latency average = 18.3287
	minimum = 7
	maximum = 37
Network latency average = 18.3287
	minimum = 7
	maximum = 37
Slowest packet = 14407
Flit latency average = 18.3287
	minimum = 7
	maximum = 37
Slowest flit = 14407
Fragmentation average = 0
	minimum = 0
	maximum = 0
Injected packet rate average = 0.009125
	minimum = 0.002 (at node 12)
	maximum = 0.023 (at node 8)
Accepted packet rate average = 0.0089375
	minimum = 0.005 (at node 14)
	maximum = 0.014 (at node 13)
Injected flit rate average = 0.009125
	minimum = 0.002 (at node 12)
	maximum = 0.023 (at node 8)
Accepted flit rate average= 0.0089375
	minimum = 0.005 (at node 14)
	maximum = 0.014 (at node 13)
Injected packet length average = 1
Accepted packet length average = 1
Total in-flight flits = 4 (0 measured)
latency change    = 0.0597892
throughput change = 0.111888
Warmed up ...Time used is 3000 cycles
Class 0:
Packet latency average = 19.9937
	minimum = 7
	maximum = 37
Network latency average = 19.9937
	minimum = 7
	maximum = 37
Slowest packet = 14514
Flit latency average = 20.0429
	minimum = 7
	maximum = 37
Slowest flit = 14514
Fragmentation average = 0
	minimum = 0
	maximum = 0
Injected packet rate average = 0.010125
	minimum = 0.007 (at node 0)
	maximum = 0.017 (at node 3)
Accepted packet rate average = 0.0101875
	minimum = 0.007 (at node 5)
	maximum = 0.015 (at node 8)
Injected flit rate average = 0.010125
	minimum = 0.007 (at node 0)
	maximum = 0.017 (at node 3)
Accepted flit rate average= 0.0101875
	minimum = 0.007 (at node 5)
	maximum = 0.015 (at node 8)
Injected packet length average = 1
Accepted packet length average = 1
Total in-flight flits = 3 (3 measured)
[...]
	minimum = 0
	maximum = 0
Injected packet rate average = 0.0111875
	minimum = 0.003 (at node 11)
	maximum = 0.017 (at node 15)
Accepted packet rate average = 0.011
	minimum = 0.005 (at node 0)
	maximum = 0.019 (at node 12)
Injected flit rate average = 0.0111875
	minimum = 0.003 (at node 11)
	maximum = 0.017 (at node 15)
Accepted flit rate average= 0.011
	minimum = 0.005 (at node 0)
	maximum = 0.019 (at node 12)
Injected packet length average = 1
Accepted packet length average = 1
Total in-flight flits = 3 (0 measured)
latency change    = 1
throughput change = 1
Class 0:
Packet latency average = 19.5623
	minimum = 7
	maximum = 37
Network latency average = 19.5623
	minimum = 7
	maximum = 37
Slowest packet = 116151
Flit latency average = 19.5623
	minimum = 7
	maximum = 37
Slowest flit = 116151
Fragmentation average = 0
	minimum = 0
	maximum = 0
Injected packet rate average = 0.0103438
	minimum = 0.0035 (at node 11)
	maximum = 0.014 (at node 15)
Accepted packet rate average = 0.0102813
	minimum = 0.0065 (at node 8)
	maximum = 0.0135 (at node 14)
Injected flit rate average = 0.0103438
	minimum = 0.0035 (at node 11)
	maximum = 0.014 (at node 15)
Accepted flit rate average= 0.0102813
	minimum = 0.0065 (at node 8)
	maximum = 0.0135 (at node 14)
Injected packet length average = 1
Accepted packet length average = 1
Total in-flight flits = 2 (0 measured)
latency change    = 0.00320463
throughput change = 0.0699088
Class 0:
Packet latency average = 19.5
	minimum = 7
	maximum = 37
Network latency average = 19.5
	minimum = 7
	maximum = 37
Slowest packet = 116495
Flit latency average = 19.5
	minimum = 7
	maximum = 37
Slowest flit = 116495
Fragmentation average = 0
	minimum = 0
	maximum = 0
Injected packet rate average = 0.009875
	minimum = 0.007 (at node 2)
	maximum = 0.018 (at node 9)
Accepted packet rate average = 0.009625
	minimum = 0.004 (at node 3)
	maximum = 0.014 (at node 1)
Injected flit rate average = 0.009875
	minimum = 0.007 (at node 2)
	maximum = 0.018 (at node 9)
Accepted flit rate average= 0.009625
	minimum = 0.004 (at node 3)
	maximum = 0.014 (at node 1)
Injected packet length average = 1
Accepted packet length average = 1
Total in-flight flits = 6 (0 measured)
latency change    = 0.00319539
throughput change = 0.0681818
Warmed up ...Time used is 3000 cycles
Class 0:
Packet latency average = 19.811
	minimum = 7
	maximum = 37
Network latency average = 19.811
	minimum = 7
	maximum = 37
Slowest packet = 116656
Flit latency average = 19.8
	minimum = 7
	maximum = 37
Slowest flit = 116656
Fragmentation average = 0
	minimum = 0
	maximum = 0
Injected packet rate average = 0.010375
	minimum = 0.006 (at node 10)
	maximum = 0.017 (at node 6)
Accepted packet rate average = 0.010625
	minimum = 0.005 (at node 7)
	maximum = 0.015 (at node 8)
Injected flit rate average = 0.010375
	minimum = 0.006 (at node 10)
	maximum = 0.017 (at node 6)
Accepted flit rate average= 0.010625
	minimum = 0.005 (at node 7)
	maximum = 0.015 (at node 8)
Injected packet length average = 1
Accepted packet length average = 1
Total in-flight flits = 2 (2 measured)
latency change    = 0.0156971
throughput change = 0.0941176
Class 0:
Packet latency average = 19.9241
	minimum = 7
	maximum = 37
Network latency average = 19.9241
	minimum = 7
	maximum = 37
Slowest packet = 116656
Flit latency average = 19.9159
	minimum = 7
	maximum = 37
Slowest flit = 116656
Fragmentation average = 0
	minimum = 0
	maximum = 0
Injected packet rate average = 0.00953125
	minimum = 0.007 (at node 13)
	maximum = 0.012 (at node 0)
Accepted packet rate average = 0.00965625
	minimum = 0.0065 (at node 11)
	maximum = 0.0125 (at node 13)
Injected flit rate average = 0.00953125
	minimum = 0.007 (at node 13)
	maximum = 0.012 (at node 0)
Accepted flit rate average= 0.00965625
	minimum = 0.0065 (at node 11)
	maximum = 0.0125 (at node 13)
Injected packet length average = 1
Accepted packet length average = 1
Total in-flight flits = 2 (2 measured)
latency change    = 0.00567739
throughput change = 0.100324
Class 0:
Packet latency average = 19.7452
	minimum = 7
	maximum = 37
Network latency average = 19.7452
	minimum = 7
	maximum = 37
Slowest packet = 116656
Flit latency average = 19.7421
	minimum = 7
	maximum = 37
Slowest flit = 116656
Fragmentation average = 0
	minimum = 0
	maximum = 0
Injected packet rate average = 0.009875
	minimum = 0.00766667 (at node 15)
	maximum = 0.0133333 (at node 1)
Accepted packet rate average = 0.0099375
	minimum = 0.006 (at node 3)
	maximum = 0.0126667 (at node 14)
Injected flit rate average = 0.009875
	minimum = 0.00766667 (at node 15)
	maximum = 0.0133333 (at node 1)
Accepted flit rate average= 0.0099375
	minimum = 0.006 (at node 3)
	maximum = 0.0126667 (at node 14)
Injected packet length average = 1
Accepted packet length average = 1
Total in-flight flits = 3 (3 measured)
latency change    = 0.00905887
throughput change = 0.0283019
Class 0:
Packet latency average = 19.6034
	minimum = 7
	maximum = 37
Network latency average = 19.6034
	minimum = 7
	maximum = 37
Slowest packet = 116656
Flit latency average = 19.6025
	minimum = 7
	maximum = 37
Slowest flit = 116656
Fragmentation average = 0
	minimum = 0
	maximum = 0
Injected packet rate average = 0.0101094
	minimum = 0.00775 (at node 15)
	maximum = 0.0145 (at node 1)
Accepted packet rate average = 0.0101406
	minimum = 0.0065 (at node 3)
	maximum = 0.0135 (at node 6)
Injected flit rate average = 0.0101094
	minimum = 0.00775 (at node 15)
	maximum = 0.0145 (at node 1)
Accepted flit rate average= 0.0101406
	minimum = 0.0065 (at node 3)
	maximum = 0.0135 (at node 6)
Injected packet length average = 1
Accepted packet length average = 1
Total in-flight flits = 4 (4 measured)
latency change    = 0.00723351
throughput change = 0.0200308
Class 0:
Packet latency average = 19.4557
	minimum = 7
	maximum = 37
Network latency average = 19.4557
	minimum = 7
	maximum = 37
Slowest packet = 116656
Flit latency average = 19.456
	minimum = 7
	maximum = 37
Slowest flit = 116656
Fragmentation average = 0
	minimum = 0
	maximum = 0
Injected packet rate average = 0.009925
	minimum = 0.0078 (at node 2)
	maximum = 0.0136 (at node 1)
Accepted packet rate average = 0.00995
	minimum = 0.007 (at node 3)
	maximum = 0.0138 (at node 6)
Injected flit rate average = 0.009925
	minimum = 0.0078 (at node 2)
	maximum = 0.0136 (at node 1)
Accepted flit rate average= 0.00995
	minimum = 0.007 (at node 3)
	maximum = 0.0138 (at node 6)
Injected packet length average = 1
Accepted packet length average = 1
Total in-flight flits = 4 (4 measured)
latency change    = 0.00759291
throughput change = 0.0191583
Draining all recorded packets ...
Draining remaining packets ...
Time taken is 8038 cycles
Class 0:
Packet latency average = 19.3743
	minimum = 7
	maximum = 37
Network latency average = 19.3743
	minimum = 7
	maximum = 37
Slowest packet = 117504
Flit latency average = 19.3743
	minimum = 7
	maximum = 37
Slowest flit = 117504
Fragmentation average = 0
	minimum = 0
	maximum = 0
Injected packet rate average = 0.0114375
	minimum = 0.005 (at node 13)
	maximum = 0.022 (at node 2)
Accepted packet rate average = 0.0111875
	minimum = 0.006 (at node 3)
	maximum = 0.017 (at node 0)
Injected flit rate average = 0.0114375
	minimum = 0.005 (at node 13)
	maximum = 0.022 (at node 2)
Accepted flit rate average= 0.0111875
	minimum = 0.006 (at node 3)
	maximum = 0.017 (at node 0)
Injected packet length average = 1
Accepted packet length average = 1
Total in-flight flits = 4 (0 measured)
latency change    = 1
throughput change = 1
Class 0:
Packet latency average = 19.7108
	minimum = 7
	maximum = 37
Network latency average = 19.7108
	minimum = 7
	maximum = 37
Slowest packet = 117504
Flit latency average = 19.7108
	minimum = 7
	maximum = 37
Slowest flit = 117504
Fragmentation average = 0
	minimum = 0
	maximum = 0
Injected packet rate average = 0.01025
	minimum = 0.006 (at node 13)
	maximum = 0.0185 (at node 2)
Accepted packet rate average = 0.0101563
	minimum = 0.005 (at node 3)
	maximum = 0.0145 (at node 0)
Injected flit rate average = 0.01025
	minimum = 0.006 (at node 13)
	maximum = 0.0185 (at node 2)
Accepted flit rate average= 0.0101563
	minimum = 0.005 (at node 3)
	maximum = 0.0145 (at node 0)
Injected packet length average = 1
Accepted packet length average = 1
Total in-flight flits = 3 (0 measured)
latency change    = 0.0170702
throughput change = 0.101538
Class 0:
Packet latency average = 19.6176
	minimum = 7
	maximum = 37
Network latency average = 19.6176
	minimum = 7
	maximum = 37
Slowest packet = 117854
Flit latency average = 19.6176
	minimum = 7
	maximum = 37
Slowest flit = 117854
Fragmentation average = 0
	minimum = 0
	maximum = 0
Injected packet rate average = 0.0106875
	minimum = 0.005 (at node 15)
	maximum = 0.016 (at node 5)
Accepted packet rate average = 0.010625
	minimum = 0.006 (at node 14)
	maximum = 0.019 (at node 8)
Injected flit rate average = 0.0106875
	minimum = 0.005 (at node 15)
	maximum = 0.016 (at node 5)
Accepted flit rate average= 0.010625
	minimum = 0.006 (at node 14)
	maximum = 0.019 (at node 8)
Injected packet length average = 1
Accepted packet length average = 1
Total in-flight flits = 4 (0 measured)
latency change    = 0.00474686
throughput change = 0.0441176
Warmed up ...Time used is 3000 cycles
Class 0:
Packet latency average = 18.7808
	minimum = 7
	maximum = 37
Network latency average = 18.7808
	minimum = 7
	maximum = 37
Slowest packet = 117999
Flit latency average = 18.8667
	minimum = 7
	maximum = 37
Slowest flit = 117999
Fragmentation average = 0
	minimum = 0
	maximum = 0
Injected packet rate average = 0.0091875
	minimum = 0.004 (at node 13)
	maximum = 0.017 (at node 10)
Accepted packet rate average = 0.009375
	minimum = 0.003 (at node 9)
	maximum = 0.015 (at node 0)
Injected flit rate average = 0.0091875
	minimum = 0.004 (at node 13)
	maximum = 0.017 (at node 10)
Accepted flit rate average= 0.009375
	minimum = 0.003 (at node 9)
	maximum = 0.015 (at node 0)
Injected packet length average = 1
Accepted packet length average = 1
Total in-flight flits = 1 (1 measured)
latency change    = 0.0445574
throughput change = 0.133333
Class 0:
Packet latency average = 19.2058
	minimum = 7
	maximum = 37
Network latency average = 19.2058
	minimum = 7
	maximum = 37
Slowest packet = 117999
Flit latency average = 19.2456
	minimum = 7
	maximum = 37
Slowest flit = 117999
Fragmentation average = 0
	minimum = 0
	maximum = 0
Injected packet rate average = 0.00875
	minimum = 0.0055 (at node 0)
	maximum = 0.0125 (at node 12)
Accepted packet rate average = 0.00878125
	minimum = 0.004 (at node 9)
	maximum = 0.0135 (at node 8)
Injected flit rate average = 0.00875
	minimum = 0.0055 (at node 0)
	maximum = 0.0125 (at node 12)
Accepted flit rate average= 0.00878125
	minimum = 0.004 (at node 9)
	maximum = 0.0135 (at node 8)
Injected packet length average = 1
Accepted packet length average = 1
Total in-flight flits = 3 (3 measured)
latency change    = 0.0221264
throughput change = 0.0676157
Class 0:
Packet latency average = 19.2424
	minimum = 7
	maximum = 37
Network latency average = 19.2424
	minimum = 7
	maximum = 37
Slowest packet = 117999
Flit latency average = 19.2681
	minimum = 7
	maximum = 37
Slowest flit = 117999
Fragmentation average = 0
	minimum = 0
	maximum = 0
Injected packet rate average = 0.00891667
	minimum = 0.00633333 (at node 2)
	maximum = 0.0116667 (at node 6)
Accepted packet rate average = 0.0089375
	minimum = 0.00566667 (at node 9)
	maximum = 0.0136667 (at node 12)
Injected flit rate average = 0.00891667
	minimum = 0.00633333 (at node 2)
	maximum = 0.0116667 (at node 6)
Accepted flit rate average= 0.0089375
	minimum = 0.00566667 (at node 9)
	maximum = 0.0136667 (at node 12)
Injected packet length average = 1
Accepted packet length average = 1
Total in-flight flits = 3 (3 measured)
latency change    = 0.00190085
throughput change = 0.0174825
Class 0:
Packet latency average = 19.3541
	minimum = 7
	maximum = 37
Network latency average = 19.3541
	minimum = 7
	maximum = 37
Slowest packet = 117999
Flit latency average = 19.3728
	minimum = 7
	maximum = 37
Slowest flit = 117999
Fragmentation average = 0
	minimum = 0
	maximum = 0
Injected packet rate average = 0.0088125
	minimum = 0.0065 (at node 15)
	maximum = 0.01075 (at node 5)
Accepted packet rate average = 0.00884375
	minimum = 0.0065 (at node 14)
	maximum = 0.0125 (at node 2)
Injected flit rate average = 0.0088125
	minimum = 0.0065 (at node 15)
	maximum = 0.01075 (at node 5)
Accepted flit rate average= 0.00884375
	minimum = 0.0065 (at node 14)
	maximum = 0.0125 (at node 2)
Injected packet length average = 1
Accepted packet length average = 1
Total in-flight flits = 2 (2 measured)
latency change    = 0.00577343
throughput change = 0.0106007
Class 0:
Packet latency average = 19.4046
	minimum = 7
	maximum = 37
Network latency average = 19.4046
	minimum = 7
	maximum = 37
Slowest packet = 117999
Flit latency average = 19.4187
	minimum = 7
	maximum = 37
Slowest flit = 117999
Fragmentation average = 0
	minimum = 0
	maximum = 0
Injected packet rate average = 0.009225
	minimum = 0.0072 (at node 2)
	maximum = 0.0112 (at node 6)
Accepted packet rate average = 0.009225
	minimum = 0.007 (at node 7)
	maximum = 0.0128 (at node 2)
Injected flit rate average = 0.009225
	minimum = 0.0072 (at node 2)
	maximum = 0.0112 (at node 6)
Accepted flit rate average= 0.009225
	minimum = 0.007 (at node 7)
	maximum = 0.0128 (at node 2)
Injected packet length average = 1
Accepted packet length average = 1
Total in-flight flits = 4 (4 measured)
latency change    = 0.00260451
throughput change = 0.0413279
Draining all recorded packets ...
Draining remaining packets ...
Time taken is 8050 cycles
Class 0:
Packet latency average = 20.0444
	minimum = 7
	maximum = 37
Network latency average = 20.0444
	minimum = 7
	maximum = 37
Slowest packet = 118690
Flit latency average = 20.0444
	minimum = 7
	maximum = 37
Slowest flit = 118690
Fragmentation average = 0
	minimum = 0
	maximum = 0
Injected packet rate average = 0.0115625
	minimum = 0.006 (at node 1)
	maximum = 0.019 (at node 0)
Accepted packet rate average = 0.01125
	minimum = 0.005 (at node 6)
	maximum = 0.017 (at node 3)
Injected flit rate average = 0.0115625
	minimum = 0.006 (at node 1)
	maximum = 0.019 (at node 0)
Accepted flit rate average= 0.01125
	minimum = 0.005 (at node 6)
	maximum = 0.017 (at node 3)
Injected packet length average = 1
Accepted packet length average = 1
Total in-flight flits = 5 (0 measured)
latency change    = 1
throughput change = 1
Class 0:
Packet latency average = 19.7101
	minimum = 7
	maximum = 37
Network latency average = 19.7101
	minimum = 7
	maximum = 37
Slowest packet = 118690
Flit latency average = 19.7101
	minimum = 7
	maximum = 37
Slowest flit = 118690
Fragmentation average = 0
	minimum = 0
	maximum = 0
Injected packet rate average = 0.010875
	minimum = 0.005 (at node 1)
	maximum = 0.0155 (at node 9)
Accepted packet rate average = 0.0107812
	minimum = 0.0065 (at node 14)
	maximum = 0.0155 (at node 7)
Injected flit rate average = 0.010875
	minimum = 0.005 (at node 1)
	maximum = 0.0155 (at node 9)
Accepted flit rate average= 0.0107812
	minimum = 0.0065 (at node 14)
	maximum = 0.0155 (at node 7)
Injected packet length average = 1
Accepted packet length average = 1
Total in-flight flits = 3 (0 measured)
latency change    = 0.0169608
throughput change = 0.0434783
Class 0:
Packet latency average = 19.487
	minimum = 7
	maximum = 37
Network latency average = 19.487
	minimum = 7
	maximum = 37
Slowest packet = 119047
Flit latency average = 19.487
	minimum = 7
	maximum = 37
Slowest flit = 119047
Fragmentation average = 0
	minimum = 0
	maximum = 0
Injected packet rate average = 0.0095625
	minimum = 0.003 (at node 12)
	maximum = 0.016 (at node 1)
Accepted packet rate average = 0.009625
	minimum = 0.006 (at node 1)
	maximum = 0.015 (at node 8)
Injected flit rate average = 0.0095625
	minimum = 0.003 (at node 12)
	maximum = 0.016 (at node 1)
Accepted flit rate average= 0.009625
	minimum = 0.006 (at node 1)
	maximum = 0.015 (at node 8)
Injected packet length average = 1
Accepted packet length average = 1
Total in-flight flits = 2 (0 measured)
latency change    = 0.0114503
throughput change = 0.12013
Warmed up ...Time used is 3000 cycles
Class 0:
Packet latency average = 19.3793
	minimum = 7
	maximum = 37
Network latency average = 19.3793
	minimum = 7
	maximum = 37
Slowest packet = 119185
Flit latency average = 19.2789
	minimum = 7
	maximum = 37
Slowest flit = 119185
Fragmentation average = 0
	minimum = 0
	maximum = 0
Injected packet rate average = 0.0091875
	minimum = 0.004 (at node 13)
	maximum = 0.015 (at node 14)
Accepted packet rate average = 0.0091875
	minimum = 0.004 (at node 4)
	maximum = 0.018 (at node 10)
Injected flit rate average = 0.0091875
	minimum = 0.004 (at node 13)
	maximum = 0.015 (at node 14)
Accepted flit rate average= 0.0091875
	minimum = 0.004 (at node 4)
	maximum = 0.018 (at node 10)
Injected packet length average = 1
Accepted packet length average = 1
Total in-flight flits = 2 (2 measured)
latency change    = 0.00555761
throughput change = 0.047619
Class 0:
Packet latency average = 18.9935
	minimum = 7
	maximum = 37
Network latency average = 18.9935
	minimum = 7
	maximum = 37
Slowest packet = 119185
Flit latency average = 18.9482
	minimum = 7
	maximum = 37
Slowest flit = 119185
Fragmentation average = 0
	minimum = 0
	maximum = 0
Injected packet rate average = 0.0096875
	minimum = 0.006 (at node 3)
	maximum = 0.013 (at node 14)
Accepted packet rate average = 0.00965625
	minimum = 0.0065 (at node 4)
	maximum = 0.0145 (at node 10)
Injected flit rate average = 0.0096875
	minimum = 0.006 (at node 3)
	maximum = 0.013 (at node 14)
Accepted flit rate average= 0.00965625
	minimum = 0.0065 (at node 4)
	maximum = 0.0145 (at node 10)
Injected packet length average = 1
Accepted packet length average = 1
Total in-flight flits = 3 (3 measured)
latency change    = 0.0203135
throughput change = 0.0485437
Class 0:
Packet latency average = 19.2166
	minimum = 7
	maximum = 37
Network latency average = 19.2166
	minimum = 7
	maximum = 37
Slowest packet = 119185
Flit latency average = 19.1852
	minimum = 7
	maximum = 37
Slowest flit = 119185
Fragmentation average = 0
	minimum = 0
	maximum = 0
Injected packet rate average = 0.0095625
	minimum = 0.007 (at node 3)
	maximum = 0.0136667 (at node 14)
Accepted packet rate average = 0.0095625
	minimum = 0.00766667 (at node 5)
	maximum = 0.0133333 (at node 13)
Injected flit rate average = 0.0095625
	minimum = 0.007 (at node 3)
	maximum = 0.0136667 (at node 14)
Accepted flit rate average= 0.0095625
	minimum = 0.00766667 (at node 5)
	maximum = 0.0133333 (at node 13)
Injected packet length average = 1
Accepted packet length average = 1
Total in-flight flits = 2 (2 measured)
latency change    = 0.0116121
throughput change = 0.00980392
Draining all recorded packets ...
Draining remaining packets ...
Time taken is 6053 cycles
====== Overall Traffic Statistics ======
====== Traffic class 0 ======
Packet latency average = 19.5084 (100 samples)
	minimum = 7 (100 samples)
	maximum = 37.11 (100 samples)
Network latency average = 19.5084 (100 samples)
	minimum = 7 (100 samples)
	maximum = 37.11 (100 samples)
Flit latency average = 19.5188 (100 samples)
	minimum = 7 (100 samples)
	maximum = 37.11 (100 samples)
Fragmentation average = 0 (100 samples)
	minimum = 0 (100 samples)
	maximum = 0 (100 samples)
Injected packet rate average = 0.0100096 (100 samples)
	minimum = 0.00748369 (100 samples)
	maximum = 0.0127162 (100 samples)
Accepted packet rate average = 0.0100171 (100 samples)
	minimum = 0.00739964 (100 samples)
	maximum = 0.0126878 (100 samples)
Injected flit rate average = 0.0100096 (100 samples)
	minimum = 0.00748369 (100 samples)
	maximum = 0.0127162 (100 samples)
Accepted flit rate average = 0.0100171 (100 samples)
	minimum = 0.00739964 (100 samples)
	maximum = 0.0126878 (100 samples)
Injected packet size average = 1 (100 samples)
Accepted packet size average = 1 (100 samples)
Hops average = 3.50014 (100 samples)
Total run time 4.91898
