BEGIN Configuration File: /tmp/tmpg_z7e6hg.cfg
topology = mesh;
k = 4;
n = 2;
routing_function = adaptive_xy_yx;
num_vcs = 4;
vc_buf_size = 4;
wait_for_tail_credit = 1;
vc_allocator = islip;
sw_allocator = islip;
alloc_iters = 1;
credit_delay = 2;
routing_delay = 1;
vc_alloc_delay = 1;
sw_alloc_delay = 1;
input_speedup = 2;
output_speedup = 1;
internal_speedup = 1.0;
traffic = hotspot;
packet_size = 1;
sim_type = latency;
injection_rate = 0.02;
warmup_periods = 3;
sample_period = 1000;
sim_count = 100;
seed = 2;

END Configuration File: /tmp/tmpg_z7e6hg.cfg
Class 0:
Packet latency average = 19.9032
	minimum = 7
	maximum = 43
Network latency average = 19.9032
	minimum = 7
	maximum = 43
Slowest packet = 194
Flit latency average = 19.9032
	minimum = 7
	maximum = 43
Slowest flit = 194
Fragmentation average = 0
	minimum = 0
	maximum = 0
Injected packet rate average = 0.0180625
	minimum = 0.008 (at node 9)
	maximum = 0.025 (at node 10)
Accepted packet rate average = 0.0174375
	minimum = 0 (at node 0)
	maximum = 0.279 (at node 11)
Injected flit rate average = 0.0180625
	minimum = 0.008 (at node 9)
	maximum = 0.025 (at node 10)
Accepted flit rate average= 0.0174375
	minimum = 0 (at node 0)
	maximum = 0.279 (at node 11)
Injected packet length average = 1
Accepted packet length average = 1
Total in-flight flits = 10 (0 measured)
latency change    = 1
throughput change = 1
Class 0:
Packet latency average = 21.3443
	minimum = 7
	maximum = 78
Network latency average = 21.3443
	minimum = 7
	maximum = 78
Slowest packet = 339
Flit latency average = 21.3443
	minimum = 7
	maximum = 78
Slowest flit = 339
Fragmentation average = 0
	minimum = 0
	maximum = 0
Injected packet rate average = 0.0190937
	minimum = 0.0145 (at node 2)
	maximum = 0.028 (at node 10)
Accepted packet rate average = 0.0189687
	minimum = 0 (at node 0)
	maximum = 0.3035 (at node 11)
Injected flit rate average = 0.0190937
	minimum = 0.0145 (at node 2)
	maximum = 0.028 (at node 10)
Accepted flit rate average= 0.0189687
	minimum = 0 (at node 0)
	maximum = 0.3035 (at node 11)
Injected packet length average = 1
Accepted packet length average = 1
Total in-flight flits = 4 (0 measured)
latency change    = 0.0675164
throughput change = 0.0807249
Class 0:
Packet latency average = 20.5017
	minimum = 7
	maximum = 48
Network latency average = 20.5017
	minimum = 7
	maximum = 48
Slowest packet = 875
Flit latency average = 20.5017
	minimum = 7
	maximum = 48
Slowest flit = 875
Fragmentation average = 0
	minimum = 0
	maximum = 0
Injected packet rate average = 0.0185
	minimum = 0.011 (at node 6)
	maximum = 0.025 (at node 10)
Accepted packet rate average = 0.0183125
	minimum = 0 (at node 0)
	maximum = 0.293 (at node 11)
Injected flit rate average = 0.0185
	minimum = 0.011 (at node 6)
	maximum = 0.025 (at node 10)
Accepted flit rate average= 0.0183125
	minimum = 0 (at node 0)
	maximum = 0.293 (at node 11)
Injected packet length average = 1
Accepted packet length average = 1
Total in-flight flits = 7 (0 measured)
latency change    = 0.0410995
throughput change = 0.0358362
Warmed up ...Time used is 3000 cycles
Class 0:
Packet latency average = 23.2591
	minimum = 7
	maximum = 85
Network latency average = 23.2591
	minimum = 7
	maximum = 85
Slowest packet = 959
Flit latency average = 23.2186
	minimum = 7
	maximum = 85
Slowest flit = 959
Fragmentation average = 0
	minimum = 0
	maximum = 0
Injected packet rate average = 0.0229375
	minimum = 0.013 (at node 6)
	maximum = 0.03 (at node 12)
Accepted packet rate average = 0.022875
	minimum = 0 (at node 0)
	maximum = 0.366 (at node 11)
Injected flit rate average = 0.0229375
	minimum = 0.013 (at node 6)
	maximum = 0.03 (at node 12)
Accepted flit rate average= 0.022875
	minimum = 0 (at node 0)
	maximum = 0.366 (at node 11)
Injected packet length average = 1
Accepted packet length average = 1
Total in-flight flits = 8 (8 measured)
latency change    = 0.118549
throughput change = 0.199454
Class 0:
Packet latency average = 22.2511
	minimum = 7
	maximum = 85
Network latency average = 22.2511
	minimum = 7
	maximum = 85
Slowest packet = 959
Flit latency average = 22.2396
	minimum = 7
	maximum = 85
Slowest flit = 959
Fragmentation average = 0
	minimum = 0
	maximum = 0
Injected packet rate average = 0.0210625
	minimum = 0.017 (at node 1)
	maximum = 0.026 (at node 7)
Accepted packet rate average = 0.021
	minimum = 0 (at node 0)
	maximum = 0.336 (at node 11)
Injected flit rate average = 0.0210625
	minimum = 0.017 (at node 1)
	maximum = 0.026 (at node 7)
Accepted flit rate average= 0.021
	minimum = 0 (at node 0)
	maximum = 0.336 (at node 11)
Injected packet length average = 1
Accepted packet length average = 1
Total in-flight flits = 9 (9 measured)
latency change    = 0.0452977
throughput change = 0.0892857
Class 0:
Packet latency average = 22.1594
	minimum = 7
	maximum = 85
Network latency average = 22.1594
	minimum = 7
	maximum = 85
Slowest packet = 959
Flit latency average = 22.1522
	minimum = 7
	maximum = 85
Slowest flit = 959
Fragmentation average = 0
	minimum = 0
	maximum = 0
Injected packet rate average = 0.0206667
	minimum = 0.018 (at node 8)
	maximum = 0.0243333 (at node 10)
Accepted packet rate average = 0.0206667
	minimum = 0 (at node 0)
	maximum = 0.330667 (at node 11)
Injected flit rate average = 0.0206667
	minimum = 0.018 (at node 8)
	maximum = 0.0243333 (at node 10)
Accepted flit rate average= 0.0206667
	minimum = 0 (at node 0)
	maximum = 0.330667 (at node 11)
Injected packet length average = 1
Accepted packet length average = 1
Total in-flight flits = 7 (7 measured)
latency change    = 0.00413987
throughput change = 0.016129
Class 0:
Packet latency average = 21.6764
	minimum = 7
	maximum = 85
Network latency average = 21.6764
	minimum = 7
	maximum = 85
Slowest packet = 959
Flit latency average = 21.6736
	minimum = 7
	maximum = 85
Slowest flit = 959
Fragmentation average = 0
	minimum = 0
	maximum = 0
Injected packet rate average = 0.0204688
	minimum = 0.01725 (at node 2)
	maximum = 0.0225 (at node 4)
Accepted packet rate average = 0.0203906
	minimum = 0 (at node 0)
	maximum = 0.32625 (at node 11)
Injected flit rate average = 0.0204688
	minimum = 0.01725 (at node 2)
	maximum = 0.0225 (at node 4)
Accepted flit rate average= 0.0203906
	minimum = 0 (at node 0)
	maximum = 0.32625 (at node 11)
Injected packet length average = 1
Accepted packet length average = 1
Total in-flight flits = 12 (12 measured)
latency change    = 0.0222807
throughput change = 0.0135377
Class 0:
Packet latency average = 21.6949
	minimum = 7
	maximum = 85
Network latency average = 21.6949
	minimum = 7
	maximum = 85
Slowest packet = 959
Flit latency average = 21.6925
	minimum = 7
	maximum = 85
Slowest flit = 959
Fragmentation average = 0
	minimum = 0
	maximum = 0
Injected packet rate average = 0.0206
	minimum = 0.0174 (at node 2)
	maximum = 0.0236 (at node 15)
Accepted packet rate average = 0.0206125
	minimum = 0 (at node 0)
	maximum = 0.3298 (at node 11)
Injected flit rate average = 0.0206
	minimum = 0.0174 (at node 2)
	maximum = 0.0236 (at node 15)
Accepted flit rate average= 0.0206125
	minimum = 0 (at node 0)
	maximum = 0.3298 (at node 11)
Injected packet length average = 1
Accepted packet length average = 1
Total in-flight flits = 6 (6 measured)
latency change    = 0.000850847
throughput change = 0.0107641
Draining all recorded packets ...
Draining remaining packets ...
Time taken is 8044 cycles
Class 0:
Packet latency average = 21.7111
	minimum = 7
	maximum = 54
Network latency average = 21.7111
	minimum = 7
	maximum = 54
Slowest packet = 2864
Flit latency average = 21.7111
	minimum = 7
	maximum = 54
Slowest flit = 2864
Fragmentation average = 0
	minimum = 0
	maximum = 0
Injected packet rate average = 0.02025
	minimum = 0.015 (at node 5)
	maximum = 0.03 (at node 3)
Accepted packet rate average = 0.0196875
	minimum = 0 (at node 0)
	maximum = 0.315 (at node 11)
Injected flit rate average = 0.02025
	minimum = 0.015 (at node 5)
	maximum = 0.03 (at node 3)
Accepted flit rate average= 0.0196875
	minimum = 0 (at node 0)
	maximum = 0.315 (at node 11)
Injected packet length average = 1
Accepted packet length average = 1
Total in-flight flits = 9 (0 measured)
latency change    = 1
throughput change = 1
Class 0:
Packet latency average = 22.2073
	minimum = 7
	maximum = 56
Network latency average = 22.2073
	minimum = 7
	maximum = 56
Slowest packet = 3094
Flit latency average = 22.2073
	minimum = 7
	maximum = 56
Slowest flit = 3094
Fragmentation average = 0
	minimum = 0
	maximum = 0
Injected packet rate average = 0.0208125
	minimum = 0.017 (at node 9)
	maximum = 0.0245 (at node 0)
Accepted packet rate average = 0.0206563
	minimum = 0 (at node 0)
	maximum = 0.3305 (at node 11)
Injected flit rate average = 0.0208125
	minimum = 0.017 (at node 9)
	maximum = 0.0245 (at node 0)
Accepted flit rate average= 0.0206563
	minimum = 0 (at node 0)
	maximum = 0.3305 (at node 11)
Injected packet length average = 1
Accepted packet length average = 1
Total in-flight flits = 5 (0 measured)
latency change    = 0.0223418
throughput change = 0.0468986
Class 0:
Packet latency average = 22.8459
	minimum = 7
	maximum = 53
Network latency average = 22.8459
	minimum = 7
	maximum = 53
Slowest packet = 3281
Flit latency average = 22.8459
	minimum = 7
	maximum = 53
Slowest flit = 3281
Fragmentation average = 0
	minimum = 0
	maximum = 0
Injected packet rate average = 0.022125
	minimum = 0.015 (at node 1)
	maximum = 0.03 (at node 12)
Accepted packet rate average = 0.0215
	minimum = 0 (at node 0)
	maximum = 0.344 (at node 11)
Injected flit rate average = 0.022125
	minimum = 0.015 (at node 1)
	maximum = 0.03 (at node 12)
Accepted flit rate average= 0.0215
	minimum = 0 (at node 0)
	maximum = 0.344 (at node 11)
Injected packet length average = 1
Accepted packet length average = 1
Total in-flight flits = 15 (0 measured)
latency change    = 0.0279555
throughput change = 0.0392442
Warmed up ...Time used is 3000 cycles
Class 0:
Packet latency average = 21.2326
	minimum = 7
	maximum = 46
Network latency average = 21.2326
	minimum = 7
	maximum = 46
Slowest packet = 3781
Flit latency average = 21.481
	minimum = 7
	maximum = 46
Slowest flit = 3781
Fragmentation average = 0
	minimum = 0
	maximum = 0
Injected packet rate average = 0.019125
	minimum = 0.013 (at node 9)
	maximum = 0.027 (at node 1)
Accepted packet rate average = 0.01975
	minimum = 0 (at node 0)
	maximum = 0.316 (at node 11)
Injected flit rate average = 0.019125
	minimum = 0.013 (at node 9)
	maximum = 0.027 (at node 1)
Accepted flit rate average= 0.01975
	minimum = 0 (at node 0)
	maximum = 0.316 (at node 11)
Injected packet length average = 1
Accepted packet length average = 1
Total in-flight flits = 5 (5 measured)
latency change    = 0.0759858
throughput change = 0.0886076
Class 0:
Packet latency average = 21.4692
	minimum = 7
	maximum = 48
Network latency average = 21.4692
	minimum = 7
	maximum = 48
Slowest packet = 3922
Flit latency average = 21.5909
	minimum = 7
	maximum = 48
Slowest flit = 3922
Fragmentation average = 0
	minimum = 0
	maximum = 0
Injected packet rate average = 0.019
	minimum = 0.014 (at node 9)
	maximum = 0.0235 (at node 5)
Accepted packet rate average = 0.01925
	minimum = 0 (at node 0)
	maximum = 0.308 (at node 11)
Injected flit rate average = 0.019
	minimum = 0.014 (at node 9)
	maximum = 0.0235 (at node 5)
Accepted flit rate average= 0.01925
	minimum = 0 (at node 0)
	maximum = 0.308 (at node 11)
Injected packet length average = 1
Accepted packet length average = 1
Total in-flight flits = 7 (7 measured)
latency change    = 0.0110232
throughput change = 0.025974
Class 0:
Packet latency average = 21.6053
	minimum = 7
	maximum = 67
Network latency average = 21.6053
	minimum = 7
	maximum = 67
Slowest packet = 4219
Flit latency average = 21.6839
	minimum = 7
	maximum = 67
Slowest flit = 4219
Fragmentation average = 0
	minimum = 0
	maximum = 0
Injected packet rate average = 0.0192083
	minimum = 0.0146667 (at node 6)
	maximum = 0.0226667 (at node 1)
Accepted packet rate average = 0.0193125
	minimum = 0 (at node 0)
	maximum = 0.309 (at node 11)
Injected flit rate average = 0.0192083
	minimum = 0.0146667 (at node 6)
	maximum = 0.0226667 (at node 1)
Accepted flit rate average= 0.0193125
	minimum = 0 (at node 0)
	maximum = 0.309 (at node 11)
Injected packet length average = 1
Accepted packet length average = 1
Total in-flight flits = 10 (10 measured)
latency change    = 0.00629685
throughput change = 0.00323625
Class 0:
Packet latency average = 21.357
	minimum = 7
	maximum = 67
Network latency average = 21.357
	minimum = 7
	maximum = 67
Slowest packet = 4219
Flit latency average = 21.4187
	minimum = 7
	maximum = 67
Slowest flit = 4219
Fragmentation average = 0
	minimum = 0
	maximum = 0
Injected packet rate average = 0.0192812
	minimum = 0.0145 (at node 6)
	maximum = 0.0225 (at node 5)
Accepted packet rate average = 0.0194062
	minimum = 0 (at node 0)
	maximum = 0.3105 (at node 11)
Injected flit rate average = 0.0192812
	minimum = 0.0145 (at node 6)
	maximum = 0.0225 (at node 5)
Accepted flit rate average= 0.0194062
	minimum = 0 (at node 0)
	maximum = 0.3105 (at node 11)
Injected packet length average = 1
Accepted packet length average = 1
Total in-flight flits = 7 (7 measured)
latency change    = 0.0116259
throughput change = 0.00483092
Draining all recorded packets ...
Draining remaining packets ...
Time taken is 7052 cycles
Class 0:
Packet latency average = 23.1272
	minimum = 7
	maximum = 67
Network latency average = 23.1272
	minimum = 7
	maximum = 67
Slowest packet = 4985
Flit latency average = 23.1272
	minimum = 7
	maximum = 67
Slowest flit = 4985
Fragmentation average = 0
	minimum = 0
	maximum = 0
Injected packet rate average = 0.0221875
	minimum = 0.011 (at node 2)
	maximum = 0.034 (at node 1)
Accepted packet rate average = 0.021625
	minimum = 0 (at node 0)
	maximum = 0.346 (at node 11)
Injected flit rate average = 0.0221875
	minimum = 0.011 (at node 2)
	maximum = 0.034 (at node 1)
Accepted flit rate average= 0.021625
	minimum = 0 (at node 0)
	maximum = 0.346 (at node 11)
Injected packet length average = 1
Accepted packet length average = 1
Total in-flight flits = 9 (0 measured)
latency change    = 1
throughput change = 1
Class 0:
Packet latency average = 22.6285
	minimum = 7
	maximum = 67
Network latency average = 22.6285
	minimum = 7
	maximum = 67
Slowest packet = 4985
Flit latency average = 22.6285
	minimum = 7
	maximum = 67
Slowest flit = 4985
Fragmentation average = 0
	minimum = 0
	maximum = 0
Injected packet rate average = 0.0202188
	minimum = 0.0165 (at node 7)
	maximum = 0.0265 (at node 0)
Accepted packet rate average = 0.0199375
	minimum = 0 (at node 0)
	maximum = 0.319 (at node 11)
Injected flit rate average = 0.0202188
	minimum = 0.0165 (at node 7)
	maximum = 0.0265 (at node 0)
Accepted flit rate average= 0.0199375
	minimum = 0 (at node 0)
	maximum = 0.319 (at node 11)
Injected packet length average = 1
Accepted packet length average = 1
Total in-flight flits = 9 (0 measured)
latency change    = 0.0220359
throughput change = 0.0846395
Class 0:
Packet latency average = 21.3459
	minimum = 7
	maximum = 45
Network latency average = 21.3459
	minimum = 7
	maximum = 45
Slowest packet = 5615
Flit latency average = 21.3459
	minimum = 7
	maximum = 45
Slowest flit = 5615
Fragmentation average = 0
	minimum = 0
	maximum = 0
Injected packet rate average = 0.019875
	minimum = 0.012 (at node 1)
	maximum = 0.027 (at node 2)
Accepted packet rate average = 0.019875
	minimum = 0 (at node 0)
	maximum = 0.318 (at node 11)
Injected flit rate average = 0.019875
	minimum = 0.012 (at node 1)
	maximum = 0.027 (at node 2)
Accepted flit rate average= 0.019875
	minimum = 0 (at node 0)
	maximum = 0.318 (at node 11)
Injected packet length average = 1
Accepted packet length average = 1
Total in-flight flits = 9 (0 measured)
latency change    = 0.0600871
throughput change = 0.00314465
Warmed up ...Time used is 3000 cycles
Class 0:
Packet latency average = 20.7453
	minimum = 7
	maximum = 36
Network latency average = 20.7453
	minimum = 7
	maximum = 36
Slowest packet = 5822
Flit latency average = 20.8297
	minimum = 7
	maximum = 36
Slowest flit = 5822
Fragmentation average = 0
	minimum = 0
	maximum = 0
Injected packet rate average = 0.0169375
	minimum = 0.012 (at node 10)
	maximum = 0.027 (at node 2)
Accepted packet rate average = 0.01725
	minimum = 0 (at node 0)
	maximum = 0.276 (at node 11)
Injected flit rate average = 0.0169375
	minimum = 0.012 (at node 10)
	maximum = 0.027 (at node 2)
Accepted flit rate average= 0.01725
	minimum = 0 (at node 0)
	maximum = 0.276 (at node 11)
Injected packet length average = 1
Accepted packet length average = 1
Total in-flight flits = 4 (4 measured)
latency change    = 0.0289508
throughput change = 0.152174
Class 0:
Packet latency average = 21.0952
	minimum = 7
	maximum = 57
Network latency average = 21.0952
	minimum = 7
	maximum = 57
Slowest packet = 6302
Flit latency average = 21.129
	minimum = 7
	maximum = 57
Slowest flit = 6302
Fragmentation average = 0
	minimum = 0
	maximum = 0
Injected packet rate average = 0.0185
	minimum = 0.014 (at node 15)
	maximum = 0.027 (at node 12)
Accepted packet rate average = 0.0186562
	minimum = 0 (at node 0)
	maximum = 0.2985 (at node 11)
Injected flit rate average = 0.0185
	minimum = 0.014 (at node 15)
	maximum = 0.027 (at node 12)
Accepted flit rate average= 0.0186562
	minimum = 0 (at node 0)
	maximum = 0.2985 (at node 11)
Injected packet length average = 1
Accepted packet length average = 1
Total in-flight flits = 4 (4 measured)
latency change    = 0.0165876
throughput change = 0.0753769
Class 0:
Packet latency average = 21.4093
	minimum = 7
	maximum = 60
Network latency average = 21.4093
	minimum = 7
	maximum = 60
Slowest packet = 6476
Flit latency average = 21.428
	minimum = 7
	maximum = 60
Slowest flit = 6476
Fragmentation average = 0
	minimum = 0
	maximum = 0
Injected packet rate average = 0.0193542
	minimum = 0.016 (at node 15)
	maximum = 0.0243333 (at node 12)
Accepted packet rate average = 0.019375
	minimum = 0 (at node 0)
	maximum = 0.31 (at node 11)
Injected flit rate average = 0.0193542
	minimum = 0.016 (at node 15)
	maximum = 0.0243333 (at node 12)
Accepted flit rate average= 0.019375
	minimum = 0 (at node 0)
	maximum = 0.31 (at node 11)
Injected packet length average = 1
Accepted packet length average = 1
Total in-flight flits = 8 (8 measured)
latency change    = 0.0146711
throughput change = 0.0370968
Class 0:
Packet latency average = 21.4498
	minimum = 7
	maximum = 60
Network latency average = 21.4498
	minimum = 7
	maximum = 60
Slowest packet = 6476
Flit latency average = 21.4633
	minimum = 7
	maximum = 60
Slowest flit = 6476
Fragmentation average = 0
	minimum = 0
	maximum = 0
Injected packet rate average = 0.0196406
	minimum = 0.017 (at node 15)
	maximum = 0.02325 (at node 12)
Accepted packet rate average = 0.0195938
	minimum = 0 (at node 0)
	maximum = 0.3135 (at node 11)
Injected flit rate average = 0.0196406
	minimum = 0.017 (at node 15)
	maximum = 0.02325 (at node 12)
Accepted flit rate average= 0.0195938
	minimum = 0 (at node 0)
	maximum = 0.3135 (at node 11)
Injected packet length average = 1
Accepted packet length average = 1
Total in-flight flits = 12 (12 measured)
latency change    = 0.00188634
throughput change = 0.0111643
Class 0:
Packet latency average = 21.5102
	minimum = 7
	maximum = 60
Network latency average = 21.5102
	minimum = 7
	maximum = 60
Slowest packet = 6476
Flit latency average = 21.5207
	minimum = 7
	maximum = 60
Slowest flit = 6476
Fragmentation average = 0
	minimum = 0
	maximum = 0
Injected packet rate average = 0.0196375
	minimum = 0.017 (at node 15)
	maximum = 0.0234 (at node 13)
Accepted packet rate average = 0.0196375
	minimum = 0 (at node 0)
	maximum = 0.3142 (at node 11)
Injected flit rate average = 0.0196375
	minimum = 0.017 (at node 15)
	maximum = 0.0234 (at node 13)
Accepted flit rate average= 0.0196375
	minimum = 0 (at node 0)
	maximum = 0.3142 (at node 11)
Injected packet length average = 1
Accepted packet length average = 1
Total in-flight flits = 9 (9 measured)
latency change    = 0.00281001
throughput change = 0.00222788
Draining all recorded packets ...
Draining remaining packets ...
Time taken is 8061 cycles
Class 0:
Packet latency average = 21.9834
	minimum = 7
	maximum = 75
Network latency average = 21.9834
	minimum = 7
	maximum = 75
Slowest packet = 7634
Flit latency average = 21.9834
	minimum = 7
	maximum = 75
Slowest flit = 7634
Fragmentation average = 0
	minimum = 0
	maximum = 0
Injected packet rate average = 0.019375
	minimum = 0.014 (at node 0)
	maximum = 0.029 (at node 6)
Accepted packet rate average = 0.0188125
	minimum = 0 (at node 0)
	maximum = 0.301 (at node 11)
Injected flit rate average = 0.019375
	minimum = 0.014 (at node 0)
	maximum = 0.029 (at node 6)
Accepted flit rate average= 0.0188125
	minimum = 0 (at node 0)
	maximum = 0.301 (at node 11)
Injected packet length average = 1
Accepted packet length average = 1
Total in-flight flits = 9 (0 measured)
latency change    = 1
throughput change = 1
Class 0:
Packet latency average = 21.5
	minimum = 7
	maximum = 75
Network latency average = 21.5
	minimum = 7
	maximum = 75
Slowest packet = 7634
Flit latency average = 21.5
	minimum = 7
	maximum = 75
Slowest flit = 7634
Fragmentation average = 0
	minimum = 0
	maximum = 0
Injected packet rate average = 0.0197188
	minimum = 0.0125 (at node 5)
	maximum = 0.026 (at node 6)
Accepted packet rate average = 0.0195625
	minimum = 0 (at node 0)
	maximum = 0.313 (at node 11)
Injected flit rate average = 0.0197188
	minimum = 0.0125 (at node 5)
	maximum = 0.026 (at node 6)
Accepted flit rate average= 0.0195625
	minimum = 0 (at node 0)
	maximum = 0.313 (at node 11)
Injected packet length average = 1
Accepted packet length average = 1
Total in-flight flits = 5 (0 measured)
latency change    = 0.0224832
throughput change = 0.0383387
Class 0:
Packet latency average = 22.1118
	minimum = 7
	maximum = 60
Network latency average = 22.1118
	minimum = 7
	maximum = 60
Slowest packet = 8135
Flit latency average = 22.1118
	minimum = 7
	maximum = 60
Slowest flit = 8135
Fragmentation average = 0
	minimum = 0
	maximum = 0
Injected packet rate average = 0.0194375
	minimum = 0.013 (at node 5)
	maximum = 0.026 (at node 3)
Accepted packet rate average = 0.0195625
	minimum = 0 (at node 0)
	maximum = 0.313 (at node 11)
Injected flit rate average = 0.0194375
	minimum = 0.013 (at node 5)
	maximum = 0.026 (at node 3)
Accepted flit rate average= 0.0195625
	minimum = 0 (at node 0)
	maximum = 0.313 (at node 11)
Injected packet length average = 1
Accepted packet length average = 1
Total in-flight flits = 3 (0 measured)
latency change    = 0.0276694
throughput change = 0
Warmed up ...Time used is 3000 cycles
Class 0:
Packet latency average = 22.5415
	minimum = 7
	maximum = 104
Network latency average = 22.5415
	minimum = 7
	maximum = 104
Slowest packet = 8378
Flit latency average = 22.5396
	minimum = 7
	maximum = 104
Slowest flit = 8378
Fragmentation average = 0
	minimum = 0
	maximum = 0
Injected packet rate average = 0.02075
	minimum = 0.01 (at node 9)
	maximum = 0.033 (at node 4)
Accepted packet rate average = 0.0205
	minimum = 0 (at node 0)
	maximum = 0.328 (at node 11)
Injected flit rate average = 0.02075
	minimum = 0.01 (at node 9)
	maximum = 0.033 (at node 4)
Accepted flit rate average= 0.0205
	minimum = 0 (at node 0)
	maximum = 0.328 (at node 11)
Injected packet length average = 1
Accepted packet length average = 1
Total in-flight flits = 7 (7 measured)
latency change    = 0.0190634
throughput change = 0.0457317
Class 0:
Packet latency average = 22.2842
	minimum = 7
	maximum = 104
Network latency average = 22.2842
	minimum = 7
	maximum = 104
Slowest packet = 8378
Flit latency average = 22.2844
	minimum = 7
	maximum = 104
Slowest flit = 8378
Fragmentation average = 0
	minimum = 0
	maximum = 0
Injected packet rate average = 0.02075
	minimum = 0.0165 (at node 9)
	maximum = 0.025 (at node 4)
Accepted packet rate average = 0.0206563
	minimum = 0 (at node 0)
	maximum = 0.3305 (at node 11)
Injected flit rate average = 0.02075
	minimum = 0.0165 (at node 9)
	maximum = 0.025 (at node 4)
Accepted flit rate average= 0.0206563
	minimum = 0 (at node 0)
	maximum = 0.3305 (at node 11)
Injected packet length average = 1
Accepted packet length average = 1
Total in-flight flits = 6 (6 measured)
latency change    = 0.0115483
throughput change = 0.0075643
Class 0:
Packet latency average = 22.11
	minimum = 7
	maximum = 104
Network latency average = 22.11
	minimum = 7
	maximum = 104
Slowest packet = 8378
Flit latency average = 22.1107
	minimum = 7
	maximum = 104
Slowest flit = 8378
Fragmentation average = 0
	minimum = 0
	maximum = 0
Injected packet rate average = 0.0206042
	minimum = 0.0153333 (at node 9)
	maximum = 0.0246667 (at node 10)
Accepted packet rate average = 0.0205208
	minimum = 0 (at node 0)
	maximum = 0.328333 (at node 11)
Injected flit rate average = 0.0206042
	minimum = 0.0153333 (at node 9)
	maximum = 0.0246667 (at node 10)
Accepted flit rate average= 0.0205208
	minimum = 0 (at node 0)
	maximum = 0.328333 (at node 11)
Injected packet length average = 1
Accepted packet length average = 1
Total in-flight flits = 7 (7 measured)
latency change    = 0.00787947
throughput change = 0.00659898
Draining all recorded packets ...
Draining remaining packets ...
Time taken is 6055 cycles
Class 0:
Packet latency average = 21.5079
	minimum = 7
	maximum = 68
Network latency average = 21.5079
	minimum = 7
	maximum = 68
Slowest packet = 9456
Flit latency average = 21.5079
	minimum = 7
	maximum = 68
Slowest flit = 9456
Fragmentation average = 0
	minimum = 0
	maximum = 0
Injected packet rate average = 0.019875
	minimum = 0.014 (at node 10)
	maximum = 0.026 (at node 9)
Accepted packet rate average = 0.0196875
	minimum = 0 (at node 0)
	maximum = 0.315 (at node 11)
Injected flit rate average = 0.019875
	minimum = 0.014 (at node 10)
	maximum = 0.026 (at node 9)
Accepted flit rate average= 0.0196875
	minimum = 0 (at node 0)
	maximum = 0.315 (at node 11)
Injected packet length average = 1
Accepted packet length average = 1
Total in-flight flits = 3 (0 measured)
latency change    = 1
throughput change = 1
Class 0:
Packet latency average = 21.5321
	minimum = 7
	maximum = 68
Network latency average = 21.5321
	minimum = 7
	maximum = 68
Slowest packet = 9456
Flit latency average = 21.5321
	minimum = 7
	maximum = 68
Slowest flit = 9456
Fragmentation average = 0
	minimum = 0
	maximum = 0
Injected packet rate average = 0.0196875
	minimum = 0.0145 (at node 13)
	maximum = 0.0255 (at node 6)
Accepted packet rate average = 0.0195
	minimum = 0 (at node 0)
	maximum = 0.312 (at node 11)
Injected flit rate average = 0.0196875
	minimum = 0.0145 (at node 13)
	maximum = 0.0255 (at node 6)
Accepted flit rate average= 0.0195
	minimum = 0 (at node 0)
	maximum = 0.312 (at node 11)
Injected packet length average = 1
Accepted packet length average = 1
Total in-flight flits = 6 (0 measured)
latency change    = 0.00111995
throughput change = 0.00961538
Class 0:
Packet latency average = 21.2718
	minimum = 7
	maximum = 57
Network latency average = 21.2718
	minimum = 7
	maximum = 57
Slowest packet = 10226
Flit latency average = 21.2718
	minimum = 7
	maximum = 57
Slowest flit = 10226
Fragmentation average = 0
	minimum = 0
	maximum = 0
Injected packet rate average = 0.0191875
	minimum = 0.012 (at node 7)
	maximum = 0.029 (at node 4)
Accepted packet rate average = 0.0193125
	minimum = 0 (at node 0)
	maximum = 0.309 (at node 11)
Injected flit rate average = 0.0191875
	minimum = 0.012 (at node 7)
	maximum = 0.029 (at node 4)
Accepted flit rate average= 0.0193125
	minimum = 0 (at node 0)
	maximum = 0.309 (at node 11)
Injected packet length average = 1
Accepted packet length average = 1
Total in-flight flits = 4 (0 measured)
latency change    = 0.0122324
throughput change = 0.00970874
Warmed up ...Time used is 3000 cycles
Class 0:
Packet latency average = 20.7212
	minimum = 7
	maximum = 42
Network latency average = 20.7212
	minimum = 7
	maximum = 42
Slowest packet = 10560
Flit latency average = 20.7874
	minimum = 7
	maximum = 42
Slowest flit = 10560
Fragmentation average = 0
	minimum = 0
	maximum = 0
Injected packet rate average = 0.0215625
	minimum = 0.014 (at node 12)
	maximum = 0.032 (at node 3)
Accepted packet rate average = 0.020875
	minimum = 0 (at node 0)
	maximum = 0.334 (at node 11)
Injected flit rate average = 0.0215625
	minimum = 0.014 (at node 12)
	maximum = 0.032 (at node 3)
Accepted flit rate average= 0.020875
	minimum = 0 (at node 0)
	maximum = 0.334 (at node 11)
Injected packet length average = 1
Accepted packet length average = 1
Total in-flight flits = 15 (15 measured)
latency change    = 0.0265734
throughput change = 0.0748503
Class 0:
Packet latency average = 20.5535
	minimum = 7
	maximum = 51
Network latency average = 20.5535
	minimum = 7
	maximum = 51
Slowest packet = 10586
Flit latency average = 20.5886
	minimum = 7
	maximum = 51
Slowest flit = 10586
Fragmentation average = 0
	minimum = 0
	maximum = 0
Injected packet rate average = 0.0204375
	minimum = 0.0135 (at node 12)
	maximum = 0.026 (at node 2)
Accepted packet rate average = 0.0202813
	minimum = 0 (at node 0)
	maximum = 0.3245 (at node 11)
Injected flit rate average = 0.0204375
	minimum = 0.0135 (at node 12)
	maximum = 0.026 (at node 2)
Accepted flit rate average= 0.0202813
	minimum = 0 (at node 0)
	maximum = 0.3245 (at node 11)
Injected packet length average = 1
Accepted packet length average = 1
Total in-flight flits = 9 (9 measured)
latency change    = 0.00816035
throughput change = 0.0292758
Class 0:
Packet latency average = 20.9246
	minimum = 7
	maximum = 64
Network latency average = 20.9246
	minimum = 7
	maximum = 64
Slowest packet = 11122
Flit latency average = 20.9468
	minimum = 7
	maximum = 64
Slowest flit = 11122
Fragmentation average = 0
	minimum = 0
	maximum = 0
Injected packet rate average = 0.02
	minimum = 0.0146667 (at node 4)
	maximum = 0.0236667 (at node 2)
Accepted packet rate average = 0.0199792
	minimum = 0 (at node 0)
	maximum = 0.319667 (at node 11)
Injected flit rate average = 0.02
	minimum = 0.0146667 (at node 4)
	maximum = 0.0236667 (at node 2)
Accepted flit rate average= 0.0199792
	minimum = 0 (at node 0)
	maximum = 0.319667 (at node 11)
Injected packet length average = 1
Accepted packet length average = 1
Total in-flight flits = 5 (5 measured)
latency change    = 0.017736
throughput change = 0.0151199
Class 0:
Packet latency average = 21.0206
	minimum = 7
	maximum = 64
Network latency average = 21.0206
	minimum = 7
	maximum = 64
Slowest packet = 11122
Flit latency average = 21.0371
	minimum = 7
	maximum = 64
Slowest flit = 11122
Fragmentation average = 0
	minimum = 0
	maximum = 0
Injected packet rate average = 0.0198594
	minimum = 0.01625 (at node 12)
	maximum = 0.02325 (at node 7)
Accepted packet rate average = 0.0197969
	minimum = 0 (at node 0)
	maximum = 0.31675 (at node 11)
Injected flit rate average = 0.0198594
	minimum = 0.01625 (at node 12)
	maximum = 0.02325 (at node 7)
Accepted flit rate average= 0.0197969
	minimum = 0 (at node 0)
	maximum = 0.31675 (at node 11)
Injected packet length average = 1
Accepted packet length average = 1
Total in-flight flits = 8 (8 measured)
latency change    = 0.00456593
throughput change = 0.0092081
Draining all recorded packets ...
Draining remaining packets ...
Time taken is 7050 cycles
Class 0:
Packet latency average = 20.596
	minimum = 7
	maximum = 54
Network latency average = 20.596
	minimum = 7
	maximum = 54
Slowest packet = 11610
Flit latency average = 20.596
	minimum = 7
	maximum = 54
Slowest flit = 11610
Fragmentation average = 0
	minimum = 0
	maximum = 0
Injected packet rate average = 0.0191875
	minimum = 0.011 (at node 6)
	maximum = 0.029 (at node 5)
Accepted packet rate average = 0.0185625
	minimum = 0 (at node 0)
	maximum = 0.297 (at node 11)
Injected flit rate average = 0.0191875
	minimum = 0.011 (at node 6)
	maximum = 0.029 (at node 5)
Accepted flit rate average= 0.0185625
	minimum = 0 (at node 0)
	maximum = 0.297 (at node 11)
Injected packet length average = 1
Accepted packet length average = 1
Total in-flight flits = 10 (0 measured)
latency change    = 1
throughput change = 1
Class 0:
Packet latency average = 20.8923
	minimum = 7
	maximum = 54
Network latency average = 20.8923
	minimum = 7
	maximum = 54
Slowest packet = 11610
Flit latency average = 20.8923
	minimum = 7
	maximum = 54
Slowest flit = 11610
Fragmentation average = 0
	minimum = 0
	maximum = 0
Injected packet rate average = 0.0195625
	minimum = 0.013 (at node 6)
	maximum = 0.0245 (at node 7)
Accepted packet rate average = 0.0194375
	minimum = 0 (at node 0)
	maximum = 0.311 (at node 11)
Injected flit rate average = 0.0195625
	minimum = 0.013 (at node 6)
	maximum = 0.0245 (at node 7)
Accepted flit rate average= 0.0194375
	minimum = 0 (at node 0)
	maximum = 0.311 (at node 11)
Injected packet length average = 1
Accepted packet length average = 1
Total in-flight flits = 4 (0 measured)
latency change    = 0.0141834
throughput change = 0.0450161
Class 0:
Packet latency average = 21.2014
	minimum = 7
	maximum = 54
Network latency average = 21.2014
	minimum = 7
	maximum = 54
Slowest packet = 12402
Flit latency average = 21.2014
	minimum = 7
	maximum = 54
Slowest flit = 12402
Fragmentation average = 0
	minimum = 0
	maximum = 0
Injected packet rate average = 0.017875
	minimum = 0.012 (at node 10)
	maximum = 0.027 (at node 3)
Accepted packet rate average = 0.0176875
	minimum = 0 (at node 0)
	maximum = 0.283 (at node 11)
Injected flit rate average = 0.017875
	minimum = 0.012 (at node 10)
	maximum = 0.027 (at node 3)
Accepted flit rate average= 0.0176875
	minimum = 0 (at node 0)
	maximum = 0.283 (at node 11)
Injected packet length average = 1
Accepted packet length average = 1
Total in-flight flits = 7 (0 measured)
latency change    = 0.0145807
throughput change = 0.0989399
Warmed up ...Time used is 3000 cycles
Class 0:
Packet latency average = 20.4773
	minimum = 7
	maximum = 52
Network latency average = 20.4773
	minimum = 7
	maximum = 52
Slowest packet = 12632
Flit latency average = 20.5778
	minimum = 7
	maximum = 52
Slowest flit = 12632
Fragmentation average = 0
	minimum = 0
	maximum = 0
Injected packet rate average = 0.019875
	minimum = 0.012 (at node 13)
	maximum = 0.026 (at node 11)
Accepted packet rate average = 0.0196875
	minimum = 0 (at node 0)
	maximum = 0.315 (at node 11)
Injected flit rate average = 0.019875
	minimum = 0.012 (at node 13)
	maximum = 0.026 (at node 11)
Accepted flit rate average= 0.0196875
	minimum = 0 (at node 0)
	maximum = 0.315 (at node 11)
Injected packet length average = 1
Accepted packet length average = 1
Total in-flight flits = 10 (10 measured)
latency change    = 0.0353631
throughput change = 0.101587
Class 0:
Packet latency average = 20.8535
	minimum = 7
	maximum = 52
Network latency average = 20.8535
	minimum = 7
	maximum = 52
Slowest packet = 12632
Flit latency average = 20.8997
	minimum = 7
	maximum = 52
Slowest flit = 12632
Fragmentation average = 0
	minimum = 0
	maximum = 0
Injected packet rate average = 0.0195312
	minimum = 0.0155 (at node 14)
	maximum = 0.025 (at node 1)
Accepted packet rate average = 0.019625
	minimum = 0 (at node 0)
	maximum = 0.314 (at node 11)
Injected flit rate average = 0.0195312
	minimum = 0.0155 (at node 14)
	maximum = 0.025 (at node 1)
Accepted flit rate average= 0.019625
	minimum = 0 (at node 0)
	maximum = 0.314 (at node 11)
Injected packet length average = 1
Accepted packet length average = 1
Total in-flight flits = 4 (4 measured)
latency change    = 0.0180397
throughput change = 0.00318471
Class 0:
Packet latency average = 20.7595
	minimum = 7
	maximum = 58
Network latency average = 20.7595
	minimum = 7
	maximum = 58
Slowest packet = 13321
Flit latency average = 20.7904
	minimum = 7
	maximum = 58
Slowest flit = 13321
Fragmentation average = 0
	minimum = 0
	maximum = 0
Injected packet rate average = 0.0199167
	minimum = 0.017 (at node 2)
	maximum = 0.0233333 (at node 8)
Accepted packet rate average = 0.0199792
	minimum = 0 (at node 0)
	maximum = 0.319667 (at node 11)
Injected flit rate average = 0.0199167
	minimum = 0.017 (at node 2)
	maximum = 0.0233333 (at node 8)
Accepted flit rate average= 0.0199792
	minimum = 0 (at node 0)
	maximum = 0.319667 (at node 11)
Injected packet length average = 1
Accepted packet length average = 1
Total in-flight flits = 4 (4 measured)
latency change    = 0.00452846
throughput change = 0.0177268
Class 0:
Packet latency average = 20.8864
	minimum = 7
	maximum = 71
Network latency average = 20.8864
	minimum = 7
	maximum = 71
Slowest packet = 13499
Flit latency average = 20.91
	minimum = 7
	maximum = 71
Slowest flit = 13499
Fragmentation average = 0
	minimum = 0
	maximum = 0
Injected packet rate average = 0.0190625
	minimum = 0.01675 (at node 13)
	maximum = 0.0215 (at node 6)
Accepted packet rate average = 0.0190937
	minimum = 0 (at node 0)
	maximum = 0.3055 (at node 11)
Injected flit rate average = 0.0190625
	minimum = 0.01675 (at node 13)
	maximum = 0.0215 (at node 6)
Accepted flit rate average= 0.0190937
	minimum = 0 (at node 0)
	maximum = 0.3055 (at node 11)
Injected packet length average = 1
Accepted packet length average = 1
Total in-flight flits = 5 (5 measured)
latency change    = 0.00607888
throughput change = 0.0463721
Draining all recorded packets ...
Draining remaining packets ...
Time taken is 7063 cycles
Class 0:
Packet latency average = 21.642
	minimum = 7
	maximum = 52
Network latency average = 21.642
	minimum = 7
	maximum = 52
Slowest packet = 13990
Flit latency average = 21.642
	minimum = 7
	maximum = 52
Slowest flit = 13990
Fragmentation average = 0
	minimum = 0
	maximum = 0
Injected packet rate average = 0.02075
	minimum = 0.013 (at node 6)
	maximum = 0.034 (at node 5)
Accepted packet rate average = 0.02025
	minimum = 0 (at node 0)
	maximum = 0.324 (at node 11)
Injected flit rate average = 0.02075
	minimum = 0.013 (at node 6)
	maximum = 0.034 (at node 5)
Accepted flit rate average= 0.02025
	minimum = 0 (at node 0)
	maximum = 0.324 (at node 11)
Injected packet length average = 1
Accepted packet length average = 1
Total in-flight flits = 8 (0 measured)
latency change    = 1
throughput change = 1
Class 0:
Packet latency average = 21.7453
	minimum = 7
	maximum = 68
Network latency average = 21.7453
	minimum = 7
	maximum = 68
Slowest packet = 14232
Flit latency average = 21.7453
	minimum = 7
	maximum = 68
Slowest flit = 14232
Fragmentation average = 0
	minimum = 0
	maximum = 0
Injected packet rate average = 0.0204063
	minimum = 0.015 (at node 6)
	maximum = 0.0265 (at node 10)
Accepted packet rate average = 0.020125
	minimum = 0 (at node 0)
	maximum = 0.322 (at node 11)
Injected flit rate average = 0.0204063
	minimum = 0.015 (at node 6)
	maximum = 0.0265 (at node 10)
Accepted flit rate average= 0.020125
	minimum = 0 (at node 0)
	maximum = 0.322 (at node 11)
Injected packet length average = 1
Accepted packet length average = 1
Total in-flight flits = 9 (0 measured)
latency change    = 0.00475349
throughput change = 0.00621118
Class 0:
Packet latency average = 21.9614
	minimum = 7
	maximum = 66
Network latency average = 21.9614
	minimum = 7
	maximum = 66
Slowest packet = 14399
Flit latency average = 21.9614
	minimum = 7
	maximum = 66
Slowest flit = 14399
Fragmentation average = 0
	minimum = 0
	maximum = 0
Injected packet rate average = 0.0194375
	minimum = 0.014 (at node 5)
	maximum = 0.027 (at node 1)
Accepted packet rate average = 0.0194375
	minimum = 0 (at node 0)
	maximum = 0.311 (at node 11)
Injected flit rate average = 0.0194375
	minimum = 0.014 (at node 5)
	maximum = 0.027 (at node 1)
Accepted flit rate average= 0.0194375
	minimum = 0 (at node 0)
	maximum = 0.311 (at node 11)
Injected packet length average = 1
Accepted packet length average = 1
Total in-flight flits = 9 (0 measured)
latency change    = 0.00983876
throughput change = 0.0353698
Warmed up ...Time used is 3000 cycles
Class 0:
Packet latency average = 21.566
	minimum = 7
	maximum = 55
Network latency average = 21.566
	minimum = 7
	maximum = 55
Slowest packet = 14857
Flit latency average = 21.6571
	minimum = 7
	maximum = 55
Slowest flit = 14857
Fragmentation average = 0
	minimum = 0
	maximum = 0
Injected packet rate average = 0.021875
	minimum = 0.014 (at node 2)
	maximum = 0.03 (at node 4)
Accepted packet rate average = 0.021875
	minimum = 0 (at node 0)
	maximum = 0.35 (at node 11)
Injected flit rate average = 0.021875
	minimum = 0.014 (at node 2)
	maximum = 0.03 (at node 4)
Accepted flit rate average= 0.021875
	minimum = 0 (at node 0)
	maximum = 0.35 (at node 11)
Injected packet length average = 1
Accepted packet length average = 1
Total in-flight flits = 9 (9 measured)
latency change    = 0.0183359
throughput change = 0.111429
Class 0:
Packet latency average = 22.6754
	minimum = 7
	maximum = 101
Network latency average = 22.6754
	minimum = 7
	maximum = 101
Slowest packet = 15097
Flit latency average = 22.7071
	minimum = 7
	maximum = 101
Slowest flit = 15097
Fragmentation average = 0
	minimum = 0
	maximum = 0
Injected packet rate average = 0.021625
	minimum = 0.0155 (at node 2)
	maximum = 0.0265 (at node 4)
Accepted packet rate average = 0.0216562
	minimum = 0 (at node 0)
	maximum = 0.3465 (at node 11)
Injected flit rate average = 0.021625
	minimum = 0.0155 (at node 2)
	maximum = 0.0265 (at node 4)
Accepted flit rate average= 0.0216562
	minimum = 0 (at node 0)
	maximum = 0.3465 (at node 11)
Injected packet length average = 1
Accepted packet length average = 1
Total in-flight flits = 8 (8 measured)
latency change    = 0.0489277
throughput change = 0.010101
Class 0:
Packet latency average = 22.6588
	minimum = 7
	maximum = 101
Network latency average = 22.6588
	minimum = 7
	maximum = 101
Slowest packet = 15097
Flit latency average = 22.6803
	minimum = 7
	maximum = 101
Slowest flit = 15097
Fragmentation average = 0
	minimum = 0
	maximum = 0
Injected packet rate average = 0.0213333
	minimum = 0.0176667 (at node 5)
	maximum = 0.0253333 (at node 6)
Accepted packet rate average = 0.021375
	minimum = 0 (at node 0)
	maximum = 0.342 (at node 11)
Injected flit rate average = 0.0213333
	minimum = 0.0176667 (at node 5)
	maximum = 0.0253333 (at node 6)
Accepted flit rate average= 0.021375
	minimum = 0 (at node 0)
	maximum = 0.342 (at node 11)
Injected packet length average = 1
Accepted packet length average = 1
Total in-flight flits = 7 (7 measured)
latency change    = 0.000734293
throughput change = 0.0131579
Class 0:
Packet latency average = 22.6824
	minimum = 7
	maximum = 101
Network latency average = 22.6824
	minimum = 7
	maximum = 101
Slowest packet = 15097
Flit latency average = 22.6987
	minimum = 7
	maximum = 101
Slowest flit = 15097
Fragmentation average = 0
	minimum = 0
	maximum = 0
Injected packet rate average = 0.0209531
	minimum = 0.01725 (at node 12)
	maximum = 0.0245 (at node 6)
Accepted packet rate average = 0.021
	minimum = 0 (at node 0)
	maximum = 0.336 (at node 11)
Injected flit rate average = 0.0209531
	minimum = 0.01725 (at node 12)
	maximum = 0.0245 (at node 6)
Accepted flit rate average= 0.021
	minimum = 0 (at node 0)
	maximum = 0.336 (at node 11)
Injected packet length average = 1
Accepted packet length average = 1
Total in-flight flits = 6 (6 measured)
latency change    = 0.0010403
throughput change = 0.0178571
Draining all recorded packets ...
Draining remaining packets ...
Time taken is 7042 cycles
Class 0:
Packet latency average = 21.1133
	minimum = 7
	maximum = 42
Network latency average = 21.1133
	minimum = 7
	maximum = 42
Slowest packet = 16141
Flit latency average = 21.1133
	minimum = 7
	maximum = 42
Slowest flit = 16141
Fragmentation average = 0
	minimum = 0
	maximum = 0
Injected packet rate average = 0.0196875
	minimum = 0.012 (at node 8)
	maximum = 0.025 (at node 10)
Accepted packet rate average = 0.0193125
	minimum = 0 (at node 0)
	maximum = 0.309 (at node 11)
Injected flit rate average = 0.0196875
	minimum = 0.012 (at node 8)
	maximum = 0.025 (at node 10)
Accepted flit rate average= 0.0193125
	minimum = 0 (at node 0)
	maximum = 0.309 (at node 11)
Injected packet length average = 1
Accepted packet length average = 1
Total in-flight flits = 6 (0 measured)
latency change    = 1
throughput change = 1
Class 0:
Packet latency average = 21.311
	minimum = 7
	maximum = 67
Network latency average = 21.311
	minimum = 7
	maximum = 67
Slowest packet = 16585
Flit latency average = 21.311
	minimum = 7
	maximum = 67
Slowest flit = 16585
Fragmentation average = 0
	minimum = 0
	maximum = 0
Injected packet rate average = 0.020375
	minimum = 0.014 (at node 8)
	maximum = 0.026 (at node 2)
Accepted packet rate average = 0.0200938
	minimum = 0 (at node 0)
	maximum = 0.3215 (at node 11)
Injected flit rate average = 0.020375
	minimum = 0.014 (at node 8)
	maximum = 0.026 (at node 2)
Accepted flit rate average= 0.0200938
	minimum = 0 (at node 0)
	maximum = 0.3215 (at node 11)
Injected packet length average = 1
Accepted packet length average = 1
Total in-flight flits = 9 (0 measured)
latency change    = 0.00928032
throughput change = 0.0388802
Class 0:
Packet latency average = 22.4846
	minimum = 7
	maximum = 64
Network latency average = 22.4846
	minimum = 7
	maximum = 64
Slowest packet = 16731
Flit latency average = 22.4846
	minimum = 7
	maximum = 64
Slowest flit = 16731
Fragmentation average = 0
	minimum = 0
	maximum = 0
Injected packet rate average = 0.0199375
	minimum = 0.011 (at node 11)
	maximum = 0.034 (at node 12)
Accepted packet rate average = 0.02025
	minimum = 0 (at node 0)
	maximum = 0.324 (at node 11)
Injected flit rate average = 0.0199375
	minimum = 0.011 (at node 11)
	maximum = 0.034 (at node 12)
Accepted flit rate average= 0.02025
	minimum = 0 (at node 0)
	maximum = 0.324 (at node 11)
Injected packet length average = 1
Accepted packet length average = 1
Total in-flight flits = 4 (0 measured)
latency change    = 0.0521925
throughput change = 0.00771605
Warmed up ...Time used is 3000 cycles
Class 0:
Packet latency average = 21.1111
	minimum = 7
	maximum = 47
Network latency average = 21.1111
	minimum = 7
	maximum = 47
Slowest packet = 17114
Flit latency average = 21.1548
	minimum = 7
	maximum = 47
Slowest flit = 17114
Fragmentation average = 0
	minimum = 0
	maximum = 0
Injected packet rate average = 0.0195625
	minimum = 0.012 (at node 4)
	maximum = 0.034 (at node 2)
Accepted packet rate average = 0.019375
	minimum = 0 (at node 0)
	maximum = 0.31 (at node 11)
Injected flit rate average = 0.0195625
	minimum = 0.012 (at node 4)
	maximum = 0.034 (at node 2)
Accepted flit rate average= 0.019375
	minimum = 0 (at node 0)
	maximum = 0.31 (at node 11)
Injected packet length average = 1
Accepted packet length average = 1
Total in-flight flits = 7 (7 measured)
latency change    = 0.0650585
throughput change = 0.0451613
Class 0:
Packet latency average = 21.3113
	minimum = 7
	maximum = 47
Network latency average = 21.3113
	minimum = 7
	maximum = 47
Slowest packet = 17114
Flit latency average = 21.3317
	minimum = 7
	maximum = 47
Slowest flit = 17114
Fragmentation average = 0
	minimum = 0
	maximum = 0
Injected packet rate average = 0.01975
	minimum = 0.0145 (at node 10)
	maximum = 0.028 (at node 2)
Accepted packet rate average = 0.0195
	minimum = 0 (at node 0)
	maximum = 0.312 (at node 11)
Injected flit rate average = 0.01975
	minimum = 0.0145 (at node 10)
	maximum = 0.028 (at node 2)
Accepted flit rate average= 0.0195
	minimum = 0 (at node 0)
	maximum = 0.312 (at node 11)
Injected packet length average = 1
Accepted packet length average = 1
Total in-flight flits = 12 (12 measured)
latency change    = 0.00939311
throughput change = 0.00641026
Class 0:
Packet latency average = 22.0855
	minimum = 7
	maximum = 112
Network latency average = 22.0855
	minimum = 7
	maximum = 112
Slowest packet = 17636
Flit latency average = 22.0957
	minimum = 7
	maximum = 112
Slowest flit = 17636
Fragmentation average = 0
	minimum = 0
	maximum = 0
Injected packet rate average = 0.0197917
	minimum = 0.0153333 (at node 10)
	maximum = 0.0233333 (at node 1)
Accepted packet rate average = 0.0195833
	minimum = 0 (at node 0)
	maximum = 0.313333 (at node 11)
Injected flit rate average = 0.0197917
	minimum = 0.0153333 (at node 10)
	maximum = 0.0233333 (at node 1)
Accepted flit rate average= 0.0195833
	minimum = 0 (at node 0)
	maximum = 0.313333 (at node 11)
Injected packet length average = 1
Accepted packet length average = 1
Total in-flight flits = 14 (14 measured)
latency change    = 0.0350538
throughput change = 0.00425532
Class 0:
Packet latency average = 22.628
	minimum = 7
	maximum = 114
Network latency average = 22.628
	minimum = 7
	maximum = 114
Slowest packet = 17894
Flit latency average = 22.6338
	minimum = 7
	maximum = 114
Slowest flit = 17894
Fragmentation average = 0
	minimum = 0
	maximum = 0
Injected packet rate average = 0.0202656
	minimum = 0.017 (at node 7)
	maximum = 0.02375 (at node 1)
Accepted packet rate average = 0.0202656
	minimum = 0 (at node 0)
	maximum = 0.32425 (at node 11)
Injected flit rate average = 0.0202656
	minimum = 0.017 (at node 7)
	maximum = 0.02375 (at node 1)
Accepted flit rate average= 0.0202656
	minimum = 0 (at node 0)
	maximum = 0.32425 (at node 11)
Injected packet length average = 1
Accepted packet length average = 1
Total in-flight flits = 4 (4 measured)
latency change    = 0.0239759
throughput change = 0.0336674
Draining all recorded packets ...
Draining remaining packets ...
Time taken is 7045 cycles
Class 0:
Packet latency average = 21.1167
	minimum = 7
	maximum = 58
Network latency average = 21.1167
	minimum = 7
	maximum = 58
Slowest packet = 18356
Flit latency average = 21.1167
	minimum = 7
	maximum = 58
Slowest flit = 18356
Fragmentation average = 0
	minimum = 0
	maximum = 0
Injected packet rate average = 0.020125
	minimum = 0.014 (at node 7)
	maximum = 0.026 (at node 10)
Accepted packet rate average = 0.0198125
	minimum = 0 (at node 0)
	maximum = 0.317 (at node 11)
Injected flit rate average = 0.020125
	minimum = 0.014 (at node 7)
	maximum = 0.026 (at node 10)
Accepted flit rate average= 0.0198125
	minimum = 0 (at node 0)
	maximum = 0.317 (at node 11)
Injected packet length average = 1
Accepted packet length average = 1
Total in-flight flits = 5 (0 measured)
latency change    = 1
throughput change = 1
Class 0:
Packet latency average = 22.2293
	minimum = 7
	maximum = 63
Network latency average = 22.2293
	minimum = 7
	maximum = 63
Slowest packet = 18786
Flit latency average = 22.2293
	minimum = 7
	maximum = 63
Slowest flit = 18786
Fragmentation average = 0
	minimum = 0
	maximum = 0
Injected packet rate average = 0.0218125
	minimum = 0.016 (at node 5)
	maximum = 0.027 (at node 4)
Accepted packet rate average = 0.0215312
	minimum = 0 (at node 0)
	maximum = 0.3445 (at node 11)
Injected flit rate average = 0.0218125
	minimum = 0.016 (at node 5)
	maximum = 0.027 (at node 4)
Accepted flit rate average= 0.0215312
	minimum = 0 (at node 0)
	maximum = 0.3445 (at node 11)
Injected packet length average = 1
Accepted packet length average = 1
Total in-flight flits = 9 (0 measured)
latency change    = 0.050051
throughput change = 0.0798258
Class 0:
Packet latency average = 21.7194
	minimum = 7
	maximum = 78
Network latency average = 21.7194
	minimum = 7
	maximum = 78
Slowest packet = 19166
Flit latency average = 21.7194
	minimum = 7
	maximum = 78
Slowest flit = 19166
Fragmentation average = 0
	minimum = 0
	maximum = 0
Injected packet rate average = 0.02075
	minimum = 0.014 (at node 4)
	maximum = 0.026 (at node 8)
Accepted packet rate average = 0.0209375
	minimum = 0 (at node 0)
	maximum = 0.335 (at node 11)
Injected flit rate average = 0.02075
	minimum = 0.014 (at node 4)
	maximum = 0.026 (at node 8)
Accepted flit rate average= 0.0209375
	minimum = 0 (at node 0)
	maximum = 0.335 (at node 11)
Injected packet length average = 1
Accepted packet length average = 1
Total in-flight flits = 6 (0 measured)
latency change    = 0.0234774
throughput change = 0.0283582
Warmed up ...Time used is 3000 cycles
Class 0:
Packet latency average = 21.3684
	minimum = 7
	maximum = 50
Network latency average = 21.3684
	minimum = 7
	maximum = 50
Slowest packet = 19375
Flit latency average = 21.3968
	minimum = 7
	maximum = 50
Slowest flit = 19375
Fragmentation average = 0
	minimum = 0
	maximum = 0
Injected packet rate average = 0.0194375
	minimum = 0.013 (at node 2)
	maximum = 0.029 (at node 13)
Accepted packet rate average = 0.019375
	minimum = 0 (at node 0)
	maximum = 0.31 (at node 11)
Injected flit rate average = 0.0194375
	minimum = 0.013 (at node 2)
	maximum = 0.029 (at node 13)
Accepted flit rate average= 0.019375
	minimum = 0 (at node 0)
	maximum = 0.31 (at node 11)
Injected packet length average = 1
Accepted packet length average = 1
Total in-flight flits = 7 (7 measured)
latency change    = 0.0164253
throughput change = 0.0806452
Class 0:
Packet latency average = 21.1012
	minimum = 7
	maximum = 50
Network latency average = 21.1012
	minimum = 7
	maximum = 50
Slowest packet = 19375
Flit latency average = 21.1185
	minimum = 7
	maximum = 50
Slowest flit = 19375
Fragmentation average = 0
	minimum = 0
	maximum = 0
Injected packet rate average = 0.0189062
	minimum = 0.015 (at node 12)
	maximum = 0.028 (at node 13)
Accepted packet rate average = 0.0187187
	minimum = 0 (at node 0)
	maximum = 0.2995 (at node 11)
Injected flit rate average = 0.0189062
	minimum = 0.015 (at node 12)
	maximum = 0.028 (at node 13)
Accepted flit rate average= 0.0187187
	minimum = 0 (at node 0)
	maximum = 0.2995 (at node 11)
Injected packet length average = 1
Accepted packet length average = 1
Total in-flight flits = 12 (12 measured)
latency change    = 0.0126647
throughput change = 0.0350584
Class 0:
Packet latency average = 21.2475
	minimum = 7
	maximum = 58
Network latency average = 21.2475
	minimum = 7
	maximum = 58
Slowest packet = 20177
Flit latency average = 21.258
	minimum = 7
	maximum = 58
Slowest flit = 20177
Fragmentation average = 0
	minimum = 0
	maximum = 0
Injected packet rate average = 0.0189583
	minimum = 0.0156667 (at node 12)
	maximum = 0.024 (at node 13)
Accepted packet rate average = 0.0188958
	minimum = 0 (at node 0)
	maximum = 0.302333 (at node 11)
Injected flit rate average = 0.0189583
	minimum = 0.0156667 (at node 12)
	maximum = 0.024 (at node 13)
Accepted flit rate average= 0.0188958
	minimum = 0 (at node 0)
	maximum = 0.302333 (at node 11)
Injected packet length average = 1
Accepted packet length average = 1
Total in-flight flits = 9 (9 measured)
latency change    = 0.00688657
throughput change = 0.00937155
Class 0:
Packet latency average = 21.4768
	minimum = 7
	maximum = 69
Network latency average = 21.4768
	minimum = 7
	maximum = 69
Slowest packet = 20179
Flit latency average = 21.4834
	minimum = 7
	maximum = 69
Slowest flit = 20179
Fragmentation average = 0
	minimum = 0
	maximum = 0
Injected packet rate average = 0.0192344
	minimum = 0.01475 (at node 12)
	maximum = 0.02325 (at node 13)
Accepted packet rate average = 0.0192656
	minimum = 0 (at node 0)
	maximum = 0.30825 (at node 11)
Injected flit rate average = 0.0192344
	minimum = 0.01475 (at node 12)
	maximum = 0.02325 (at node 13)
Accepted flit rate average= 0.0192656
	minimum = 0 (at node 0)
	maximum = 0.30825 (at node 11)
Injected packet length average = 1
Accepted packet length average = 1
Total in-flight flits = 4 (4 measured)
latency change    = 0.0106752
throughput change = 0.0191944
Draining all recorded packets ...
Draining remaining packets ...
Time taken is 7050 cycles
Class 0:
Packet latency average = 20.9397
	minimum = 7
	maximum = 68
Network latency average = 20.9397
	minimum = 7
	maximum = 68
Slowest packet = 20635
Flit latency average = 20.9397
	minimum = 7
	maximum = 68
Slowest flit = 20635
Fragmentation average = 0
	minimum = 0
	maximum = 0
Injected packet rate average = 0.018375
	minimum = 0.008 (at node 3)
	maximum = 0.033 (at node 11)
Accepted packet rate average = 0.017625
	minimum = 0 (at node 0)
	maximum = 0.282 (at node 11)
Injected flit rate average = 0.018375
	minimum = 0.008 (at node 3)
	maximum = 0.033 (at node 11)
Accepted flit rate average= 0.017625
	minimum = 0 (at node 0)
	maximum = 0.282 (at node 11)
Injected packet length average = 1
Accepted packet length average = 1
Total in-flight flits = 12 (0 measured)
latency change    = 1
throughput change = 1
Class 0:
Packet latency average = 21.4549
	minimum = 7
	maximum = 68
Network latency average = 21.4549
	minimum = 7
	maximum = 68
Slowest packet = 20635
Flit latency average = 21.4549
	minimum = 7
	maximum = 68
Slowest flit = 20635
Fragmentation average = 0
	minimum = 0
	maximum = 0
Injected packet rate average = 0.0185312
	minimum = 0.012 (at node 13)
	maximum = 0.0255 (at node 8)
Accepted packet rate average = 0.0183437
	minimum = 0 (at node 0)
	maximum = 0.2935 (at node 11)
Injected flit rate average = 0.0185312
	minimum = 0.012 (at node 13)
	maximum = 0.0255 (at node 8)
Accepted flit rate average= 0.0183437
	minimum = 0 (at node 0)
	maximum = 0.2935 (at node 11)
Injected packet length average = 1
Accepted packet length average = 1
Total in-flight flits = 6 (0 measured)
latency change    = 0.0240104
throughput change = 0.0391823
Class 0:
Packet latency average = 23.4503
	minimum = 7
	maximum = 75
Network latency average = 23.4503
	minimum = 7
	maximum = 75
Slowest packet = 21240
Flit latency average = 23.4503
	minimum = 7
	maximum = 75
Slowest flit = 21240
Fragmentation average = 0
	minimum = 0
	maximum = 0
Injected packet rate average = 0.0231875
	minimum = 0.017 (at node 8)
	maximum = 0.031 (at node 4)
Accepted packet rate average = 0.022625
	minimum = 0 (at node 0)
	maximum = 0.362 (at node 11)
Injected flit rate average = 0.0231875
	minimum = 0.017 (at node 8)
	maximum = 0.031 (at node 4)
Accepted flit rate average= 0.022625
	minimum = 0 (at node 0)
	maximum = 0.362 (at node 11)
Injected packet length average = 1
Accepted packet length average = 1
Total in-flight flits = 15 (0 measured)
latency change    = 0.0850916
throughput change = 0.189227
Warmed up ...Time used is 3000 cycles
Class 0:
Packet latency average = 21.2124
	minimum = 7
	maximum = 53
Network latency average = 21.2124
	minimum = 7
	maximum = 53
Slowest packet = 21492
Flit latency average = 21.5047
	minimum = 7
	maximum = 55
Slowest flit = 21478
Fragmentation average = 0
	minimum = 0
	maximum = 0
Injected packet rate average = 0.019125
	minimum = 0.014 (at node 3)
	maximum = 0.025 (at node 6)
Accepted packet rate average = 0.0200625
	minimum = 0 (at node 0)
	maximum = 0.321 (at node 11)
Injected flit rate average = 0.019125
	minimum = 0.014 (at node 3)
	maximum = 0.025 (at node 6)
Accepted flit rate average= 0.0200625
	minimum = 0 (at node 0)
	maximum = 0.321 (at node 11)
Injected packet length average = 1
Accepted packet length average = 1
Total in-flight flits = 0 (0 measured)
latency change    = 0.105498
throughput change = 0.127726
Class 0:
Packet latency average = 21.6153
	minimum = 7
	maximum = 60
Network latency average = 21.6153
	minimum = 7
	maximum = 60
Slowest packet = 21929
Flit latency average = 21.7544
	minimum = 7
	maximum = 60
Slowest flit = 21929
Fragmentation average = 0
	minimum = 0
	maximum = 0
Injected packet rate average = 0.0196875
	minimum = 0.014 (at node 3)
	maximum = 0.0245 (at node 0)
Accepted packet rate average = 0.0197188
	minimum = 0 (at node 0)
	maximum = 0.3155 (at node 11)
Injected flit rate average = 0.0196875
	minimum = 0.014 (at node 3)
	maximum = 0.0245 (at node 0)
Accepted flit rate average= 0.0197188
	minimum = 0 (at node 0)
	maximum = 0.3155 (at node 11)
Injected packet length average = 1
Accepted packet length average = 1
Total in-flight flits = 14 (14 measured)
latency change    = 0.0186369
throughput change = 0.0174326
Class 0:
Packet latency average = 21.8398
	minimum = 7
	maximum = 60
Network latency average = 21.8398
	minimum = 7
	maximum = 60
Slowest packet = 21929
Flit latency average = 21.9297
	minimum = 7
	maximum = 60
Slowest flit = 21929
Fragmentation average = 0
	minimum = 0
	maximum = 0
Injected packet rate average = 0.0194167
	minimum = 0.0146667 (at node 3)
	maximum = 0.023 (at node 0)
Accepted packet rate average = 0.0195625
	minimum = 0 (at node 0)
	maximum = 0.313 (at node 11)
Injected flit rate average = 0.0194167
	minimum = 0.0146667 (at node 3)
	maximum = 0.023 (at node 0)
Accepted flit rate average= 0.0195625
	minimum = 0 (at node 0)
	maximum = 0.313 (at node 11)
Injected packet length average = 1
Accepted packet length average = 1
Total in-flight flits = 8 (8 measured)
latency change    = 0.0102825
throughput change = 0.00798722
Class 0:
Packet latency average = 21.8802
	minimum = 7
	maximum = 60
Network latency average = 21.8802
	minimum = 7
	maximum = 60
Slowest packet = 21929
Flit latency average = 21.9463
	minimum = 7
	maximum = 60
Slowest flit = 21929
Fragmentation average = 0
	minimum = 0
	maximum = 0
Injected packet rate average = 0.0196406
	minimum = 0.01625 (at node 3)
	maximum = 0.024 (at node 0)
Accepted packet rate average = 0.0197969
	minimum = 0 (at node 0)
	maximum = 0.31675 (at node 11)
Injected flit rate average = 0.0196406
	minimum = 0.01625 (at node 3)
	maximum = 0.024 (at node 0)
Accepted flit rate average= 0.0197969
	minimum = 0 (at node 0)
	maximum = 0.31675 (at node 11)
Injected packet length average = 1
Accepted packet length average = 1
Total in-flight flits = 5 (5 measured)
latency change    = 0.00184481
throughput change = 0.011839
Draining all recorded packets ...
Draining remaining packets ...
Time taken is 7028 cycles
Class 0:
Packet latency average = 21.0036
	minimum = 7
	maximum = 55
Network latency average = 21.0036
	minimum = 7
	maximum = 55
Slowest packet = 22884
Flit latency average = 21.0036
	minimum = 7
	maximum = 55
Slowest flit = 22884
Fragmentation average = 0
	minimum = 0
	maximum = 0
Injected packet rate average = 0.0180625
	minimum = 0.005 (at node 3)
	maximum = 0.024 (at node 6)
Accepted packet rate average = 0.0175625
	minimum = 0 (at node 0)
	maximum = 0.281 (at node 11)
Injected flit rate average = 0.0180625
	minimum = 0.005 (at node 3)
	maximum = 0.024 (at node 6)
Accepted flit rate average= 0.0175625
	minimum = 0 (at node 0)
	maximum = 0.281 (at node 11)
Injected packet length average = 1
Accepted packet length average = 1
Total in-flight flits = 8 (0 measured)
latency change    = 1
throughput change = 1
Class 0:
Packet latency average = 21.12
	minimum = 7
	maximum = 55
Network latency average = 21.12
	minimum = 7
	maximum = 55
Slowest packet = 22884
Flit latency average = 21.12
	minimum = 7
	maximum = 55
Slowest flit = 22884
Fragmentation average = 0
	minimum = 0
	maximum = 0
Injected packet rate average = 0.0190312
	minimum = 0.013 (at node 3)
	maximum = 0.0225 (at node 8)
Accepted packet rate average = 0.01875
	minimum = 0 (at node 0)
	maximum = 0.3 (at node 11)
Injected flit rate average = 0.0190312
	minimum = 0.013 (at node 3)
	maximum = 0.0225 (at node 8)
Accepted flit rate average= 0.01875
	minimum = 0 (at node 0)
	maximum = 0.3 (at node 11)
Injected packet length average = 1
Accepted packet length average = 1
Total in-flight flits = 9 (0 measured)
latency change    = 0.00551332
throughput change = 0.0633333
Class 0:
Packet latency average = 22.183
	minimum = 7
	maximum = 58
Network latency average = 22.183
	minimum = 7
	maximum = 58
Slowest packet = 23441
Flit latency average = 22.183
	minimum = 7
	maximum = 58
Slowest flit = 23441
Fragmentation average = 0
	minimum = 0
	maximum = 0
Injected packet rate average = 0.019625
	minimum = 0.012 (at node 5)
	maximum = 0.025 (at node 0)
Accepted packet rate average = 0.0198125
	minimum = 0 (at node 0)
	maximum = 0.317 (at node 11)
Injected flit rate average = 0.019625
	minimum = 0.012 (at node 5)
	maximum = 0.025 (at node 0)
Accepted flit rate average= 0.0198125
	minimum = 0 (at node 0)
	maximum = 0.317 (at node 11)
Injected packet length average = 1
Accepted packet length average = 1
Total in-flight flits = 6 (0 measured)
latency change    = 0.0479181
throughput change = 0.0536278
Warmed up ...Time used is 3000 cycles
Class 0:
Packet latency average = 21.3211
	minimum = 7
	maximum = 73
Network latency average = 21.3211
	minimum = 7
	maximum = 73
Slowest packet = 23918
Flit latency average = 21.2787
	minimum = 7
	maximum = 73
Slowest flit = 23918
Fragmentation average = 0
	minimum = 0
	maximum = 0
Injected packet rate average = 0.0190625
	minimum = 0.011 (at node 14)
	maximum = 0.026 (at node 0)
Accepted packet rate average = 0.0190625
	minimum = 0 (at node 0)
	maximum = 0.305 (at node 11)
Injected flit rate average = 0.0190625
	minimum = 0.011 (at node 14)
	maximum = 0.026 (at node 0)
Accepted flit rate average= 0.0190625
	minimum = 0 (at node 0)
	maximum = 0.305 (at node 11)
Injected packet length average = 1
Accepted packet length average = 1
Total in-flight flits = 6 (6 measured)
latency change    = 0.0404246
throughput change = 0.0393443
Class 0:
Packet latency average = 22.041
	minimum = 7
	maximum = 73
Network latency average = 22.041
	minimum = 7
	maximum = 73
Slowest packet = 23918
Flit latency average = 22.0141
	minimum = 7
	maximum = 73
Slowest flit = 23918
Fragmentation average = 0
	minimum = 0
	maximum = 0
Injected packet rate average = 0.0199375
	minimum = 0.015 (at node 15)
	maximum = 0.0245 (at node 0)
Accepted packet rate average = 0.02
	minimum = 0 (at node 0)
	maximum = 0.32 (at node 11)
Injected flit rate average = 0.0199375
	minimum = 0.015 (at node 15)
	maximum = 0.0245 (at node 0)
Accepted flit rate average= 0.02
	minimum = 0 (at node 0)
	maximum = 0.32 (at node 11)
Injected packet length average = 1
Accepted packet length average = 1
Total in-flight flits = 4 (4 measured)
latency change    = 0.0326636
throughput change = 0.046875
Class 0:
Packet latency average = 21.9206
	minimum = 7
	maximum = 73
Network latency average = 21.9206
	minimum = 7
	maximum = 73
Slowest packet = 23918
Flit latency average = 21.9033
	minimum = 7
	maximum = 73
Slowest flit = 23918
Fragmentation average = 0
	minimum = 0
	maximum = 0
Injected packet rate average = 0.019875
	minimum = 0.017 (at node 15)
	maximum = 0.0226667 (at node 10)
Accepted packet rate average = 0.0198125
	minimum = 0 (at node 0)
	maximum = 0.317 (at node 11)
Injected flit rate average = 0.019875
	minimum = 0.017 (at node 15)
	maximum = 0.0226667 (at node 10)
Accepted flit rate average= 0.0198125
	minimum = 0 (at node 0)
	maximum = 0.317 (at node 11)
Injected packet length average = 1
Accepted packet length average = 1
Total in-flight flits = 9 (9 measured)
latency change    = 0.00549138
throughput change = 0.00946372
Draining all recorded packets ...
Draining remaining packets ...
Time taken is 6051 cycles
Class 0:
Packet latency average = 21.2281
	minimum = 7
	maximum = 66
Network latency average = 21.2281
	minimum = 7
	maximum = 66
Slowest packet = 24811
Flit latency average = 21.2281
	minimum = 7
	maximum = 66
Slowest flit = 24811
Fragmentation average = 0
	minimum = 0
	maximum = 0
Injected packet rate average = 0.0205625
	minimum = 0.013 (at node 8)
	maximum = 0.028 (at node 4)
Accepted packet rate average = 0.02
	minimum = 0 (at node 0)
	maximum = 0.32 (at node 11)
Injected flit rate average = 0.0205625
	minimum = 0.013 (at node 8)
	maximum = 0.028 (at node 4)
Accepted flit rate average= 0.02
	minimum = 0 (at node 0)
	maximum = 0.32 (at node 11)
Injected packet length average = 1
Accepted packet length average = 1
Total in-flight flits = 9 (0 measured)
latency change    = 1
throughput change = 1
Class 0:
Packet latency average = 21.9732
	minimum = 7
	maximum = 66
Network latency average = 21.9732
	minimum = 7
	maximum = 66
Slowest packet = 24811
Flit latency average = 21.9732
	minimum = 7
	maximum = 66
Slowest flit = 24811
Fragmentation average = 0
	minimum = 0
	maximum = 0
Injected packet rate average = 0.0199375
	minimum = 0.0135 (at node 3)
	maximum = 0.0245 (at node 1)
Accepted packet rate average = 0.0198125
	minimum = 0 (at node 0)
	maximum = 0.317 (at node 11)
Injected flit rate average = 0.0199375
	minimum = 0.0135 (at node 3)
	maximum = 0.0245 (at node 1)
Accepted flit rate average= 0.0198125
	minimum = 0 (at node 0)
	maximum = 0.317 (at node 11)
Injected packet length average = 1
Accepted packet length average = 1
Total in-flight flits = 4 (0 measured)
latency change    = 0.0339077
throughput change = 0.00946372
Class 0:
Packet latency average = 22.4164
	minimum = 7
	maximum = 66
Network latency average = 22.4164
	minimum = 7
	maximum = 66
Slowest packet = 25426
Flit latency average = 22.4164
	minimum = 7
	maximum = 66
Slowest flit = 25426
Fragmentation average = 0
	minimum = 0
	maximum = 0
Injected packet rate average = 0.02
	minimum = 0.013 (at node 6)
	maximum = 0.029 (at node 3)
Accepted packet rate average = 0.0198125
	minimum = 0 (at node 0)
	maximum = 0.317 (at node 11)
Injected flit rate average = 0.02
	minimum = 0.013 (at node 6)
	maximum = 0.029 (at node 3)
Accepted flit rate average= 0.0198125
	minimum = 0 (at node 0)
	maximum = 0.317 (at node 11)
Injected packet length average = 1
Accepted packet length average = 1
Total in-flight flits = 7 (0 measured)
latency change    = 0.019772
throughput change = 0
Warmed up ...Time used is 3000 cycles
Class 0:
Packet latency average = 20.985
	minimum = 7
	maximum = 52
Network latency average = 20.985
	minimum = 7
	maximum = 52
Slowest packet = 25818
Flit latency average = 21.1789
	minimum = 7
	maximum = 52
Slowest flit = 25818
Fragmentation average = 0
	minimum = 0
	maximum = 0
Injected packet rate average = 0.021125
	minimum = 0.013 (at node 6)
	maximum = 0.031 (at node 11)
Accepted packet rate average = 0.0213125
	minimum = 0 (at node 0)
	maximum = 0.341 (at node 11)
Injected flit rate average = 0.021125
	minimum = 0.013 (at node 6)
	maximum = 0.031 (at node 11)
Accepted flit rate average= 0.0213125
	minimum = 0 (at node 0)
	maximum = 0.341 (at node 11)
Injected packet length average = 1
Accepted packet length average = 1
Total in-flight flits = 4 (4 measured)
latency change    = 0.0682093
throughput change = 0.0703812
Class 0:
Packet latency average = 21.5157
	minimum = 7
	maximum = 52
Network latency average = 21.5157
	minimum = 7
	maximum = 52
Slowest packet = 25818
Flit latency average = 21.6128
	minimum = 7
	maximum = 52
Slowest flit = 25818
Fragmentation average = 0
	minimum = 0
	maximum = 0
Injected packet rate average = 0.02025
	minimum = 0.015 (at node 6)
	maximum = 0.027 (at node 1)
Accepted packet rate average = 0.0200938
	minimum = 0 (at node 0)
	maximum = 0.3215 (at node 11)
Injected flit rate average = 0.02025
	minimum = 0.015 (at node 6)
	maximum = 0.027 (at node 1)
Accepted flit rate average= 0.0200938
	minimum = 0 (at node 0)
	maximum = 0.3215 (at node 11)
Injected packet length average = 1
Accepted packet length average = 1
Total in-flight flits = 12 (12 measured)
latency change    = 0.0246654
throughput change = 0.0606532
Class 0:
Packet latency average = 21.6478
	minimum = 7
	maximum = 69
Network latency average = 21.6478
	minimum = 7
	maximum = 69
Slowest packet = 26341
Flit latency average = 21.7105
	minimum = 7
	maximum = 69
Slowest flit = 26341
Fragmentation average = 0
	minimum = 0
	maximum = 0
Injected packet rate average = 0.0204167
	minimum = 0.017 (at node 3)
	maximum = 0.027 (at node 1)
Accepted packet rate average = 0.0204375
	minimum = 0 (at node 0)
	maximum = 0.327 (at node 11)
Injected flit rate average = 0.0204167
	minimum = 0.017 (at node 3)
	maximum = 0.027 (at node 1)
Accepted flit rate average= 0.0204375
	minimum = 0 (at node 0)
	maximum = 0.327 (at node 11)
Injected packet length average = 1
Accepted packet length average = 1
Total in-flight flits = 6 (6 measured)
latency change    = 0.00610318
throughput change = 0.0168196
Class 0:
Packet latency average = 21.4167
	minimum = 7
	maximum = 69
Network latency average = 21.4167
	minimum = 7
	maximum = 69
Slowest packet = 26341
Flit latency average = 21.4662
	minimum = 7
	maximum = 69
Slowest flit = 26341
Fragmentation average = 0
	minimum = 0
	maximum = 0
Injected packet rate average = 0.0198594
	minimum = 0.0165 (at node 6)
	maximum = 0.02525 (at node 1)
Accepted packet rate average = 0.0199063
	minimum = 0 (at node 0)
	maximum = 0.3185 (at node 11)
Injected flit rate average = 0.0198594
	minimum = 0.0165 (at node 6)
	maximum = 0.02525 (at node 1)
Accepted flit rate average= 0.0199063
	minimum = 0 (at node 0)
	maximum = 0.3185 (at node 11)
Injected packet length average = 1
Accepted packet length average = 1
Total in-flight flits = 4 (4 measured)
latency change    = 0.0107912
throughput change = 0.0266876
Class 0:
Packet latency average = 21.3717
	minimum = 7
	maximum = 69
Network latency average = 21.3717
	minimum = 7
	maximum = 69
Slowest packet = 26341
Flit latency average = 21.4118
	minimum = 7
	maximum = 69
Slowest flit = 26341
Fragmentation average = 0
	minimum = 0
	maximum = 0
Injected packet rate average = 0.01975
	minimum = 0.0158 (at node 3)
	maximum = 0.025 (at node 1)
Accepted packet rate average = 0.0197625
	minimum = 0 (at node 0)
	maximum = 0.3162 (at node 11)
Injected flit rate average = 0.01975
	minimum = 0.0158 (at node 3)
	maximum = 0.025 (at node 1)
Accepted flit rate average= 0.0197625
	minimum = 0 (at node 0)
	maximum = 0.3162 (at node 11)
Injected packet length average = 1
Accepted packet length average = 1
Total in-flight flits = 6 (6 measured)
latency change    = 0.00210877
throughput change = 0.00727388
Draining all recorded packets ...
Draining remaining packets ...
Time taken is 8042 cycles
Class 0:
Packet latency average = 23.1111
	minimum = 7
	maximum = 86
Network latency average = 23.1111
	minimum = 7
	maximum = 86
Slowest packet = 27387
Flit latency average = 23.1111
	minimum = 7
	maximum = 86
Slowest flit = 27387
Fragmentation average = 0
	minimum = 0
	maximum = 0
Injected packet rate average = 0.0219375
	minimum = 0.015 (at node 6)
	maximum = 0.033 (at node 9)
Accepted packet rate average = 0.021375
	minimum = 0 (at node 0)
	maximum = 0.342 (at node 11)
Injected flit rate average = 0.0219375
	minimum = 0.015 (at node 6)
	maximum = 0.033 (at node 9)
Accepted flit rate average= 0.021375
	minimum = 0 (at node 0)
	maximum = 0.342 (at node 11)
Injected packet length average = 1
Accepted packet length average = 1
Total in-flight flits = 9 (0 measured)
latency change    = 1
throughput change = 1
Class 0:
Packet latency average = 22.8501
	minimum = 7
	maximum = 89
Network latency average = 22.8501
	minimum = 7
	maximum = 89
Slowest packet = 27798
Flit latency average = 22.8501
	minimum = 7
	maximum = 89
Slowest flit = 27798
Fragmentation average = 0
	minimum = 0
	maximum = 0
Injected packet rate average = 0.0209375
	minimum = 0.0165 (at node 6)
	maximum = 0.0275 (at node 1)
Accepted packet rate average = 0.0208438
	minimum = 0 (at node 0)
	maximum = 0.3335 (at node 11)
Injected flit rate average = 0.0209375
	minimum = 0.0165 (at node 6)
	maximum = 0.0275 (at node 1)
Accepted flit rate average= 0.0208438
	minimum = 0 (at node 0)
	maximum = 0.3335 (at node 11)
Injected packet length average = 1
Accepted packet length average = 1
Total in-flight flits = 3 (0 measured)
latency change    = 0.0114239
throughput change = 0.0254873
Class 0:
Packet latency average = 21.8863
	minimum = 7
	maximum = 63
Network latency average = 21.8863
	minimum = 7
	maximum = 63
Slowest packet = 27889
Flit latency average = 21.8863
	minimum = 7
	maximum = 63
Slowest flit = 27889
Fragmentation average = 0
	minimum = 0
	maximum = 0
Injected packet rate average = 0.021875
	minimum = 0.013 (at node 0)
	maximum = 0.028 (at node 12)
Accepted packet rate average = 0.0214375
	minimum = 0 (at node 0)
	maximum = 0.343 (at node 11)
Injected flit rate average = 0.021875
	minimum = 0.013 (at node 0)
	maximum = 0.028 (at node 12)
Accepted flit rate average= 0.0214375
	minimum = 0 (at node 0)
	maximum = 0.343 (at node 11)
Injected packet length average = 1
Accepted packet length average = 1
Total in-flight flits = 10 (0 measured)
latency change    = 0.0440357
throughput change = 0.0276968
Warmed up ...Time used is 3000 cycles
Class 0:
Packet latency average = 20.8526
	minimum = 7
	maximum = 39
Network latency average = 20.8526
	minimum = 7
	maximum = 39
Slowest packet = 28242
Flit latency average = 21.0644
	minimum = 7
	maximum = 42
Slowest flit = 28192
Fragmentation average = 0
	minimum = 0
	maximum = 0
Injected packet rate average = 0.0179375
	minimum = 0.012 (at node 6)
	maximum = 0.028 (at node 13)
Accepted packet rate average = 0.0184375
	minimum = 0 (at node 0)
	maximum = 0.295 (at node 11)
Injected flit rate average = 0.0179375
	minimum = 0.012 (at node 6)
	maximum = 0.028 (at node 13)
Accepted flit rate average= 0.0184375
	minimum = 0 (at node 0)
	maximum = 0.295 (at node 11)
Injected packet length average = 1
Accepted packet length average = 1
Total in-flight flits = 2 (2 measured)
latency change    = 0.04957
throughput change = 0.162712
Class 0:
Packet latency average = 21.6094
	minimum = 7
	maximum = 65
Network latency average = 21.6094
	minimum = 7
	maximum = 65
Slowest packet = 28512
Flit latency average = 21.7003
	minimum = 7
	maximum = 65
Slowest flit = 28512
Fragmentation average = 0
	minimum = 0
	maximum = 0
Injected packet rate average = 0.0188125
	minimum = 0.0145 (at node 6)
	maximum = 0.029 (at node 13)
Accepted packet rate average = 0.018875
	minimum = 0 (at node 0)
	maximum = 0.302 (at node 11)
Injected flit rate average = 0.0188125
	minimum = 0.0145 (at node 6)
	maximum = 0.029 (at node 13)
Accepted flit rate average= 0.018875
	minimum = 0 (at node 0)
	maximum = 0.302 (at node 11)
Injected packet length average = 1
Accepted packet length average = 1
Total in-flight flits = 8 (8 measured)
latency change    = 0.0350216
throughput change = 0.0231788
Class 0:
Packet latency average = 21.9326
	minimum = 7
	maximum = 68
Network latency average = 21.9326
	minimum = 7
	maximum = 68
Slowest packet = 28913
Flit latency average = 21.9873
	minimum = 7
	maximum = 68
Slowest flit = 28913
Fragmentation average = 0
	minimum = 0
	maximum = 0
Injected packet rate average = 0.019625
	minimum = 0.0163333 (at node 7)
	maximum = 0.0266667 (at node 13)
Accepted packet rate average = 0.0196875
	minimum = 0 (at node 0)
	maximum = 0.315 (at node 11)
Injected flit rate average = 0.019625
	minimum = 0.0163333 (at node 7)
	maximum = 0.0266667 (at node 13)
Accepted flit rate average= 0.0196875
	minimum = 0 (at node 0)
	maximum = 0.315 (at node 11)
Injected packet length average = 1
Accepted packet length average = 1
Total in-flight flits = 7 (7 measured)
latency change    = 0.0147357
throughput change = 0.0412698
Class 0:
Packet latency average = 22.0651
	minimum = 7
	maximum = 69
Network latency average = 22.0651
	minimum = 7
	maximum = 69
Slowest packet = 29242
Flit latency average = 22.1048
	minimum = 7
	maximum = 69
Slowest flit = 29242
Fragmentation average = 0
	minimum = 0
	maximum = 0
Injected packet rate average = 0.0197188
	minimum = 0.016 (at node 14)
	maximum = 0.02375 (at node 13)
Accepted packet rate average = 0.0198281
	minimum = 0 (at node 0)
	maximum = 0.31725 (at node 11)
Injected flit rate average = 0.0197188
	minimum = 0.016 (at node 14)
	maximum = 0.02375 (at node 13)
Accepted flit rate average= 0.0198281
	minimum = 0 (at node 0)
	maximum = 0.31725 (at node 11)
Injected packet length average = 1
Accepted packet length average = 1
Total in-flight flits = 3 (3 measured)
latency change    = 0.00600544
throughput change = 0.0070922
Draining all recorded packets ...
Draining remaining packets ...
Time taken is 7053 cycles
Class 0:
Packet latency average = 21.5191
	minimum = 7
	maximum = 51
Network latency average = 21.5191
	minimum = 7
	maximum = 51
Slowest packet = 29683
Flit latency average = 21.5191
	minimum = 7
	maximum = 51
Slowest flit = 29683
Fragmentation average = 0
	minimum = 0
	maximum = 0
Injected packet rate average = 0.020375
	minimum = 0.015 (at node 1)
	maximum = 0.027 (at node 0)
Accepted packet rate average = 0.019625
	minimum = 0 (at node 0)
	maximum = 0.314 (at node 11)
Injected flit rate average = 0.020375
	minimum = 0.015 (at node 1)
	maximum = 0.027 (at node 0)
Accepted flit rate average= 0.019625
	minimum = 0 (at node 0)
	maximum = 0.314 (at node 11)
Injected packet length average = 1
[...]
Network latency average = 22.1017
	minimum = 7
	maximum = 101
Slowest packet = 216440
Flit latency average = 22.1331
	minimum = 7
	maximum = 101
Slowest flit = 216440
Fragmentation average = 0
	minimum = 0
	maximum = 0
Injected packet rate average = 0.02075
	minimum = 0.0143333 (at node 13)
	maximum = 0.0263333 (at node 7)
Accepted packet rate average = 0.0206667
	minimum = 0 (at node 0)
	maximum = 0.330667 (at node 11)
Injected flit rate average = 0.02075
	minimum = 0.0143333 (at node 13)
	maximum = 0.0263333 (at node 7)
Accepted flit rate average= 0.0206667
	minimum = 0 (at node 0)
	maximum = 0.330667 (at node 11)
Injected packet length average = 1
Accepted packet length average = 1
Total in-flight flits = 13 (13 measured)
latency change    = 0.0248593
throughput change = 0.0110887
Draining all recorded packets ...
Draining remaining packets ...
Time taken is 6053 cycles
Class 0:
Packet latency average = 22.3533
	minimum = 7
	maximum = 62
Network latency average = 22.3533
	minimum = 7
	maximum = 62
Slowest packet = 217414
Flit latency average = 22.3533
	minimum = 7
	maximum = 62
Slowest flit = 217414
Fragmentation average = 0
	minimum = 0
	maximum = 0
Injected packet rate average = 0.02025
	minimum = 0.014 (at node 7)
	maximum = 0.027 (at node 12)
Accepted packet rate average = 0.0198125
	minimum = 0 (at node 0)
	maximum = 0.317 (at node 11)
Injected flit rate average = 0.02025
	minimum = 0.014 (at node 7)
	maximum = 0.027 (at node 12)
Accepted flit rate average= 0.0198125
	minimum = 0 (at node 0)
	maximum = 0.317 (at node 11)
Injected packet length average = 1
Accepted packet length average = 1
Total in-flight flits = 7 (0 measured)
latency change    = 1
throughput change = 1
Class 0:
Packet latency average = 22.3867
	minimum = 7
	maximum = 78
Network latency average = 22.3867
	minimum = 7
	maximum = 78
Slowest packet = 217469
Flit latency average = 22.3867
	minimum = 7
	maximum = 78
Slowest flit = 217469
Fragmentation average = 0
	minimum = 0
	maximum = 0
Injected packet rate average = 0.0211875
	minimum = 0.017 (at node 2)
	maximum = 0.026 (at node 8)
Accepted packet rate average = 0.0206875
	minimum = 0 (at node 0)
	maximum = 0.331 (at node 11)
Injected flit rate average = 0.0211875
	minimum = 0.017 (at node 2)
	maximum = 0.026 (at node 8)
Accepted flit rate average= 0.0206875
	minimum = 0 (at node 0)
	maximum = 0.331 (at node 11)
Injected packet length average = 1
Accepted packet length average = 1
Total in-flight flits = 16 (0 measured)
latency change    = 0.00149172
throughput change = 0.0422961
Class 0:
Packet latency average = 23.8399
	minimum = 7
	maximum = 110
Network latency average = 23.8399
	minimum = 7
	maximum = 110
Slowest packet = 217801
Flit latency average = 23.8399
	minimum = 7
	maximum = 110
Slowest flit = 217801
Fragmentation average = 0
	minimum = 0
	maximum = 0
Injected packet rate average = 0.02
	minimum = 0.016 (at node 7)
	maximum = 0.026 (at node 13)
Accepted packet rate average = 0.0206875
	minimum = 0 (at node 0)
	maximum = 0.331 (at node 11)
Injected flit rate average = 0.02
	minimum = 0.016 (at node 7)
	maximum = 0.026 (at node 13)
Accepted flit rate average= 0.0206875
	minimum = 0 (at node 0)
	maximum = 0.331 (at node 11)
Injected packet length average = 1
Accepted packet length average = 1
Total in-flight flits = 5 (0 measured)
latency change    = 0.0609555
throughput change = 0
Warmed up ...Time used is 3000 cycles
Class 0:
Packet latency average = 21.0816
	minimum = 7
	maximum = 52
Network latency average = 21.0816
	minimum = 7
	maximum = 52
Slowest packet = 218361
Flit latency average = 21.0357
	minimum = 7
	maximum = 52
Slowest flit = 218361
Fragmentation average = 0
	minimum = 0
	maximum = 0
Injected packet rate average = 0.021125
	minimum = 0.014 (at node 4)
	maximum = 0.028 (at node 3)
Accepted packet rate average = 0.021
	minimum = 0 (at node 0)
	maximum = 0.336 (at node 11)
Injected flit rate average = 0.021125
	minimum = 0.014 (at node 4)
	maximum = 0.028 (at node 3)
Accepted flit rate average= 0.021
	minimum = 0 (at node 0)
	maximum = 0.336 (at node 11)
Injected packet length average = 1
Accepted packet length average = 1
Total in-flight flits = 7 (7 measured)
latency change    = 0.13084
throughput change = 0.014881
Class 0:
Packet latency average = 21.9173
	minimum = 7
	maximum = 73
Network latency average = 21.9173
	minimum = 7
	maximum = 73
Slowest packet = 218735
Flit latency average = 21.8881
	minimum = 7
	maximum = 73
Slowest flit = 218735
Fragmentation average = 0
	minimum = 0
	maximum = 0
Injected packet rate average = 0.0209688
	minimum = 0.0175 (at node 4)
	maximum = 0.025 (at node 3)
Accepted packet rate average = 0.0209375
	minimum = 0 (at node 0)
	maximum = 0.335 (at node 11)
Injected flit rate average = 0.0209688
	minimum = 0.0175 (at node 4)
	maximum = 0.025 (at node 3)
Accepted flit rate average= 0.0209375
	minimum = 0 (at node 0)
	maximum = 0.335 (at node 11)
Injected packet length average = 1
Accepted packet length average = 1
Total in-flight flits = 6 (6 measured)
latency change    = 0.0381307
throughput change = 0.00298507
Class 0:
Packet latency average = 21.99
	minimum = 7
	maximum = 73
Network latency average = 21.99
	minimum = 7
	maximum = 73
Slowest packet = 218735
Flit latency average = 21.9702
	minimum = 7
	maximum = 73
Slowest flit = 218735
Fragmentation average = 0
	minimum = 0
	maximum = 0
Injected packet rate average = 0.0210208
	minimum = 0.0173333 (at node 4)
	maximum = 0.024 (at node 3)
Accepted packet rate average = 0.021
	minimum = 0 (at node 0)
	maximum = 0.336 (at node 11)
Injected flit rate average = 0.0210208
	minimum = 0.0173333 (at node 4)
	maximum = 0.024 (at node 3)
Accepted flit rate average= 0.021
	minimum = 0 (at node 0)
	maximum = 0.336 (at node 11)
Injected packet length average = 1
Accepted packet length average = 1
Total in-flight flits = 6 (6 measured)
latency change    = 0.00330771
throughput change = 0.00297619
Class 0:
Packet latency average = 21.6169
	minimum = 7
	maximum = 73
Network latency average = 21.6169
	minimum = 7
	maximum = 73
Slowest packet = 218735
Flit latency average = 21.6033
	minimum = 7
	maximum = 73
Slowest flit = 218735
Fragmentation average = 0
	minimum = 0
	maximum = 0
Injected packet rate average = 0.0207656
	minimum = 0.01725 (at node 4)
	maximum = 0.02375 (at node 5)
Accepted packet rate average = 0.0207969
	minimum = 0 (at node 0)
	maximum = 0.33275 (at node 11)
Injected flit rate average = 0.0207656
	minimum = 0.01725 (at node 4)
	maximum = 0.02375 (at node 5)
Accepted flit rate average= 0.0207969
	minimum = 0 (at node 0)
	maximum = 0.33275 (at node 11)
Injected packet length average = 1
Accepted packet length average = 1
Total in-flight flits = 3 (3 measured)
latency change    = 0.0172614
throughput change = 0.00976709
Draining all recorded packets ...
Draining remaining packets ...
Time taken is 7037 cycles
Class 0:
Packet latency average = 20.2727
	minimum = 7
	maximum = 48
Network latency average = 20.2727
	minimum = 7
	maximum = 48
Slowest packet = 219532
Flit latency average = 20.2727
	minimum = 7
	maximum = 48
Slowest flit = 219532
Fragmentation average = 0
	minimum = 0
	maximum = 0
Injected packet rate average = 0.01975
	minimum = 0.013 (at node 4)
	maximum = 0.03 (at node 11)
Accepted packet rate average = 0.01925
	minimum = 0 (at node 0)
	maximum = 0.308 (at node 11)
Injected flit rate average = 0.01975
	minimum = 0.013 (at node 4)
	maximum = 0.03 (at node 11)
Accepted flit rate average= 0.01925
	minimum = 0 (at node 0)
	maximum = 0.308 (at node 11)
Injected packet length average = 1
Accepted packet length average = 1
Total in-flight flits = 8 (0 measured)
latency change    = 1
throughput change = 1
Class 0:
Packet latency average = 21.0199
	minimum = 7
	maximum = 61
Network latency average = 21.0199
	minimum = 7
	maximum = 61
Slowest packet = 219998
Flit latency average = 21.0199
	minimum = 7
	maximum = 61
Slowest flit = 219998
Fragmentation average = 0
	minimum = 0
	maximum = 0
Injected packet rate average = 0.0192187
	minimum = 0.015 (at node 15)
	maximum = 0.0235 (at node 11)
Accepted packet rate average = 0.018875
	minimum = 0 (at node 0)
	maximum = 0.302 (at node 11)
Injected flit rate average = 0.0192187
	minimum = 0.015 (at node 15)
	maximum = 0.0235 (at node 11)
Accepted flit rate average= 0.018875
	minimum = 0 (at node 0)
	maximum = 0.302 (at node 11)
Injected packet length average = 1
Accepted packet length average = 1
Total in-flight flits = 11 (0 measured)
latency change    = 0.0355445
throughput change = 0.0198675
Class 0:
Packet latency average = 23.2169
	minimum = 7
	maximum = 59
Network latency average = 23.2169
	minimum = 7
	maximum = 59
Slowest packet = 220340
Flit latency average = 23.2169
	minimum = 7
	maximum = 59
Slowest flit = 220340
Fragmentation average = 0
	minimum = 0
	maximum = 0
Injected packet rate average = 0.021875
	minimum = 0.014 (at node 11)
	maximum = 0.031 (at node 12)
Accepted packet rate average = 0.0221875
	minimum = 0 (at node 0)
	maximum = 0.355 (at node 11)
Injected flit rate average = 0.021875
	minimum = 0.014 (at node 11)
	maximum = 0.031 (at node 12)
Accepted flit rate average= 0.0221875
	minimum = 0 (at node 0)
	maximum = 0.355 (at node 11)
Injected packet length average = 1
Accepted packet length average = 1
Total in-flight flits = 6 (0 measured)
latency change    = 0.0946308
throughput change = 0.149296
Warmed up ...Time used is 3000 cycles
Class 0:
Packet latency average = 21.4857
	minimum = 7
	maximum = 58
Network latency average = 21.4857
	minimum = 7
	maximum = 58
Slowest packet = 220479
Flit latency average = 21.4642
	minimum = 7
	maximum = 58
Slowest flit = 220479
Fragmentation average = 0
	minimum = 0
	maximum = 0
Injected packet rate average = 0.02025
	minimum = 0.009 (at node 3)
	maximum = 0.028 (at node 0)
Accepted packet rate average = 0.0200625
	minimum = 0 (at node 0)
	maximum = 0.321 (at node 11)
Injected flit rate average = 0.02025
	minimum = 0.009 (at node 3)
	maximum = 0.028 (at node 0)
Accepted flit rate average= 0.0200625
	minimum = 0 (at node 0)
	maximum = 0.321 (at node 11)
Injected packet length average = 1
Accepted packet length average = 1
Total in-flight flits = 9 (9 measured)
latency change    = 0.0805739
throughput change = 0.105919
Class 0:
Packet latency average = 21.2914
	minimum = 7
	maximum = 58
Network latency average = 21.2914
	minimum = 7
	maximum = 58
Slowest packet = 220479
Flit latency average = 21.2823
	minimum = 7
	maximum = 58
Slowest flit = 220479
Fragmentation average = 0
	minimum = 0
	maximum = 0
Injected packet rate average = 0.0198438
	minimum = 0.013 (at node 15)
	maximum = 0.0255 (at node 0)
Accepted packet rate average = 0.0198125
	minimum = 0 (at node 0)
	maximum = 0.317 (at node 11)
Injected flit rate average = 0.0198438
	minimum = 0.013 (at node 15)
	maximum = 0.0255 (at node 0)
Accepted flit rate average= 0.0198125
	minimum = 0 (at node 0)
	maximum = 0.317 (at node 11)
Injected packet length average = 1
Accepted packet length average = 1
Total in-flight flits = 7 (7 measured)
latency change    = 0.00912636
throughput change = 0.0126183
Class 0:
Packet latency average = 21.5286
	minimum = 7
	maximum = 58
Network latency average = 21.5286
	minimum = 7
	maximum = 58
Slowest packet = 220479
Flit latency average = 21.5212
	minimum = 7
	maximum = 58
Slowest flit = 220479
Fragmentation average = 0
	minimum = 0
	maximum = 0
Injected packet rate average = 0.0201042
	minimum = 0.0156667 (at node 3)
	maximum = 0.0233333 (at node 7)
Accepted packet rate average = 0.0201458
	minimum = 0 (at node 0)
	maximum = 0.322333 (at node 11)
Injected flit rate average = 0.0201042
	minimum = 0.0156667 (at node 3)
	maximum = 0.0233333 (at node 7)
Accepted flit rate average= 0.0201458
	minimum = 0 (at node 0)
	maximum = 0.322333 (at node 11)
Injected packet length average = 1
Accepted packet length average = 1
Total in-flight flits = 4 (4 measured)
latency change    = 0.0110186
throughput change = 0.016546
Class 0:
Packet latency average = 21.3599
	minimum = 7
	maximum = 58
Network latency average = 21.3599
	minimum = 7
	maximum = 58
Slowest packet = 220479
Flit latency average = 21.355
	minimum = 7
	maximum = 58
Slowest flit = 220479
Fragmentation average = 0
	minimum = 0
	maximum = 0
Injected packet rate average = 0.0194844
	minimum = 0.0145 (at node 3)
	maximum = 0.0225 (at node 6)
Accepted packet rate average = 0.0195
	minimum = 0 (at node 0)
	maximum = 0.312 (at node 11)
Injected flit rate average = 0.0194844
	minimum = 0.0145 (at node 3)
	maximum = 0.0225 (at node 6)
Accepted flit rate average= 0.0195
	minimum = 0 (at node 0)
	maximum = 0.312 (at node 11)
Injected packet length average = 1
Accepted packet length average = 1
Total in-flight flits = 5 (5 measured)
latency change    = 0.00789857
throughput change = 0.0331197
Draining all recorded packets ...
Draining remaining packets ...
Time taken is 7039 cycles
Class 0:
Packet latency average = 21.1712
	minimum = 7
	maximum = 43
Network latency average = 21.1712
	minimum = 7
	maximum = 43
Slowest packet = 221951
Flit latency average = 21.1712
	minimum = 7
	maximum = 43
Slowest flit = 221951
Fragmentation average = 0
	minimum = 0
	maximum = 0
Injected packet rate average = 0.0188125
	minimum = 0.012 (at node 1)
	maximum = 0.025 (at node 2)
Accepted packet rate average = 0.01825
	minimum = 0 (at node 0)
	maximum = 0.292 (at node 11)
Injected flit rate average = 0.0188125
	minimum = 0.012 (at node 1)
	maximum = 0.025 (at node 2)
Accepted flit rate average= 0.01825
	minimum = 0 (at node 0)
	maximum = 0.292 (at node 11)
Injected packet length average = 1
Accepted packet length average = 1
Total in-flight flits = 9 (0 measured)
latency change    = 1
throughput change = 1
Class 0:
Packet latency average = 21.429
	minimum = 7
	maximum = 47
Network latency average = 21.429
	minimum = 7
	maximum = 47
Slowest packet = 222072
Flit latency average = 21.429
	minimum = 7
	maximum = 47
Slowest flit = 222072
Fragmentation average = 0
	minimum = 0
	maximum = 0
Injected packet rate average = 0.0201563
	minimum = 0.014 (at node 12)
	maximum = 0.028 (at node 4)
Accepted packet rate average = 0.0198125
	minimum = 0 (at node 0)
	maximum = 0.317 (at node 11)
Injected flit rate average = 0.0201563
	minimum = 0.014 (at node 12)
	maximum = 0.028 (at node 4)
Accepted flit rate average= 0.0198125
	minimum = 0 (at node 0)
	maximum = 0.317 (at node 11)
Injected packet length average = 1
Accepted packet length average = 1
Total in-flight flits = 11 (0 measured)
latency change    = 0.0120299
throughput change = 0.0788644
Class 0:
Packet latency average = 22.2184
	minimum = 7
	maximum = 52
Network latency average = 22.2184
	minimum = 7
	maximum = 52
Slowest packet = 222380
Flit latency average = 22.2184
	minimum = 7
	maximum = 52
Slowest flit = 222380
Fragmentation average = 0
	minimum = 0
	maximum = 0
Injected packet rate average = 0.0196875
	minimum = 0.012 (at node 14)
	maximum = 0.025 (at node 13)
Accepted packet rate average = 0.01975
	minimum = 0 (at node 0)
	maximum = 0.316 (at node 11)
Injected flit rate average = 0.0196875
	minimum = 0.012 (at node 14)
	maximum = 0.025 (at node 13)
Accepted flit rate average= 0.01975
	minimum = 0 (at node 0)
	maximum = 0.316 (at node 11)
Injected packet length average = 1
Accepted packet length average = 1
Total in-flight flits = 10 (0 measured)
latency change    = 0.0355261
throughput change = 0.00316456
Warmed up ...Time used is 3000 cycles
Class 0:
Packet latency average = 20.8987
	minimum = 7
	maximum = 47
Network latency average = 20.8987
	minimum = 7
	maximum = 47
Slowest packet = 222677
Flit latency average = 21.1456
	minimum = 7
	maximum = 47
Slowest flit = 222677
Fragmentation average = 0
	minimum = 0
	maximum = 0
Injected packet rate average = 0.0195625
	minimum = 0.013 (at node 12)
	maximum = 0.029 (at node 2)
Accepted packet rate average = 0.01975
	minimum = 0 (at node 0)
	maximum = 0.316 (at node 11)
Injected flit rate average = 0.0195625
	minimum = 0.013 (at node 12)
	maximum = 0.029 (at node 2)
Accepted flit rate average= 0.01975
	minimum = 0 (at node 0)
	maximum = 0.316 (at node 11)
Injected packet length average = 1
Accepted packet length average = 1
Total in-flight flits = 7 (7 measured)
latency change    = 0.0631457
throughput change = 0
Class 0:
Packet latency average = 21.1036
	minimum = 7
	maximum = 55
Network latency average = 21.1036
	minimum = 7
	maximum = 55
Slowest packet = 223078
Flit latency average = 21.2265
	minimum = 7
	maximum = 55
Slowest flit = 223078
Fragmentation average = 0
	minimum = 0
	maximum = 0
Injected packet rate average = 0.0192187
	minimum = 0.0145 (at node 10)
	maximum = 0.026 (at node 2)
Accepted packet rate average = 0.0193125
	minimum = 0 (at node 0)
	maximum = 0.309 (at node 11)
Injected flit rate average = 0.0192187
	minimum = 0.0145 (at node 10)
	maximum = 0.026 (at node 2)
Accepted flit rate average= 0.0193125
	minimum = 0 (at node 0)
	maximum = 0.309 (at node 11)
Injected packet length average = 1
Accepted packet length average = 1
Total in-flight flits = 7 (7 measured)
latency change    = 0.00971045
throughput change = 0.0226537
Class 0:
Packet latency average = 21.684
	minimum = 7
	maximum = 58
Network latency average = 21.684
	minimum = 7
	maximum = 58
Slowest packet = 223524
Flit latency average = 21.7579
	minimum = 7
	maximum = 58
Slowest flit = 223524
Fragmentation average = 0
	minimum = 0
	maximum = 0
Injected packet rate average = 0.0197292
	minimum = 0.015 (at node 10)
	maximum = 0.025 (at node 2)
Accepted packet rate average = 0.0197917
	minimum = 0 (at node 0)
	maximum = 0.316667 (at node 11)
Injected flit rate average = 0.0197292
	minimum = 0.015 (at node 10)
	maximum = 0.025 (at node 2)
Accepted flit rate average= 0.0197917
	minimum = 0 (at node 0)
	maximum = 0.316667 (at node 11)
Injected packet length average = 1
Accepted packet length average = 1
Total in-flight flits = 7 (7 measured)
latency change    = 0.0267673
throughput change = 0.0242105
Class 0:
Packet latency average = 21.6696
	minimum = 7
	maximum = 58
Network latency average = 21.6696
	minimum = 7
	maximum = 58
Slowest packet = 223524
Flit latency average = 21.7255
	minimum = 7
	maximum = 58
Slowest flit = 223524
Fragmentation average = 0
	minimum = 0
	maximum = 0
Injected packet rate average = 0.0195781
	minimum = 0.01625 (at node 12)
	maximum = 0.024 (at node 2)
Accepted packet rate average = 0.0196406
	minimum = 0 (at node 0)
	maximum = 0.31425 (at node 11)
Injected flit rate average = 0.0195781
	minimum = 0.01625 (at node 12)
	maximum = 0.024 (at node 2)
Accepted flit rate average= 0.0196406
	minimum = 0 (at node 0)
	maximum = 0.31425 (at node 11)
Injected packet length average = 1
Accepted packet length average = 1
Total in-flight flits = 6 (6 measured)
latency change    = 0.000666163
throughput change = 0.00769027
Draining all recorded packets ...
Draining remaining packets ...
Time taken is 7050 cycles
====== Overall Traffic Statistics ======
====== Traffic class 0 ======
Packet latency average = 21.7406 (100 samples)
	minimum = 7 (100 samples)
	maximum = 75.39 (100 samples)
Network latency average = 21.7406 (100 samples)
	minimum = 7 (100 samples)
	maximum = 75.39 (100 samples)
Flit latency average = 21.7544 (100 samples)
	minimum = 7 (100 samples)
	maximum = 75.5 (100 samples)
Fragmentation average = 0 (100 samples)
	minimum = 0 (100 samples)
	maximum = 0 (100 samples)
Injected packet rate average = 0.0200316 (100 samples)
	minimum = 0.0162927 (100 samples)
	maximum = 0.0242473 (100 samples)
Accepted packet rate average = 0.0200418 (100 samples)
	minimum = 0 (100 samples)
	maximum = 0.320669 (100 samples)
Injected flit rate average = 0.0200316 (100 samples)
	minimum = 0.0162927 (100 samples)
	maximum = 0.0242473 (100 samples)
Accepted flit rate average = 0.0200418 (100 samples)
	minimum = 0 (100 samples)
	maximum = 0.320669 (100 samples)
Injected packet size average = 1 (100 samples)
Accepted packet size average = 1 (100 samples)
Hops average = 3.49829 (100 samples)
Total run time 11.4002
