BEGIN Configuration File: /tmp/tmpxecxslci.cfg
topology = mesh;
k = 4;
n = 2;
routing_function = romm;
num_vcs = 4;
vc_buf_size = 4;
wait_for_tail_credit = 1;
vc_allocator = islip;
sw_allocator = islip;
alloc_iters = 1;
credit_delay = 2;
routing_delay = 1;
vc_alloc_delay = 1;
sw_alloc_delay = 1;
input_speedup = 2;
output_speedup = 1;
internal_speedup = 1.0;
traffic = hotspot;
packet_size = 1;
sim_type = latency;
injection_rate = 0.02;
warmup_periods = 3;
sample_period = 1000;
sim_count = 100;
seed = 0;

END Configuration File: /tmp/tmpxecxslci.cfg
Class 0:
Packet latency average = 21.4013
	minimum = 7
	maximum = 40
Network latency average = 21.4013
	minimum = 7
	maximum = 40
Slowest packet = 106
Flit latency average = 21.4013
	minimum = 7
	maximum = 40
Slowest flit = 106
Fragmentation average = 0
	minimum = 0
	maximum = 0
Injected packet rate average = 0.0203125
	minimum = 0.015 (at node 2)
	maximum = 0.029 (at node 12)
Accepted packet rate average = 0.0199375
	minimum = 0 (at node 0)
	maximum = 0.319 (at node 11)
Injected flit rate average = 0.0203125
	minimum = 0.015 (at node 2)
	maximum = 0.029 (at node 12)
Accepted flit rate average= 0.0199375
	minimum = 0 (at node 0)
	maximum = 0.319 (at node 11)
Injected packet length average = 1
Accepted packet length average = 1
Total in-flight flits = 6 (0 measured)
latency change    = 1
throughput change = 1
Class 0:
Packet latency average = 21.5072
	minimum = 7
	maximum = 53
Network latency average = 21.5072
	minimum = 7
	maximum = 53
Slowest packet = 468
Flit latency average = 21.5072
	minimum = 7
	maximum = 53
Slowest flit = 468
Fragmentation average = 0
	minimum = 0
	maximum = 0
Injected packet rate average = 0.0195938
	minimum = 0.015 (at node 5)
	maximum = 0.0255 (at node 3)
Accepted packet rate average = 0.0194687
	minimum = 0 (at node 0)
	maximum = 0.3115 (at node 11)
Injected flit rate average = 0.0195938
	minimum = 0.015 (at node 5)
	maximum = 0.0255 (at node 3)
Accepted flit rate average= 0.0194687
	minimum = 0 (at node 0)
	maximum = 0.3115 (at node 11)
Injected packet length average = 1
Accepted packet length average = 1
Total in-flight flits = 4 (0 measured)
latency change    = 0.00492714
throughput change = 0.024077
Class 0:
Packet latency average = 22.6471
	minimum = 7
	maximum = 65
Network latency average = 22.6471
	minimum = 7
	maximum = 65
Slowest packet = 920
Flit latency average = 22.6471
	minimum = 7
	maximum = 65
Slowest flit = 920
Fragmentation average = 0
	minimum = 0
	maximum = 0
Injected packet rate average = 0.0225
	minimum = 0.016 (at node 0)
	maximum = 0.031 (at node 11)
Accepted packet rate average = 0.0223125
	minimum = 0 (at node 0)
	maximum = 0.357 (at node 11)
Injected flit rate average = 0.0225
	minimum = 0.016 (at node 0)
	maximum = 0.031 (at node 11)
Accepted flit rate average= 0.0223125
	minimum = 0 (at node 0)
	maximum = 0.357 (at node 11)
Injected packet length average = 1
Accepted packet length average = 1
Total in-flight flits = 7 (0 measured)
latency change    = 0.0503304
throughput change = 0.127451
Warmed up ...Time used is 3000 cycles
Class 0:
Packet latency average = 21.1
	minimum = 7
	maximum = 55
Network latency average = 21.1
	minimum = 7
	maximum = 55
Slowest packet = 1025
Flit latency average = 21.1564
	minimum = 7
	maximum = 55
Slowest flit = 1025
Fragmentation average = 0
	minimum = 0
	maximum = 0
Injected packet rate average = 0.019375
	minimum = 0.011 (at node 1)
	maximum = 0.029 (at node 10)
Accepted packet rate average = 0.0191875
	minimum = 0 (at node 0)
	maximum = 0.307 (at node 11)
Injected flit rate average = 0.019375
	minimum = 0.011 (at node 1)
	maximum = 0.029 (at node 10)
Accepted flit rate average= 0.0191875
	minimum = 0 (at node 0)
	maximum = 0.307 (at node 11)
Injected packet length average = 1
Accepted packet length average = 1
Total in-flight flits = 10 (10 measured)
latency change    = 0.0733203
throughput change = 0.162866
Class 0:
Packet latency average = 21.1729
	minimum = 7
	maximum = 55
Network latency average = 21.1729
	minimum = 7
	maximum = 55
Slowest packet = 1025
Flit latency average = 21.1997
	minimum = 7
	maximum = 55
Slowest flit = 1025
Fragmentation average = 0
	minimum = 0
	maximum = 0
Injected packet rate average = 0.0194062
	minimum = 0.014 (at node 14)
	maximum = 0.026 (at node 10)
Accepted packet rate average = 0.0195625
	minimum = 0 (at node 0)
	maximum = 0.313 (at node 11)
Injected flit rate average = 0.0194062
	minimum = 0.014 (at node 14)
	maximum = 0.026 (at node 10)
Accepted flit rate average= 0.0195625
	minimum = 0 (at node 0)
	maximum = 0.313 (at node 11)
Injected packet length average = 1
Accepted packet length average = 1
Total in-flight flits = 2 (2 measured)
latency change    = 0.00344117
throughput change = 0.0191693
Class 0:
Packet latency average = 21.0292
	minimum = 7
	maximum = 55
Network latency average = 21.0292
	minimum = 7
	maximum = 55
Slowest packet = 1025
Flit latency average = 21.0483
	minimum = 7
	maximum = 55
Slowest flit = 1025
Fragmentation average = 0
	minimum = 0
	maximum = 0
Injected packet rate average = 0.0194375
	minimum = 0.0143333 (at node 14)
	maximum = 0.0263333 (at node 15)
Accepted packet rate average = 0.0194167
	minimum = 0 (at node 0)
	maximum = 0.310667 (at node 11)
Injected flit rate average = 0.0194375
	minimum = 0.0143333 (at node 14)
	maximum = 0.0263333 (at node 15)
Accepted flit rate average= 0.0194167
	minimum = 0 (at node 0)
	maximum = 0.310667 (at node 11)
Injected packet length average = 1
Accepted packet length average = 1
Total in-flight flits = 8 (8 measured)
latency change    = 0.00683194
throughput change = 0.00751073
Class 0:
Packet latency average = 21.3124
	minimum = 7
	maximum = 66
Network latency average = 21.3124
	minimum = 7
	maximum = 66
Slowest packet = 2102
Flit latency average = 21.3251
	minimum = 7
	maximum = 66
Slowest flit = 2102
Fragmentation average = 0
	minimum = 0
	maximum = 0
Injected packet rate average = 0.0195312
	minimum = 0.0155 (at node 14)
	maximum = 0.0245 (at node 15)
Accepted packet rate average = 0.0195625
	minimum = 0 (at node 0)
	maximum = 0.313 (at node 11)
Injected flit rate average = 0.0195312
	minimum = 0.0155 (at node 14)
	maximum = 0.0245 (at node 15)
Accepted flit rate average= 0.0195625
	minimum = 0 (at node 0)
	maximum = 0.313 (at node 11)
Injected packet length average = 1
Accepted packet length average = 1
Total in-flight flits = 5 (5 measured)
latency change    = 0.0132909
throughput change = 0.00745474
Draining all recorded packets ...
Draining remaining packets ...
Time taken is 7050 cycles
Class 0:
Packet latency average = 20.3598
	minimum = 7
	maximum = 43
Network latency average = 20.3598
	minimum = 7
	maximum = 43
Slowest packet = 2475
Flit latency average = 20.3598
	minimum = 7
	maximum = 43
Slowest flit = 2475
Fragmentation average = 0
	minimum = 0
	maximum = 0
Injected packet rate average = 0.021
	minimum = 0.015 (at node 9)
	maximum = 0.03 (at node 1)
Accepted packet rate average = 0.0205
	minimum = 0 (at node 0)
	maximum = 0.328 (at node 11)
Injected flit rate average = 0.021
	minimum = 0.015 (at node 9)
	maximum = 0.03 (at node 1)
Accepted flit rate average= 0.0205
	minimum = 0 (at node 0)
	maximum = 0.328 (at node 11)
Injected packet length average = 1
Accepted packet length average = 1
Total in-flight flits = 8 (0 measured)
latency change    = 1
throughput change = 1
Class 0:
Packet latency average = 21.2009
	minimum = 7
	maximum = 43
Network latency average = 21.2009
	minimum = 7
	maximum = 43
Slowest packet = 2475
Flit latency average = 21.2009
	minimum = 7
	maximum = 43
Slowest flit = 2475
Fragmentation average = 0
	minimum = 0
	maximum = 0
Injected packet rate average = 0.0209375
	minimum = 0.0165 (at node 8)
	maximum = 0.03 (at node 1)
Accepted packet rate average = 0.0206875
	minimum = 0 (at node 0)
	maximum = 0.331 (at node 11)
Injected flit rate average = 0.0209375
	minimum = 0.0165 (at node 8)
	maximum = 0.03 (at node 1)
Accepted flit rate average= 0.0206875
	minimum = 0 (at node 0)
	maximum = 0.331 (at node 11)
Injected packet length average = 1
Accepted packet length average = 1
Total in-flight flits = 8 (0 measured)
latency change    = 0.0396752
throughput change = 0.00906344
Class 0:
Packet latency average = 21.0951
	minimum = 7
	maximum = 55
Network latency average = 21.0951
	minimum = 7
	maximum = 55
Slowest packet = 3013
Flit latency average = 21.0951
	minimum = 7
	maximum = 55
Slowest flit = 3013
Fragmentation average = 0
	minimum = 0
	maximum = 0
Injected packet rate average = 0.0189375
	minimum = 0.012 (at node 4)
	maximum = 0.028 (at node 10)
Accepted packet rate average = 0.0190625
	minimum = 0 (at node 0)
	maximum = 0.305 (at node 11)
Injected flit rate average = 0.0189375
	minimum = 0.012 (at node 4)
	maximum = 0.028 (at node 10)
Accepted flit rate average= 0.0190625
	minimum = 0 (at node 0)
	maximum = 0.305 (at node 11)
Injected packet length average = 1
Accepted packet length average = 1
Total in-flight flits = 6 (0 measured)
latency change    = 0.00501654
throughput change = 0.0852459
Warmed up ...Time used is 3000 cycles
Class 0:
Packet latency average = 21.0418
	minimum = 7
	maximum = 43
Network latency average = 21.0418
	minimum = 7
	maximum = 43
Slowest packet = 3279
Flit latency average = 21.0536
	minimum = 7
	maximum = 43
Slowest flit = 3279
Fragmentation average = 0
	minimum = 0
	maximum = 0
Injected packet rate average = 0.019625
	minimum = 0.012 (at node 2)
	maximum = 0.03 (at node 11)
Accepted packet rate average = 0.0198125
	minimum = 0 (at node 0)
	maximum = 0.317 (at node 11)
Injected flit rate average = 0.019625
	minimum = 0.012 (at node 2)
	maximum = 0.03 (at node 11)
Accepted flit rate average= 0.0198125
	minimum = 0 (at node 0)
	maximum = 0.317 (at node 11)
Injected packet length average = 1
Accepted packet length average = 1
Total in-flight flits = 3 (3 measured)
latency change    = 0.00253217
throughput change = 0.0378549
Class 0:
Packet latency average = 21.6409
	minimum = 7
	maximum = 58
Network latency average = 21.6409
	minimum = 7
	maximum = 58
Slowest packet = 3616
Flit latency average = 21.6412
	minimum = 7
	maximum = 58
Slowest flit = 3616
Fragmentation average = 0
	minimum = 0
	maximum = 0
Injected packet rate average = 0.02025
	minimum = 0.015 (at node 14)
	maximum = 0.0285 (at node 12)
Accepted packet rate average = 0.0200313
	minimum = 0 (at node 0)
	maximum = 0.3205 (at node 11)
Injected flit rate average = 0.02025
	minimum = 0.015 (at node 14)
	maximum = 0.0285 (at node 12)
Accepted flit rate average= 0.0200313
	minimum = 0 (at node 0)
	maximum = 0.3205 (at node 11)
Injected packet length average = 1
Accepted packet length average = 1
Total in-flight flits = 13 (13 measured)
latency change    = 0.0276857
throughput change = 0.0109204
Class 0:
Packet latency average = 21.9348
	minimum = 7
	maximum = 86
Network latency average = 21.9348
	minimum = 7
	maximum = 86
Slowest packet = 3946
Flit latency average = 21.9331
	minimum = 7
	maximum = 86
Slowest flit = 3946
Fragmentation average = 0
	minimum = 0
	maximum = 0
Injected packet rate average = 0.0203333
	minimum = 0.0146667 (at node 14)
	maximum = 0.0253333 (at node 11)
Accepted packet rate average = 0.02025
	minimum = 0 (at node 0)
	maximum = 0.324 (at node 11)
Injected flit rate average = 0.0203333
	minimum = 0.0146667 (at node 14)
	maximum = 0.0253333 (at node 11)
Accepted flit rate average= 0.02025
	minimum = 0 (at node 0)
	maximum = 0.324 (at node 11)
Injected packet length average = 1
Accepted packet length average = 1
Total in-flight flits = 10 (10 measured)
latency change    = 0.013396
throughput change = 0.0108025
Draining all recorded packets ...
Draining remaining packets ...
Time taken is 6062 cycles
Class 0:
Packet latency average = 21.7409
	minimum = 7
	maximum = 49
Network latency average = 21.7409
	minimum = 7
	maximum = 49
Slowest packet = 4211
Flit latency average = 21.7409
	minimum = 7
	maximum = 49
Slowest flit = 4211
Fragmentation average = 0
	minimum = 0
	maximum = 0
Injected packet rate average = 0.021
	minimum = 0.013 (at node 4)
	maximum = 0.029 (at node 6)
Accepted packet rate average = 0.0205
	minimum = 0 (at node 0)
	maximum = 0.328 (at node 11)
Injected flit rate average = 0.021
	minimum = 0.013 (at node 4)
	maximum = 0.029 (at node 6)
Accepted flit rate average= 0.0205
	minimum = 0 (at node 0)
	maximum = 0.328 (at node 11)
Injected packet length average = 1
Accepted packet length average = 1
Total in-flight flits = 8 (0 measured)
latency change    = 1
throughput change = 1
Class 0:
Packet latency average = 21.5734
	minimum = 7
	maximum = 57
Network latency average = 21.5734
	minimum = 7
	maximum = 57
Slowest packet = 4794
Flit latency average = 21.5734
	minimum = 7
	maximum = 57
Slowest flit = 4794
Fragmentation average = 0
	minimum = 0
	maximum = 0
Injected packet rate average = 0.020125
	minimum = 0.0155 (at node 8)
	maximum = 0.026 (at node 9)
Accepted packet rate average = 0.02
	minimum = 0 (at node 0)
	maximum = 0.32 (at node 11)
Injected flit rate average = 0.020125
	minimum = 0.0155 (at node 8)
	maximum = 0.026 (at node 9)
Accepted flit rate average= 0.02
	minimum = 0 (at node 0)
	maximum = 0.32 (at node 11)
Injected packet length average = 1
Accepted packet length average = 1
Total in-flight flits = 4 (0 measured)
latency change    = 0.00776029
throughput change = 0.025
Class 0:
Packet latency average = 20.1044
	minimum = 7
	maximum = 51
Network latency average = 20.1044
	minimum = 7
	maximum = 51
Slowest packet = 4993
Flit latency average = 20.1044
	minimum = 7
	maximum = 51
Slowest flit = 4993
Fragmentation average = 0
	minimum = 0
	maximum = 0
Injected packet rate average = 0.02
	minimum = 0.011 (at node 0)
	maximum = 0.029 (at node 15)
Accepted packet rate average = 0.01975
	minimum = 0 (at node 0)
	maximum = 0.316 (at node 11)
Injected flit rate average = 0.02
	minimum = 0.011 (at node 0)
	maximum = 0.029 (at node 15)
Accepted flit rate average= 0.01975
	minimum = 0 (at node 0)
	maximum = 0.316 (at node 11)
Injected packet length average = 1
Accepted packet length average = 1
Total in-flight flits = 8 (0 measured)
latency change    = 0.0730688
throughput change = 0.0126582
Warmed up ...Time used is 3000 cycles
Class 0:
Packet latency average = 21.5474
	minimum = 7
	maximum = 49
Network latency average = 21.5474
	minimum = 7
	maximum = 49
Slowest packet = 5344
Flit latency average = 21.5358
	minimum = 7
	maximum = 49
Slowest flit = 5344
Fragmentation average = 0
	minimum = 0
	maximum = 0
Injected packet rate average = 0.018625
	minimum = 0.014 (at node 2)
	maximum = 0.025 (at node 5)
Accepted packet rate average = 0.0183125
	minimum = 0 (at node 0)
	maximum = 0.293 (at node 11)
Injected flit rate average = 0.018625
	minimum = 0.014 (at node 2)
	maximum = 0.025 (at node 5)
Accepted flit rate average= 0.0183125
	minimum = 0 (at node 0)
	maximum = 0.293 (at node 11)
Injected packet length average = 1
Accepted packet length average = 1
Total in-flight flits = 13 (13 measured)
latency change    = 0.0669659
throughput change = 0.0784983
Class 0:
Packet latency average = 20.9859
	minimum = 7
	maximum = 49
Network latency average = 20.9859
	minimum = 7
	maximum = 49
Slowest packet = 5344
Flit latency average = 20.9879
	minimum = 7
	maximum = 49
Slowest flit = 5344
Fragmentation average = 0
	minimum = 0
	maximum = 0
Injected packet rate average = 0.018
	minimum = 0.014 (at node 2)
	maximum = 0.022 (at node 11)
Accepted packet rate average = 0.0180312
	minimum = 0 (at node 0)
	maximum = 0.2885 (at node 11)
Injected flit rate average = 0.018
	minimum = 0.014 (at node 2)
	maximum = 0.022 (at node 11)
Accepted flit rate average= 0.0180312
	minimum = 0 (at node 0)
	maximum = 0.2885 (at node 11)
Injected packet length average = 1
Accepted packet length average = 1
Total in-flight flits = 7 (7 measured)
latency change    = 0.0267526
throughput change = 0.0155979
Class 0:
Packet latency average = 21.3114
	minimum = 7
	maximum = 56
Network latency average = 21.3114
	minimum = 7
	maximum = 56
Slowest packet = 5880
Flit latency average = 21.3097
	minimum = 7
	maximum = 56
Slowest flit = 5880
Fragmentation average = 0
	minimum = 0
	maximum = 0
Injected packet rate average = 0.0187083
	minimum = 0.0143333 (at node 2)
	maximum = 0.0233333 (at node 11)
Accepted packet rate average = 0.0188333
	minimum = 0 (at node 0)
	maximum = 0.301333 (at node 11)
Injected flit rate average = 0.0187083
	minimum = 0.0143333 (at node 2)
	maximum = 0.0233333 (at node 11)
Accepted flit rate average= 0.0188333
	minimum = 0 (at node 0)
	maximum = 0.301333 (at node 11)
Injected packet length average = 1
Accepted packet length average = 1
Total in-flight flits = 2 (2 measured)
latency change    = 0.0152709
throughput change = 0.0425885
Class 0:
Packet latency average = 21.2967
	minimum = 7
	maximum = 56
Network latency average = 21.2967
	minimum = 7
	maximum = 56
Slowest packet = 5880
Flit latency average = 21.2955
	minimum = 7
	maximum = 56
Slowest flit = 5880
Fragmentation average = 0
	minimum = 0
	maximum = 0
Injected packet rate average = 0.0192812
	minimum = 0.01525 (at node 15)
	maximum = 0.02425 (at node 11)
Accepted packet rate average = 0.0192969
	minimum = 0 (at node 0)
	maximum = 0.30875 (at node 11)
Injected flit rate average = 0.0192812
	minimum = 0.01525 (at node 15)
	maximum = 0.02425 (at node 11)
Accepted flit rate average= 0.0192969
	minimum = 0 (at node 0)
	maximum = 0.30875 (at node 11)
Injected packet length average = 1
Accepted packet length average = 1
Total in-flight flits = 7 (7 measured)
latency change    = 0.000691442
throughput change = 0.0240216
Draining all recorded packets ...
Draining remaining packets ...
Time taken is 7046 cycles
Class 0:
Packet latency average = 20.869
	minimum = 7
	maximum = 48
Network latency average = 20.869
	minimum = 7
	maximum = 48
Slowest packet = 6513
Flit latency average = 20.869
	minimum = 7
	maximum = 48
Slowest flit = 6513
Fragmentation average = 0
	minimum = 0
	maximum = 0
Injected packet rate average = 0.01975
	minimum = 0.016 (at node 2)
	maximum = 0.023 (at node 3)
Accepted packet rate average = 0.0195625
	minimum = 0 (at node 0)
	maximum = 0.313 (at node 11)
Injected flit rate average = 0.01975
	minimum = 0.016 (at node 2)
	maximum = 0.023 (at node 3)
Accepted flit rate average= 0.0195625
	minimum = 0 (at node 0)
	maximum = 0.313 (at node 11)
Injected packet length average = 1
Accepted packet length average = 1
Total in-flight flits = 3 (0 measured)
latency change    = 1
throughput change = 1
Class 0:
Packet latency average = 21.2188
	minimum = 7
	maximum = 49
Network latency average = 21.2188
	minimum = 7
	maximum = 49
Slowest packet = 6796
Flit latency average = 21.2188
	minimum = 7
	maximum = 49
Slowest flit = 6796
Fragmentation average = 0
	minimum = 0
	maximum = 0
Injected packet rate average = 0.0204688
	minimum = 0.017 (at node 6)
	maximum = 0.024 (at node 9)
Accepted packet rate average = 0.0202813
	minimum = 0 (at node 0)
	maximum = 0.3245 (at node 11)
Injected flit rate average = 0.0204688
	minimum = 0.017 (at node 6)
	maximum = 0.024 (at node 9)
Accepted flit rate average= 0.0202813
	minimum = 0 (at node 0)
	maximum = 0.3245 (at node 11)
Injected packet length average = 1
Accepted packet length average = 1
Total in-flight flits = 6 (0 measured)
latency change    = 0.0164848
throughput change = 0.0354391
Class 0:
Packet latency average = 20.8081
	minimum = 7
	maximum = 41
Network latency average = 20.8081
	minimum = 7
	maximum = 41
Slowest packet = 7088
Flit latency average = 20.8081
	minimum = 7
	maximum = 41
Slowest flit = 7088
Fragmentation average = 0
	minimum = 0
	maximum = 0
Injected packet rate average = 0.01875
	minimum = 0.014 (at node 2)
	maximum = 0.025 (at node 0)
Accepted packet rate average = 0.0185625
	minimum = 0 (at node 0)
	maximum = 0.297 (at node 11)
Injected flit rate average = 0.01875
	minimum = 0.014 (at node 2)
	maximum = 0.025 (at node 0)
Accepted flit rate average= 0.0185625
	minimum = 0 (at node 0)
	maximum = 0.297 (at node 11)
Injected packet length average = 1
Accepted packet length average = 1
Total in-flight flits = 9 (0 measured)
latency change    = 0.0197384
throughput change = 0.0925926
Warmed up ...Time used is 3000 cycles
Class 0:
Packet latency average = 19.4214
	minimum = 7
	maximum = 55
Network latency average = 19.4214
	minimum = 7
	maximum = 55
Slowest packet = 7389
Flit latency average = 19.5744
	minimum = 7
	maximum = 55
Slowest flit = 7389
Fragmentation average = 0
	minimum = 0
	maximum = 0
Injected packet rate average = 0.0178125
	minimum = 0.011 (at node 0)
	maximum = 0.031 (at node 10)
Accepted packet rate average = 0.0180625
	minimum = 0 (at node 0)
	maximum = 0.289 (at node 11)
Injected flit rate average = 0.0178125
	minimum = 0.011 (at node 0)
	maximum = 0.031 (at node 10)
Accepted flit rate average= 0.0180625
	minimum = 0 (at node 0)
	maximum = 0.289 (at node 11)
Injected packet length average = 1
Accepted packet length average = 1
Total in-flight flits = 5 (5 measured)
latency change    = 0.0713981
throughput change = 0.0276817
Class 0:
Packet latency average = 20.3096
	minimum = 7
	maximum = 55
Network latency average = 20.3096
	minimum = 7
	maximum = 55
Slowest packet = 7389
Flit latency average = 20.3687
	minimum = 7
	maximum = 55
Slowest flit = 7389
Fragmentation average = 0
	minimum = 0
	maximum = 0
Injected packet rate average = 0.019125
	minimum = 0.0135 (at node 0)
	maximum = 0.0255 (at node 11)
Accepted packet rate average = 0.0191562
	minimum = 0 (at node 0)
	maximum = 0.3065 (at node 11)
Injected flit rate average = 0.019125
	minimum = 0.0135 (at node 0)
	maximum = 0.0255 (at node 11)
Accepted flit rate average= 0.0191562
	minimum = 0 (at node 0)
	maximum = 0.3065 (at node 11)
Injected packet length average = 1
Accepted packet length average = 1
Total in-flight flits = 8 (8 measured)
latency change    = 0.0437317
throughput change = 0.0570962
Class 0:
Packet latency average = 20.3582
	minimum = 7
	maximum = 55
Network latency average = 20.3582
	minimum = 7
	maximum = 55
Slowest packet = 7389
Flit latency average = 20.397
	minimum = 7
	maximum = 55
Slowest flit = 7389
Fragmentation average = 0
	minimum = 0
	maximum = 0
Injected packet rate average = 0.019125
	minimum = 0.0143333 (at node 15)
	maximum = 0.0256667 (at node 11)
Accepted packet rate average = 0.0192083
	minimum = 0 (at node 0)
	maximum = 0.307333 (at node 11)
Injected flit rate average = 0.019125
	minimum = 0.0143333 (at node 15)
	maximum = 0.0256667 (at node 11)
Accepted flit rate average= 0.0192083
	minimum = 0 (at node 0)
	maximum = 0.307333 (at node 11)
Injected packet length average = 1
Accepted packet length average = 1
Total in-flight flits = 5 (5 measured)
latency change    = 0.00238515
throughput change = 0.0027115
Class 0:
Packet latency average = 20.3364
	minimum = 7
	maximum = 55
Network latency average = 20.3364
	minimum = 7
	maximum = 55
Slowest packet = 7389
Flit latency average = 20.3663
	minimum = 7
	maximum = 55
Slowest flit = 7389
Fragmentation average = 0
	minimum = 0
	maximum = 0
Injected packet rate average = 0.0187812
	minimum = 0.016 (at node 15)
	maximum = 0.02275 (at node 11)
Accepted packet rate average = 0.0188125
	minimum = 0 (at node 0)
	maximum = 0.301 (at node 11)
Injected flit rate average = 0.0187812
	minimum = 0.016 (at node 15)
	maximum = 0.02275 (at node 11)
Accepted flit rate average= 0.0188125
	minimum = 0 (at node 0)
	maximum = 0.301 (at node 11)
Injected packet length average = 1
Accepted packet length average = 1
Total in-flight flits = 7 (7 measured)
latency change    = 0.00106992
throughput change = 0.021041
Class 0:
Packet latency average = 20.8102
	minimum = 7
	maximum = 56
Network latency average = 20.8102
	minimum = 7
	maximum = 56
Slowest packet = 8602
Flit latency average = 20.8307
	minimum = 7
	maximum = 56
Slowest flit = 8602
Fragmentation average = 0
	minimum = 0
	maximum = 0
Injected packet rate average = 0.0193875
	minimum = 0.016 (at node 15)
	maximum = 0.0234 (at node 10)
Accepted packet rate average = 0.0194125
	minimum = 0 (at node 0)
	maximum = 0.3106 (at node 11)
Injected flit rate average = 0.0193875
	minimum = 0.016 (at node 15)
	maximum = 0.0234 (at node 10)
Accepted flit rate average= 0.0194125
	minimum = 0 (at node 0)
	maximum = 0.3106 (at node 11)
Injected packet length average = 1
Accepted packet length average = 1
Total in-flight flits = 7 (7 measured)
latency change    = 0.0227692
throughput change = 0.0309079
Draining all recorded packets ...
Draining remaining packets ...
Time taken is 8032 cycles
Class 0:
Packet latency average = 21.0372
	minimum = 7
	maximum = 47
Network latency average = 21.0372
	minimum = 7
	maximum = 47
Slowest packet = 9182
Flit latency average = 21.0372
	minimum = 7
	maximum = 47
Slowest flit = 9182
Fragmentation average = 0
	minimum = 0
	maximum = 0
Injected packet rate average = 0.0205625
	minimum = 0.011 (at node 2)
	maximum = 0.033 (at node 10)
Accepted packet rate average = 0.0201875
	minimum = 0 (at node 0)
	maximum = 0.323 (at node 11)
Injected flit rate average = 0.0205625
	minimum = 0.011 (at node 2)
	maximum = 0.033 (at node 10)
Accepted flit rate average= 0.0201875
	minimum = 0 (at node 0)
	maximum = 0.323 (at node 11)
Injected packet length average = 1
Accepted packet length average = 1
Total in-flight flits = 6 (0 measured)
latency change    = 1
throughput change = 1
Class 0:
Packet latency average = 21.0504
	minimum = 7
	maximum = 47
Network latency average = 21.0504
	minimum = 7
	maximum = 47
Slowest packet = 9182
Flit latency average = 21.0504
	minimum = 7
	maximum = 47
Slowest flit = 9182
Fragmentation average = 0
	minimum = 0
	maximum = 0
Injected packet rate average = 0.02
	minimum = 0.015 (at node 2)
	maximum = 0.026 (at node 10)
Accepted packet rate average = 0.0198438
	minimum = 0 (at node 0)
	maximum = 0.3175 (at node 11)
Injected flit rate average = 0.02
	minimum = 0.015 (at node 2)
	maximum = 0.026 (at node 10)
Accepted flit rate average= 0.0198438
	minimum = 0 (at node 0)
	maximum = 0.3175 (at node 11)
Injected packet length average = 1
Accepted packet length average = 1
Total in-flight flits = 5 (0 measured)
latency change    = 0.000629062
throughput change = 0.0173228
Class 0:
Packet latency average = 21.9595
	minimum = 7
	maximum = 53
Network latency average = 21.9595
	minimum = 7
	maximum = 53
Slowest packet = 9777
Flit latency average = 21.9595
	minimum = 7
	maximum = 53
Slowest flit = 9777
Fragmentation average = 0
	minimum = 0
	maximum = 0
Injected packet rate average = 0.02025
	minimum = 0.008 (at node 9)
	maximum = 0.031 (at node 0)
Accepted packet rate average = 0.0200625
	minimum = 0 (at node 0)
	maximum = 0.321 (at node 11)
Injected flit rate average = 0.02025
	minimum = 0.008 (at node 9)
	maximum = 0.031 (at node 0)
Accepted flit rate average= 0.0200625
	minimum = 0 (at node 0)
	maximum = 0.321 (at node 11)
Injected packet length average = 1
Accepted packet length average = 1
Total in-flight flits = 8 (0 measured)
latency change    = 0.0413993
throughput change = 0.0109034
Warmed up ...Time used is 3000 cycles
Class 0:
Packet latency average = 21.0327
	minimum = 7
	maximum = 45
Network latency average = 21.0327
	minimum = 7
	maximum = 45
Slowest packet = 10097
Flit latency average = 21.1279
	minimum = 7
	maximum = 45
Slowest flit = 10097
Fragmentation average = 0
	minimum = 0
	maximum = 0
Injected packet rate average = 0.0215625
	minimum = 0.015 (at node 11)
	maximum = 0.028 (at node 10)
Accepted packet rate average = 0.0215
	minimum = 0 (at node 0)
	maximum = 0.344 (at node 11)
Injected flit rate average = 0.0215625
	minimum = 0.015 (at node 11)
	maximum = 0.028 (at node 10)
Accepted flit rate average= 0.0215
	minimum = 0 (at node 0)
	maximum = 0.344 (at node 11)
Injected packet length average = 1
Accepted packet length average = 1
Total in-flight flits = 9 (9 measured)
latency change    = 0.0440629
throughput change = 0.0668605
Class 0:
Packet latency average = 20.9528
	minimum = 7
	maximum = 53
Network latency average = 20.9528
	minimum = 7
	maximum = 53
Slowest packet = 10247
Flit latency average = 21.0047
	minimum = 7
	maximum = 53
Slowest flit = 10247
Fragmentation average = 0
	minimum = 0
	maximum = 0
Injected packet rate average = 0.0201563
	minimum = 0.0175 (at node 4)
	maximum = 0.024 (at node 10)
Accepted packet rate average = 0.020125
	minimum = 0 (at node 0)
	maximum = 0.322 (at node 11)
Injected flit rate average = 0.0201563
	minimum = 0.0175 (at node 4)
	maximum = 0.024 (at node 10)
Accepted flit rate average= 0.020125
	minimum = 0 (at node 0)
	maximum = 0.322 (at node 11)
Injected packet length average = 1
Accepted packet length average = 1
Total in-flight flits = 9 (9 measured)
latency change    = 0.0038137
throughput change = 0.068323
Class 0:
Packet latency average = 20.9698
	minimum = 7
	maximum = 73
Network latency average = 20.9698
	minimum = 7
	maximum = 73
Slowest packet = 10536
Flit latency average = 21.0041
	minimum = 7
	maximum = 73
Slowest flit = 10536
Fragmentation average = 0
	minimum = 0
	maximum = 0
Injected packet rate average = 0.020125
	minimum = 0.016 (at node 4)
	maximum = 0.0233333 (at node 10)
Accepted packet rate average = 0.0201875
	minimum = 0 (at node 0)
	maximum = 0.323 (at node 11)
Injected flit rate average = 0.020125
	minimum = 0.016 (at node 4)
	maximum = 0.0233333 (at node 10)
Accepted flit rate average= 0.0201875
	minimum = 0 (at node 0)
	maximum = 0.323 (at node 11)
Injected packet length average = 1
Accepted packet length average = 1
Total in-flight flits = 5 (5 measured)
latency change    = 0.000810351
throughput change = 0.00309598
Class 0:
Packet latency average = 20.9496
	minimum = 7
	maximum = 73
Network latency average = 20.9496
	minimum = 7
	maximum = 73
Slowest packet = 10536
Flit latency average = 20.9757
	minimum = 7
	maximum = 73
Slowest flit = 10536
Fragmentation average = 0
	minimum = 0
	maximum = 0
Injected packet rate average = 0.0199531
	minimum = 0.0165 (at node 1)
	maximum = 0.0235 (at node 10)
Accepted packet rate average = 0.0199688
	minimum = 0 (at node 0)
	maximum = 0.3195 (at node 11)
Injected flit rate average = 0.0199531
	minimum = 0.0165 (at node 1)
	maximum = 0.0235 (at node 10)
Accepted flit rate average= 0.0199688
	minimum = 0 (at node 0)
	maximum = 0.3195 (at node 11)
Injected packet length average = 1
Accepted packet length average = 1
Total in-flight flits = 7 (7 measured)
latency change    = 0.000965021
throughput change = 0.0109546
Class 0:
Packet latency average = 20.9085
	minimum = 7
	maximum = 73
Network latency average = 20.9085
	minimum = 7
	maximum = 73
Slowest packet = 10536
Flit latency average = 20.9296
	minimum = 7
	maximum = 73
Slowest flit = 10536
Fragmentation average = 0
	minimum = 0
	maximum = 0
Injected packet rate average = 0.01995
	minimum = 0.016 (at node 0)
	maximum = 0.0234 (at node 10)
Accepted packet rate average = 0.02005
	minimum = 0 (at node 0)
	maximum = 0.3208 (at node 11)
Injected flit rate average = 0.01995
	minimum = 0.016 (at node 0)
	maximum = 0.0234 (at node 10)
Accepted flit rate average= 0.02005
	minimum = 0 (at node 0)
	maximum = 0.3208 (at node 11)
Injected packet length average = 1
Accepted packet length average = 1
Total in-flight flits = 0 (0 measured)
latency change    = 0.00196499
throughput change = 0.00405237
Draining all recorded packets ...
Draining remaining packets ...
Time taken is 8012 cycles
Class 0:
Packet latency average = 21.8627
	minimum = 7
	maximum = 53
Network latency average = 21.8627
	minimum = 7
	maximum = 53
Slowest packet = 11635
Flit latency average = 21.8627
	minimum = 7
	maximum = 53
Slowest flit = 11635
Fragmentation average = 0
	minimum = 0
	maximum = 0
Injected packet rate average = 0.0200625
	minimum = 0.013 (at node 5)
	maximum = 0.029 (at node 4)
Accepted packet rate average = 0.019125
	minimum = 0 (at node 0)
	maximum = 0.306 (at node 11)
Injected flit rate average = 0.0200625
	minimum = 0.013 (at node 5)
	maximum = 0.029 (at node 4)
Accepted flit rate average= 0.019125
	minimum = 0 (at node 0)
	maximum = 0.306 (at node 11)
Injected packet length average = 1
Accepted packet length average = 1
Total in-flight flits = 15 (0 measured)
latency change    = 1
throughput change = 1
Class 0:
Packet latency average = 23.2321
	minimum = 7
	maximum = 71
Network latency average = 23.2321
	minimum = 7
	maximum = 71
Slowest packet = 11862
Flit latency average = 23.2321
	minimum = 7
	maximum = 71
Slowest flit = 11862
Fragmentation average = 0
	minimum = 0
	maximum = 0
Injected packet rate average = 0.0211875
	minimum = 0.0155 (at node 6)
	maximum = 0.026 (at node 1)
Accepted packet rate average = 0.021
	minimum = 0 (at node 0)
	maximum = 0.336 (at node 11)
Injected flit rate average = 0.0211875
	minimum = 0.0155 (at node 6)
	maximum = 0.026 (at node 1)
Accepted flit rate average= 0.021
	minimum = 0 (at node 0)
	maximum = 0.336 (at node 11)
Injected packet length average = 1
Accepted packet length average = 1
Total in-flight flits = 6 (0 measured)
latency change    = 0.0589441
throughput change = 0.0892857
Class 0:
Packet latency average = 20.7186
	minimum = 7
	maximum = 46
Network latency average = 20.7186
	minimum = 7
	maximum = 46
Slowest packet = 12463
Flit latency average = 20.7186
	minimum = 7
	maximum = 46
Slowest flit = 12463
Fragmentation average = 0
	minimum = 0
	maximum = 0
Injected packet rate average = 0.0209375
	minimum = 0.012 (at node 1)
	maximum = 0.028 (at node 9)
Accepted packet rate average = 0.020875
	minimum = 0 (at node 0)
	maximum = 0.334 (at node 11)
Injected flit rate average = 0.0209375
	minimum = 0.012 (at node 1)
	maximum = 0.028 (at node 9)
Accepted flit rate average= 0.020875
	minimum = 0 (at node 0)
	maximum = 0.334 (at node 11)
Injected packet length average = 1
Accepted packet length average = 1
Total in-flight flits = 7 (0 measured)
latency change    = 0.12132
throughput change = 0.00598802
Warmed up ...Time used is 3000 cycles
Class 0:
Packet latency average = 20.1941
	minimum = 7
	maximum = 40
Network latency average = 20.1941
	minimum = 7
	maximum = 40
Slowest packet = 12704
Flit latency average = 20.1608
	minimum = 7
	maximum = 40
Slowest flit = 12704
Fragmentation average = 0
	minimum = 0
	maximum = 0
Injected packet rate average = 0.01925
	minimum = 0.012 (at node 5)
	maximum = 0.027 (at node 11)
Accepted packet rate average = 0.0194375
	minimum = 0 (at node 0)
	maximum = 0.311 (at node 11)
Injected flit rate average = 0.01925
	minimum = 0.012 (at node 5)
	maximum = 0.027 (at node 11)
Accepted flit rate average= 0.0194375
	minimum = 0 (at node 0)
	maximum = 0.311 (at node 11)
Injected packet length average = 1
Accepted packet length average = 1
Total in-flight flits = 4 (4 measured)
latency change    = 0.0259722
throughput change = 0.073955
Class 0:
Packet latency average = 20.7962
	minimum = 7
	maximum = 45
Network latency average = 20.7962
	minimum = 7
	maximum = 45
Slowest packet = 12948
Flit latency average = 20.7732
	minimum = 7
	maximum = 45
Slowest flit = 12948
Fragmentation average = 0
	minimum = 0
	maximum = 0
Injected packet rate average = 0.0199375
	minimum = 0.014 (at node 5)
	maximum = 0.027 (at node 7)
Accepted packet rate average = 0.0198438
	minimum = 0 (at node 0)
	maximum = 0.3175 (at node 11)
Injected flit rate average = 0.0199375
	minimum = 0.014 (at node 5)
	maximum = 0.027 (at node 7)
Accepted flit rate average= 0.0198438
	minimum = 0 (at node 0)
	maximum = 0.3175 (at node 11)
Injected packet length average = 1
Accepted packet length average = 1
Total in-flight flits = 10 (10 measured)
latency change    = 0.0289524
throughput change = 0.0204724
Class 0:
Packet latency average = 21.0809
	minimum = 7
	maximum = 47
Network latency average = 21.0809
	minimum = 7
	maximum = 47
Slowest packet = 13272
Flit latency average = 21.0636
	minimum = 7
	maximum = 47
Slowest flit = 13272
Fragmentation average = 0
	minimum = 0
	maximum = 0
Injected packet rate average = 0.0199583
	minimum = 0.0153333 (at node 5)
	maximum = 0.0263333 (at node 7)
Accepted packet rate average = 0.0199792
	minimum = 0 (at node 0)
	maximum = 0.319667 (at node 11)
Injected flit rate average = 0.0199583
	minimum = 0.0153333 (at node 5)
	maximum = 0.0263333 (at node 7)
Accepted flit rate average= 0.0199792
	minimum = 0 (at node 0)
	maximum = 0.319667 (at node 11)
Injected packet length average = 1
Accepted packet length average = 1
Total in-flight flits = 6 (6 measured)
latency change    = 0.0135053
throughput change = 0.00677789
Class 0:
Packet latency average = 21.2013
	minimum = 7
	maximum = 55
Network latency average = 21.2013
	minimum = 7
	maximum = 55
Slowest packet = 13446
Flit latency average = 21.1876
	minimum = 7
	maximum = 55
Slowest flit = 13446
Fragmentation average = 0
	minimum = 0
	maximum = 0
Injected packet rate average = 0.0199531
	minimum = 0.01675 (at node 5)
	maximum = 0.026 (at node 7)
Accepted packet rate average = 0.0199844
	minimum = 0 (at node 0)
	maximum = 0.31975 (at node 11)
Injected flit rate average = 0.0199531
	minimum = 0.01675 (at node 5)
	maximum = 0.026 (at node 7)
Accepted flit rate average= 0.0199844
	minimum = 0 (at node 0)
	maximum = 0.31975 (at node 11)
Injected packet length average = 1
Accepted packet length average = 1
Total in-flight flits = 5 (5 measured)
latency change    = 0.00567775
throughput change = 0.00026062
Draining all recorded packets ...
Draining remaining packets ...
Time taken is 7032 cycles
Class 0:
Packet latency average = 21.2761
	minimum = 7
	maximum = 45
Network latency average = 21.2761
	minimum = 7
	maximum = 45
Slowest packet = 13792
Flit latency average = 21.2761
	minimum = 7
	maximum = 45
Slowest flit = 13792
Fragmentation average = 0
	minimum = 0
	maximum = 0
Injected packet rate average = 0.02075
	minimum = 0.014 (at node 7)
	maximum = 0.031 (at node 14)
Accepted packet rate average = 0.020375
	minimum = 0 (at node 0)
	maximum = 0.326 (at node 11)
Injected flit rate average = 0.02075
	minimum = 0.014 (at node 7)
	maximum = 0.031 (at node 14)
Accepted flit rate average= 0.020375
	minimum = 0 (at node 0)
	maximum = 0.326 (at node 11)
Injected packet length average = 1
Accepted packet length average = 1
Total in-flight flits = 6 (0 measured)
latency change    = 1
throughput change = 1
Class 0:
Packet latency average = 21.4365
	minimum = 7
	maximum = 60
Network latency average = 21.4365
	minimum = 7
	maximum = 60
Slowest packet = 14134
Flit latency average = 21.4365
	minimum = 7
	maximum = 60
Slowest flit = 14134
Fragmentation average = 0
	minimum = 0
	maximum = 0
Injected packet rate average = 0.0203125
	minimum = 0.015 (at node 12)
	maximum = 0.0245 (at node 14)
Accepted packet rate average = 0.0201875
	minimum = 0 (at node 0)
	maximum = 0.323 (at node 11)
Injected flit rate average = 0.0203125
	minimum = 0.015 (at node 12)
	maximum = 0.0245 (at node 14)
Accepted flit rate average= 0.0201875
	minimum = 0 (at node 0)
	maximum = 0.323 (at node 11)
Injected packet length average = 1
Accepted packet length average = 1
Total in-flight flits = 4 (0 measured)
latency change    = 0.0074853
throughput change = 0.00928793
Class 0:
Packet latency average = 21.1805
	minimum = 7
	maximum = 48
Network latency average = 21.1805
	minimum = 7
	maximum = 48
Slowest packet = 14708
Flit latency average = 21.1805
	minimum = 7
	maximum = 48
Slowest flit = 14708
Fragmentation average = 0
	minimum = 0
	maximum = 0
Injected packet rate average = 0.0221875
	minimum = 0.013 (at node 12)
	maximum = 0.03 (at node 3)
Accepted packet rate average = 0.0218125
	minimum = 0 (at node 0)
	maximum = 0.349 (at node 11)
Injected flit rate average = 0.0221875
	minimum = 0.013 (at node 12)
	maximum = 0.03 (at node 3)
Accepted flit rate average= 0.0218125
	minimum = 0 (at node 0)
	maximum = 0.349 (at node 11)
Injected packet length average = 1
Accepted packet length average = 1
Total in-flight flits = 10 (0 measured)
latency change    = 0.0120874
throughput change = 0.0744986
Warmed up ...Time used is 3000 cycles
Class 0:
Packet latency average = 20.5649
	minimum = 7
	maximum = 42
Network latency average = 20.5649
	minimum = 7
	maximum = 42
Slowest packet = 14933
Flit latency average = 20.6981
	minimum = 7
	maximum = 42
Slowest flit = 14933
Fragmentation average = 0
	minimum = 0
	maximum = 0
Injected packet rate average = 0.0195
	minimum = 0.015 (at node 10)
	maximum = 0.025 (at node 7)
Accepted packet rate average = 0.019875
	minimum = 0 (at node 0)
	maximum = 0.318 (at node 11)
Injected flit rate average = 0.0195
	minimum = 0.015 (at node 10)
	maximum = 0.025 (at node 7)
Accepted flit rate average= 0.019875
	minimum = 0 (at node 0)
	maximum = 0.318 (at node 11)
Injected packet length average = 1
Accepted packet length average = 1
Total in-flight flits = 4 (4 measured)
latency change    = 0.0299335
throughput change = 0.0974843
Class 0:
Packet latency average = 22.4327
	minimum = 7
	maximum = 75
Network latency average = 22.4327
	minimum = 7
	maximum = 75
Slowest packet = 15264
Flit latency average = 22.468
	minimum = 7
	maximum = 75
Slowest flit = 15264
Fragmentation average = 0
	minimum = 0
	maximum = 0
Injected packet rate average = 0.02075
	minimum = 0.016 (at node 2)
	maximum = 0.026 (at node 15)
Accepted packet rate average = 0.0209688
	minimum = 0 (at node 0)
	maximum = 0.3355 (at node 11)
Injected flit rate average = 0.02075
	minimum = 0.016 (at node 2)
	maximum = 0.026 (at node 15)
Accepted flit rate average= 0.0209688
	minimum = 0 (at node 0)
	maximum = 0.3355 (at node 11)
Injected packet length average = 1
Accepted packet length average = 1
Total in-flight flits = 3 (3 measured)
latency change    = 0.0832599
throughput change = 0.052161
Class 0:
Packet latency average = 21.8591
	minimum = 7
	maximum = 75
Network latency average = 21.8591
	minimum = 7
	maximum = 75
Slowest packet = 15264
Flit latency average = 21.8895
	minimum = 7
	maximum = 75
Slowest flit = 15264
Fragmentation average = 0
	minimum = 0
	maximum = 0
Injected packet rate average = 0.0200833
	minimum = 0.016 (at node 2)
	maximum = 0.0246667 (at node 9)
Accepted packet rate average = 0.0201667
	minimum = 0 (at node 0)
	maximum = 0.322667 (at node 11)
Injected flit rate average = 0.0200833
	minimum = 0.016 (at node 2)
	maximum = 0.0246667 (at node 9)
Accepted flit rate average= 0.0201667
	minimum = 0 (at node 0)
	maximum = 0.322667 (at node 11)
Injected packet length average = 1
Accepted packet length average = 1
Total in-flight flits = 6 (6 measured)
latency change    = 0.0262406
throughput change = 0.0397727
Class 0:
Packet latency average = 21.786
	minimum = 7
	maximum = 75
Network latency average = 21.786
	minimum = 7
	maximum = 75
Slowest packet = 15264
Flit latency average = 21.809
	minimum = 7
	maximum = 75
Slowest flit = 15264
Fragmentation average = 0
	minimum = 0
	maximum = 0
Injected packet rate average = 0.0204063
	minimum = 0.01625 (at node 2)
	maximum = 0.0235 (at node 15)
Accepted packet rate average = 0.0204531
	minimum = 0 (at node 0)
	maximum = 0.32725 (at node 11)
Injected flit rate average = 0.0204063
	minimum = 0.01625 (at node 2)
	maximum = 0.0235 (at node 15)
Accepted flit rate average= 0.0204531
	minimum = 0 (at node 0)
	maximum = 0.32725 (at node 11)
Injected packet length average = 1
Accepted packet length average = 1
Total in-flight flits = 7 (7 measured)
latency change    = 0.00335501
throughput change = 0.0140056
Class 0:
Packet latency average = 21.9292
	minimum = 7
	maximum = 75
Network latency average = 21.9292
	minimum = 7
	maximum = 75
Slowest packet = 15264
Flit latency average = 21.9469
	minimum = 7
	maximum = 75
Slowest flit = 15264
Fragmentation average = 0
	minimum = 0
	maximum = 0
Injected packet rate average = 0.0202
	minimum = 0.0162 (at node 2)
	maximum = 0.0236 (at node 4)
Accepted packet rate average = 0.0202625
	minimum = 0 (at node 0)
	maximum = 0.3242 (at node 11)
Injected flit rate average = 0.0202
	minimum = 0.0162 (at node 2)
	maximum = 0.0236 (at node 4)
Accepted flit rate average= 0.0202625
	minimum = 0 (at node 0)
	maximum = 0.3242 (at node 11)
Injected packet length average = 1
Accepted packet length average = 1
Total in-flight flits = 5 (5 measured)
latency change    = 0.00653225
throughput change = 0.00940777
Draining all recorded packets ...
Draining remaining packets ...
Time taken is 8051 cycles
Class 0:
Packet latency average = 21.8464
	minimum = 7
	maximum = 51
Network latency average = 21.8464
	minimum = 7
	maximum = 51
Slowest packet = 16539
Flit latency average = 21.8464
	minimum = 7
	maximum = 51
Slowest flit = 16539
Fragmentation average = 0
	minimum = 0
	maximum = 0
Injected packet rate average = 0.02125
	minimum = 0.016 (at node 14)
	maximum = 0.031 (at node 4)
Accepted packet rate average = 0.02075
	minimum = 0 (at node 0)
	maximum = 0.332 (at node 11)
Injected flit rate average = 0.02125
	minimum = 0.016 (at node 14)
	maximum = 0.031 (at node 4)
Accepted flit rate average= 0.02075
	minimum = 0 (at node 0)
	maximum = 0.332 (at node 11)
Injected packet length average = 1
Accepted packet length average = 1
Total in-flight flits = 8 (0 measured)
latency change    = 1
throughput change = 1
Class 0:
Packet latency average = 21.4659
	minimum = 7
	maximum = 51
Network latency average = 21.4659
	minimum = 7
	maximum = 51
Slowest packet = 16539
Flit latency average = 21.4659
	minimum = 7
	maximum = 51
Slowest flit = 16539
Fragmentation average = 0
	minimum = 0
	maximum = 0
Injected packet rate average = 0.0203438
	minimum = 0.0165 (at node 1)
	maximum = 0.03 (at node 15)
Accepted packet rate average = 0.0201875
	minimum = 0 (at node 0)
	maximum = 0.323 (at node 11)
Injected flit rate average = 0.0203438
	minimum = 0.0165 (at node 1)
	maximum = 0.03 (at node 15)
Accepted flit rate average= 0.0201875
	minimum = 0 (at node 0)
	maximum = 0.323 (at node 11)
Injected packet length average = 1
Accepted packet length average = 1
Total in-flight flits = 5 (0 measured)
latency change    = 0.017723
throughput change = 0.0278638
Class 0:
Packet latency average = 21.478
	minimum = 7
	maximum = 63
Network latency average = 21.478
	minimum = 7
	maximum = 63
Slowest packet = 17153
Flit latency average = 21.478
	minimum = 7
	maximum = 63
Slowest flit = 17153
Fragmentation average = 0
	minimum = 0
	maximum = 0
Injected packet rate average = 0.0199375
	minimum = 0.009 (at node 10)
	maximum = 0.029 (at node 9)
Accepted packet rate average = 0.019875
	minimum = 0 (at node 0)
	maximum = 0.318 (at node 11)
Injected flit rate average = 0.0199375
	minimum = 0.009 (at node 10)
	maximum = 0.029 (at node 9)
Accepted flit rate average= 0.019875
	minimum = 0 (at node 0)
	maximum = 0.318 (at node 11)
Injected packet length average = 1
Accepted packet length average = 1
Total in-flight flits = 6 (0 measured)
latency change    = 0.000560721
throughput change = 0.0157233
Warmed up ...Time used is 3000 cycles
Class 0:
Packet latency average = 20.8479
	minimum = 7
	maximum = 48
Network latency average = 20.8479
	minimum = 7
	maximum = 48
Slowest packet = 17666
Flit latency average = 20.8889
	minimum = 7
	maximum = 48
Slowest flit = 17666
Fragmentation average = 0
	minimum = 0
	maximum = 0
Injected packet rate average = 0.0195625
	minimum = 0.011 (at node 1)
	maximum = 0.027 (at node 3)
Accepted packet rate average = 0.0196875
	minimum = 0 (at node 0)
	maximum = 0.315 (at node 11)
Injected flit rate average = 0.0195625
	minimum = 0.011 (at node 1)
	maximum = 0.027 (at node 3)
Accepted flit rate average= 0.0196875
	minimum = 0 (at node 0)
	maximum = 0.315 (at node 11)
Injected packet length average = 1
Accepted packet length average = 1
Total in-flight flits = 4 (4 measured)
latency change    = 0.0302232
throughput change = 0.00952381
Class 0:
Packet latency average = 20.6787
	minimum = 7
	maximum = 48
Network latency average = 20.6787
	minimum = 7
	maximum = 48
Slowest packet = 17666
Flit latency average = 20.7003
	minimum = 7
	maximum = 48
Slowest flit = 17666
Fragmentation average = 0
	minimum = 0
	maximum = 0
Injected packet rate average = 0.0200313
	minimum = 0.0135 (at node 1)
	maximum = 0.0245 (at node 13)
Accepted packet rate average = 0.020125
	minimum = 0 (at node 0)
	maximum = 0.322 (at node 11)
Injected flit rate average = 0.0200313
	minimum = 0.0135 (at node 1)
	maximum = 0.0245 (at node 13)
Accepted flit rate average= 0.020125
	minimum = 0 (at node 0)
	maximum = 0.322 (at node 11)
Injected packet length average = 1
Accepted packet length average = 1
Total in-flight flits = 3 (3 measured)
latency change    = 0.00818297
throughput change = 0.0217391
Class 0:
Packet latency average = 20.6292
	minimum = 7
	maximum = 55
Network latency average = 20.6292
	minimum = 7
	maximum = 55
Slowest packet = 18208
Flit latency average = 20.6443
	minimum = 7
	maximum = 55
Slowest flit = 18208
Fragmentation average = 0
	minimum = 0
	maximum = 0
Injected packet rate average = 0.0195833
	minimum = 0.0146667 (at node 1)
	maximum = 0.0256667 (at node 13)
Accepted packet rate average = 0.0195625
	minimum = 0 (at node 0)
	maximum = 0.313 (at node 11)
Injected flit rate average = 0.0195833
	minimum = 0.0146667 (at node 1)
	maximum = 0.0256667 (at node 13)
Accepted flit rate average= 0.0195625
	minimum = 0 (at node 0)
	maximum = 0.313 (at node 11)
Injected packet length average = 1
Accepted packet length average = 1
Total in-flight flits = 7 (7 measured)
latency change    = 0.00240098
throughput change = 0.028754
Draining all recorded packets ...
Draining remaining packets ...
Time taken is 6049 cycles
Class 0:
Packet latency average = 20.7866
	minimum = 7
	maximum = 54
Network latency average = 20.7866
	minimum = 7
	maximum = 54
Slowest packet = 18361
Flit latency average = 20.7866
	minimum = 7
	maximum = 54
Slowest flit = 18361
Fragmentation average = 0
	minimum = 0
	maximum = 0
Injected packet rate average = 0.02
	minimum = 0.014 (at node 0)
	maximum = 0.025 (at node 14)
Accepted packet rate average = 0.019625
	minimum = 0 (at node 0)
	maximum = 0.314 (at node 11)
Injected flit rate average = 0.02
	minimum = 0.014 (at node 0)
	maximum = 0.025 (at node 14)
Accepted flit rate average= 0.019625
	minimum = 0 (at node 0)
	maximum = 0.314 (at node 11)
Injected packet length average = 1
Accepted packet length average = 1
Total in-flight flits = 6 (0 measured)
latency change    = 1
throughput change = 1
Class 0:
Packet latency average = 20.7899
	minimum = 7
	maximum = 54
Network latency average = 20.7899
	minimum = 7
	maximum = 54
Slowest packet = 18361
Flit latency average = 20.7899
	minimum = 7
	maximum = 54
Slowest flit = 18361
Fragmentation average = 0
	minimum = 0
	maximum = 0
Injected packet rate average = 0.0193125
	minimum = 0.013 (at node 0)
	maximum = 0.027 (at node 5)
Accepted packet rate average = 0.0191875
	minimum = 0 (at node 0)
	maximum = 0.307 (at node 11)
Injected flit rate average = 0.0193125
	minimum = 0.013 (at node 0)
	maximum = 0.027 (at node 5)
Accepted flit rate average= 0.0191875
	minimum = 0 (at node 0)
	maximum = 0.307 (at node 11)
Injected packet length average = 1
Accepted packet length average = 1
Total in-flight flits = 4 (0 measured)
latency change    = 0.000157676
throughput change = 0.0228013
Class 0:
Packet latency average = 21.4142
	minimum = 7
	maximum = 52
Network latency average = 21.4142
	minimum = 7
	maximum = 52
Slowest packet = 19055
Flit latency average = 21.4142
	minimum = 7
	maximum = 52
Slowest flit = 19055
Fragmentation average = 0
	minimum = 0
	maximum = 0
Injected packet rate average = 0.019625
	minimum = 0.01 (at node 8)
	maximum = 0.03 (at node 7)
Accepted packet rate average = 0.0193125
	minimum = 0 (at node 0)
	maximum = 0.309 (at node 11)
Injected flit rate average = 0.019625
	minimum = 0.01 (at node 8)
	maximum = 0.03 (at node 7)
Accepted flit rate average= 0.0193125
	minimum = 0 (at node 0)
	maximum = 0.309 (at node 11)
Injected packet length average = 1
Accepted packet length average = 1
Total in-flight flits = 9 (0 measured)
latency change    = 0.0291552
throughput change = 0.00647249
Warmed up ...Time used is 3000 cycles
Class 0:
Packet latency average = 21.8313
	minimum = 7
	maximum = 49
Network latency average = 21.8313
	minimum = 7
	maximum = 49
Slowest packet = 19365
Flit latency average = 21.9642
	minimum = 7
	maximum = 49
Slowest flit = 19365
Fragmentation average = 0
	minimum = 0
	maximum = 0
Injected packet rate average = 0.0206875
	minimum = 0.014 (at node 4)
	maximum = 0.029 (at node 13)
Accepted packet rate average = 0.0209375
	minimum = 0 (at node 0)
	maximum = 0.335 (at node 11)
Injected flit rate average = 0.0206875
	minimum = 0.014 (at node 4)
	maximum = 0.029 (at node 13)
Accepted flit rate average= 0.0209375
	minimum = 0 (at node 0)
	maximum = 0.335 (at node 11)
Injected packet length average = 1
Accepted packet length average = 1
Total in-flight flits = 5 (5 measured)
latency change    = 0.0191033
throughput change = 0.0776119
Class 0:
Packet latency average = 21.4624
	minimum = 7
	maximum = 49
Network latency average = 21.4624
	minimum = 7
	maximum = 49
Slowest packet = 19365
Flit latency average = 21.5363
	minimum = 7
	maximum = 49
Slowest flit = 19365
Fragmentation average = 0
	minimum = 0
	maximum = 0
Injected packet rate average = 0.0201563
	minimum = 0.015 (at node 1)
	maximum = 0.027 (at node 13)
Accepted packet rate average = 0.0202188
	minimum = 0 (at node 0)
	maximum = 0.3235 (at node 11)
Injected flit rate average = 0.0201563
	minimum = 0.015 (at node 1)
	maximum = 0.027 (at node 13)
Accepted flit rate average= 0.0202188
	minimum = 0 (at node 0)
	maximum = 0.3235 (at node 11)
Injected packet length average = 1
Accepted packet length average = 1
Total in-flight flits = 7 (7 measured)
latency change    = 0.0171885
throughput change = 0.0355487
Class 0:
Packet latency average = 21.6353
	minimum = 7
	maximum = 58
Network latency average = 21.6353
	minimum = 7
	maximum = 58
Slowest packet = 20020
Flit latency average = 21.6827
	minimum = 7
	maximum = 58
Slowest flit = 20020
Fragmentation average = 0
	minimum = 0
	maximum = 0
Injected packet rate average = 0.0202917
	minimum = 0.015 (at node 5)
	maximum = 0.025 (at node 12)
Accepted packet rate average = 0.0203542
	minimum = 0 (at node 0)
	maximum = 0.325667 (at node 11)
Injected flit rate average = 0.0202917
	minimum = 0.015 (at node 5)
	maximum = 0.025 (at node 12)
Accepted flit rate average= 0.0203542
	minimum = 0 (at node 0)
	maximum = 0.325667 (at node 11)
Injected packet length average = 1
Accepted packet length average = 1
Total in-flight flits = 6 (6 measured)
latency change    = 0.00799378
throughput change = 0.00665302
Class 0:
Packet latency average = 21.4834
	minimum = 7
	maximum = 58
Network latency average = 21.4834
	minimum = 7
	maximum = 58
Slowest packet = 20020
Flit latency average = 21.5199
	minimum = 7
	maximum = 58
Slowest flit = 20020
Fragmentation average = 0
	minimum = 0
	maximum = 0
Injected packet rate average = 0.0203438
	minimum = 0.01525 (at node 1)
	maximum = 0.0235 (at node 12)
Accepted packet rate average = 0.0204063
	minimum = 0 (at node 0)
	maximum = 0.3265 (at node 11)
Injected flit rate average = 0.0203438
	minimum = 0.01525 (at node 1)
	maximum = 0.0235 (at node 12)
Accepted flit rate average= 0.0204063
	minimum = 0 (at node 0)
	maximum = 0.3265 (at node 11)
Injected packet length average = 1
Accepted packet length average = 1
Total in-flight flits = 5 (5 measured)
latency change    = 0.00707091
throughput change = 0.00255232
Draining all recorded packets ...
Draining remaining packets ...
Time taken is 7046 cycles
Class 0:
Packet latency average = 20.1856
	minimum = 7
	maximum = 41
Network latency average = 20.1856
	minimum = 7
	maximum = 41
Slowest packet = 20784
Flit latency average = 20.1856
	minimum = 7
	maximum = 41
Slowest flit = 20784
Fragmentation average = 0
	minimum = 0
	maximum = 0
Injected packet rate average = 0.01675
	minimum = 0.011 (at node 1)
	maximum = 0.023 (at node 5)
Accepted packet rate average = 0.0165
	minimum = 0 (at node 0)
	maximum = 0.264 (at node 11)
Injected flit rate average = 0.01675
	minimum = 0.011 (at node 1)
	maximum = 0.023 (at node 5)
Accepted flit rate average= 0.0165
	minimum = 0 (at node 0)
	maximum = 0.264 (at node 11)
Injected packet length average = 1
Accepted packet length average = 1
Total in-flight flits = 4 (0 measured)
latency change    = 1
throughput change = 1
Class 0:
Packet latency average = 20.8185
	minimum = 7
	maximum = 59
Network latency average = 20.8185
	minimum = 7
	maximum = 59
Slowest packet = 21116
Flit latency average = 20.8185
	minimum = 7
	maximum = 59
Slowest flit = 21116
Fragmentation average = 0
	minimum = 0
	maximum = 0
Injected packet rate average = 0.0184375
	minimum = 0.013 (at node 12)
	maximum = 0.023 (at node 7)
Accepted packet rate average = 0.01825
	minimum = 0 (at node 0)
	maximum = 0.292 (at node 11)
Injected flit rate average = 0.0184375
	minimum = 0.013 (at node 12)
	maximum = 0.023 (at node 7)
Accepted flit rate average= 0.01825
	minimum = 0 (at node 0)
	maximum = 0.292 (at node 11)
Injected packet length average = 1
Accepted packet length average = 1
Total in-flight flits = 6 (0 measured)
latency change    = 0.0304002
throughput change = 0.0958904
Class 0:
Packet latency average = 20.3817
	minimum = 7
	maximum = 55
Network latency average = 20.3817
	minimum = 7
	maximum = 55
Slowest packet = 21334
Flit latency average = 20.3817
	minimum = 7
	maximum = 55
Slowest flit = 21334
Fragmentation average = 0
	minimum = 0
	maximum = 0
Injected packet rate average = 0.02
	minimum = 0.013 (at node 14)
	maximum = 0.026 (at node 15)
Accepted packet rate average = 0.0198125
	minimum = 0 (at node 0)
	maximum = 0.317 (at node 11)
Injected flit rate average = 0.02
	minimum = 0.013 (at node 14)
	maximum = 0.026 (at node 15)
Accepted flit rate average= 0.0198125
	minimum = 0 (at node 0)
	maximum = 0.317 (at node 11)
Injected packet length average = 1
Accepted packet length average = 1
Total in-flight flits = 9 (0 measured)
latency change    = 0.0214305
throughput change = 0.0788644
Warmed up ...Time used is 3000 cycles
Class 0:
Packet latency average = 21.1217
	minimum = 7
	maximum = 56
Network latency average = 21.1217
	minimum = 7
	maximum = 56
Slowest packet = 21751
Flit latency average = 21.1356
	minimum = 7
	maximum = 56
Slowest flit = 21751
Fragmentation average = 0
	minimum = 0
	maximum = 0
Injected packet rate average = 0.0223125
	minimum = 0.015 (at node 0)
	maximum = 0.032 (at node 11)
Accepted packet rate average = 0.022125
	minimum = 0 (at node 0)
	maximum = 0.354 (at node 11)
Injected flit rate average = 0.0223125
	minimum = 0.015 (at node 0)
	maximum = 0.032 (at node 11)
Accepted flit rate average= 0.022125
	minimum = 0 (at node 0)
	maximum = 0.354 (at node 11)
Injected packet length average = 1
Accepted packet length average = 1
Total in-flight flits = 12 (12 measured)
latency change    = 0.0350367
throughput change = 0.10452
Class 0:
Packet latency average = 21.3506
	minimum = 7
	maximum = 56
Network latency average = 21.3506
	minimum = 7
	maximum = 56
Slowest packet = 21751
Flit latency average = 21.3547
	minimum = 7
	maximum = 56
Slowest flit = 21751
Fragmentation average = 0
	minimum = 0
	maximum = 0
Injected packet rate average = 0.0214375
	minimum = 0.017 (at node 3)
	maximum = 0.0275 (at node 11)
Accepted packet rate average = 0.0214063
	minimum = 0 (at node 0)
	maximum = 0.3425 (at node 11)
Injected flit rate average = 0.0214375
	minimum = 0.017 (at node 3)
	maximum = 0.0275 (at node 11)
Accepted flit rate average= 0.0214063
	minimum = 0 (at node 0)
	maximum = 0.3425 (at node 11)
Injected packet length average = 1
Accepted packet length average = 1
Total in-flight flits = 10 (10 measured)
latency change    = 0.0107188
throughput change = 0.0335766
Class 0:
Packet latency average = 21.5487
	minimum = 7
	maximum = 56
Network latency average = 21.5487
	minimum = 7
	maximum = 56
Slowest packet = 21751
Flit latency average = 21.5497
	minimum = 7
	maximum = 56
Slowest flit = 21751
Fragmentation average = 0
	minimum = 0
	maximum = 0
Injected packet rate average = 0.0212708
	minimum = 0.0173333 (at node 10)
	maximum = 0.0256667 (at node 8)
Accepted packet rate average = 0.021375
	minimum = 0 (at node 0)
	maximum = 0.342 (at node 11)
Injected flit rate average = 0.0212708
	minimum = 0.0173333 (at node 10)
	maximum = 0.0256667 (at node 8)
Accepted flit rate average= 0.021375
	minimum = 0 (at node 0)
	maximum = 0.342 (at node 11)
Injected packet length average = 1
Accepted packet length average = 1
Total in-flight flits = 4 (4 measured)
latency change    = 0.00919225
throughput change = 0.00146199
Class 0:
Packet latency average = 21.678
	minimum = 7
	maximum = 58
Network latency average = 21.678
	minimum = 7
	maximum = 58
Slowest packet = 22624
Flit latency average = 21.6779
	minimum = 7
	maximum = 58
Slowest flit = 22624
Fragmentation average = 0
	minimum = 0
	maximum = 0
Injected packet rate average = 0.02125
	minimum = 0.01625 (at node 10)
	maximum = 0.0255 (at node 8)
Accepted packet rate average = 0.0213438
	minimum = 0 (at node 0)
	maximum = 0.3415 (at node 11)
Injected flit rate average = 0.02125
	minimum = 0.01625 (at node 10)
	maximum = 0.0255 (at node 8)
Accepted flit rate average= 0.0213438
	minimum = 0 (at node 0)
	maximum = 0.3415 (at node 11)
Injected packet length average = 1
Accepted packet length average = 1
Total in-flight flits = 3 (3 measured)
latency change    = 0.00596428
throughput change = 0.00146413
Draining all recorded packets ...
Draining remaining packets ...
Time taken is 7036 cycles
Class 0:
Packet latency average = 22.2739
	minimum = 7
	maximum = 66
Network latency average = 22.2739
	minimum = 7
	maximum = 66
Slowest packet = 22895
Flit latency average = 22.2739
	minimum = 7
	maximum = 66
Slowest flit = 22895
Fragmentation average = 0
	minimum = 0
	maximum = 0
Injected packet rate average = 0.01925
	minimum = 0.011 (at node 3)
	maximum = 0.027 (at node 5)
Accepted packet rate average = 0.0189375
	minimum = 0 (at node 0)
	maximum = 0.303 (at node 11)
Injected flit rate average = 0.01925
	minimum = 0.011 (at node 3)
	maximum = 0.027 (at node 5)
Accepted flit rate average= 0.0189375
	minimum = 0 (at node 0)
	maximum = 0.303 (at node 11)
Injected packet length average = 1
Accepted packet length average = 1
Total in-flight flits = 5 (0 measured)
latency change    = 1
throughput change = 1
Class 0:
Packet latency average = 21.4073
	minimum = 7
	maximum = 66
Network latency average = 21.4073
	minimum = 7
	maximum = 66
Slowest packet = 22895
Flit latency average = 21.4073
	minimum = 7
	maximum = 66
Slowest flit = 22895
Fragmentation average = 0
	minimum = 0
	maximum = 0
Injected packet rate average = 0.0189062
	minimum = 0.0145 (at node 11)
	maximum = 0.024 (at node 12)
Accepted packet rate average = 0.0187187
	minimum = 0 (at node 0)
	maximum = 0.2995 (at node 11)
Injected flit rate average = 0.0189062
	minimum = 0.0145 (at node 11)
	maximum = 0.024 (at node 12)
Accepted flit rate average= 0.0187187
	minimum = 0 (at node 0)
	maximum = 0.2995 (at node 11)
Injected packet length average = 1
Accepted packet length average = 1
Total in-flight flits = 6 (0 measured)
latency change    = 0.0404806
throughput change = 0.0116861
Class 0:
Packet latency average = 22.0688
	minimum = 7
	maximum = 56
Network latency average = 22.0688
	minimum = 7
	maximum = 56
Slowest packet = 23584
Flit latency average = 22.0688
	minimum = 7
	maximum = 56
Slowest flit = 23584
Fragmentation average = 0
	minimum = 0
	maximum = 0
Injected packet rate average = 0.0200625
	minimum = 0.01 (at node 1)
	maximum = 0.028 (at node 12)
Accepted packet rate average = 0.02
	minimum = 0 (at node 0)
	maximum = 0.32 (at node 11)
Injected flit rate average = 0.0200625
	minimum = 0.01 (at node 1)
	maximum = 0.028 (at node 12)
Accepted flit rate average= 0.02
	minimum = 0 (at node 0)
	maximum = 0.32 (at node 11)
Injected packet length average = 1
Accepted packet length average = 1
Total in-flight flits = 7 (0 measured)
latency change    = 0.0299702
throughput change = 0.0640625
Warmed up ...Time used is 3000 cycles
Class 0:
Packet latency average = 20.8436
	minimum = 7
	maximum = 49
Network latency average = 20.8436
	minimum = 7
	maximum = 49
Slowest packet = 24019
Flit latency average = 20.8662
	minimum = 7
	maximum = 49
Slowest flit = 24019
Fragmentation average = 0
	minimum = 0
	maximum = 0
Injected packet rate average = 0.0195
	minimum = 0.014 (at node 11)
	maximum = 0.027 (at node 6)
Accepted packet rate average = 0.019625
	minimum = 0 (at node 0)
	maximum = 0.314 (at node 11)
Injected flit rate average = 0.0195
	minimum = 0.014 (at node 11)
	maximum = 0.027 (at node 6)
Accepted flit rate average= 0.019625
	minimum = 0 (at node 0)
	maximum = 0.314 (at node 11)
Injected packet length average = 1
Accepted packet length average = 1
Total in-flight flits = 5 (5 measured)
latency change    = 0.0587758
throughput change = 0.0191083
Class 0:
Packet latency average = 21.3037
	minimum = 7
	maximum = 60
Network latency average = 21.3037
	minimum = 7
	maximum = 60
Slowest packet = 24175
Flit latency average = 21.3096
	minimum = 7
	maximum = 60
Slowest flit = 24175
Fragmentation average = 0
	minimum = 0
	maximum = 0
Injected packet rate average = 0.020625
	minimum = 0.0175 (at node 1)
	maximum = 0.025 (at node 6)
Accepted packet rate average = 0.0205938
	minimum = 0 (at node 0)
	maximum = 0.3295 (at node 11)
Injected flit rate average = 0.020625
	minimum = 0.0175 (at node 1)
	maximum = 0.025 (at node 6)
Accepted flit rate average= 0.0205938
	minimum = 0 (at node 0)
	maximum = 0.3295 (at node 11)
Injected packet length average = 1
Accepted packet length average = 1
Total in-flight flits = 8 (8 measured)
latency change    = 0.0215941
throughput change = 0.047041
Class 0:
Packet latency average = 21.0445
	minimum = 7
	maximum = 60
Network latency average = 21.0445
	minimum = 7
	maximum = 60
Slowest packet = 24175
Flit latency average = 21.0505
	minimum = 7
	maximum = 60
Slowest flit = 24175
Fragmentation average = 0
	minimum = 0
	maximum = 0
Injected packet rate average = 0.0197292
	minimum = 0.0146667 (at node 8)
	maximum = 0.0246667 (at node 6)
Accepted packet rate average = 0.0198125
	minimum = 0 (at node 0)
	maximum = 0.317 (at node 11)
Injected flit rate average = 0.0197292
	minimum = 0.0146667 (at node 8)
	maximum = 0.0246667 (at node 6)
Accepted flit rate average= 0.0198125
	minimum = 0 (at node 0)
	maximum = 0.317 (at node 11)
Injected packet length average = 1
Accepted packet length average = 1
Total in-flight flits = 3 (3 measured)
latency change    = 0.0123163
throughput change = 0.0394322
Class 0:
Packet latency average = 21.0822
	minimum = 7
	maximum = 60
Network latency average = 21.0822
	minimum = 7
	maximum = 60
Slowest packet = 24175
Flit latency average = 21.0865
	minimum = 7
	maximum = 60
Slowest flit = 24175
Fragmentation average = 0
	minimum = 0
	maximum = 0
Injected packet rate average = 0.019875
	minimum = 0.0155 (at node 8)
	maximum = 0.0235 (at node 6)
Accepted packet rate average = 0.019875
	minimum = 0 (at node 0)
	maximum = 0.318 (at node 11)
Injected flit rate average = 0.019875
	minimum = 0.0155 (at node 8)
	maximum = 0.0235 (at node 6)
Accepted flit rate average= 0.019875
	minimum = 0 (at node 0)
	maximum = 0.318 (at node 11)
Injected packet length average = 1
Accepted packet length average = 1
Total in-flight flits = 7 (7 measured)
latency change    = 0.00178928
throughput change = 0.00314465
Draining all recorded packets ...
Draining remaining packets ...
Time taken is 7047 cycles
Class 0:
Packet latency average = 21.0906
	minimum = 7
	maximum = 58
Network latency average = 21.0906
	minimum = 7
	maximum = 58
Slowest packet = 25260
Flit latency average = 21.0906
	minimum = 7
	maximum = 58
Slowest flit = 25260
Fragmentation average = 0
	minimum = 0
	maximum = 0
Injected packet rate average = 0.0211875
	minimum = 0.015 (at node 12)
	maximum = 0.029 (at node 15)
Accepted packet rate average = 0.0206875
	minimum = 0 (at node 0)
	maximum = 0.331 (at node 11)
Injected flit rate average = 0.0211875
	minimum = 0.015 (at node 12)
	maximum = 0.029 (at node 15)
Accepted flit rate average= 0.0206875
	minimum = 0 (at node 0)
	maximum = 0.331 (at node 11)
Injected packet length average = 1
Accepted packet length average = 1
Total in-flight flits = 8 (0 measured)
latency change    = 1
throughput change = 1
Class 0:
Packet latency average = 21.4106
	minimum = 7
	maximum = 58
Network latency average = 21.4106
	minimum = 7
	maximum = 58
Slowest packet = 25260
Flit latency average = 21.4106
	minimum = 7
	maximum = 58
Slowest flit = 25260
Fragmentation average = 0
	minimum = 0
	maximum = 0
Injected packet rate average = 0.0209063
	minimum = 0.018 (at node 5)
	maximum = 0.0245 (at node 6)
Accepted packet rate average = 0.020625
	minimum = 0 (at node 0)
	maximum = 0.33 (at node 11)
Injected flit rate average = 0.0209063
	minimum = 0.018 (at node 5)
	maximum = 0.0245 (at node 6)
Accepted flit rate average= 0.020625
	minimum = 0 (at node 0)
	maximum = 0.33 (at node 11)
Injected packet length average = 1
Accepted packet length average = 1
Total in-flight flits = 9 (0 measured)
latency change    = 0.0149445
throughput change = 0.0030303
Class 0:
Packet latency average = 22.7333
	minimum = 7
	maximum = 69
Network latency average = 22.7333
	minimum = 7
	maximum = 69
Slowest packet = 25894
Flit latency average = 22.7333
	minimum = 7
	maximum = 69
Slowest flit = 25894
Fragmentation average = 0
	minimum = 0
	maximum = 0
Injected packet rate average = 0.0221875
	minimum = 0.011 (at node 1)
	maximum = 0.036 (at node 12)
Accepted packet rate average = 0.0225
	minimum = 0 (at node 0)
	maximum = 0.36 (at node 11)
Injected flit rate average = 0.0221875
	minimum = 0.011 (at node 1)
	maximum = 0.036 (at node 12)
Accepted flit rate average= 0.0225
	minimum = 0 (at node 0)
	maximum = 0.36 (at node 11)
Injected packet length average = 1
Accepted packet length average = 1
Total in-flight flits = 4 (0 measured)
latency change    = 0.0581845
throughput change = 0.0833333
Warmed up ...Time used is 3000 cycles
Class 0:
Packet latency average = 20.8814
	minimum = 7
	maximum = 38
Network latency average = 20.8814
	minimum = 7
	maximum = 38
Slowest packet = 26096
Flit latency average = 20.8997
	minimum = 7
	maximum = 38
Slowest flit = 26096
Fragmentation average = 0
	minimum = 0
	maximum = 0
Injected packet rate average = 0.0188125
	minimum = 0.014 (at node 3)
	maximum = 0.025 (at node 12)
Accepted packet rate average = 0.0186875
	minimum = 0 (at node 0)
	maximum = 0.299 (at node 11)
Injected flit rate average = 0.0188125
	minimum = 0.014 (at node 3)
	maximum = 0.025 (at node 12)
Accepted flit rate average= 0.0186875
	minimum = 0 (at node 0)
	maximum = 0.299 (at node 11)
Injected packet length average = 1
Accepted packet length average = 1
Total in-flight flits = 6 (6 measured)
latency change    = 0.0886905
throughput change = 0.204013
Class 0:
Packet latency average = 21.3567
	minimum = 7
	maximum = 61
Network latency average = 21.3567
	minimum = 7
	maximum = 61
Slowest packet = 26625
Flit latency average = 21.3622
	minimum = 7
	maximum = 61
Slowest flit = 26625
Fragmentation average = 0
	minimum = 0
	maximum = 0
Injected packet rate average = 0.0204063
	minimum = 0.0175 (at node 2)
	maximum = 0.0235 (at node 13)
Accepted packet rate average = 0.0201875
	minimum = 0 (at node 0)
	maximum = 0.323 (at node 11)
Injected flit rate average = 0.0204063
	minimum = 0.0175 (at node 2)
	maximum = 0.0235 (at node 13)
Accepted flit rate average= 0.0201875
	minimum = 0 (at node 0)
	maximum = 0.323 (at node 11)
Injected packet length average = 1
Accepted packet length average = 1
Total in-flight flits = 11 (11 measured)
latency change    = 0.0222573
throughput change = 0.0743034
Class 0:
Packet latency average = 21.3002
	minimum = 7
	maximum = 61
Network latency average = 21.3002
	minimum = 7
	maximum = 61
Slowest packet = 26625
Flit latency average = 21.3042
	minimum = 7
	maximum = 61
Slowest flit = 26625
Fragmentation average = 0
	minimum = 0
	maximum = 0
Injected packet rate average = 0.0201458
	minimum = 0.0166667 (at node 15)
	maximum = 0.0253333 (at node 13)
Accepted packet rate average = 0.02
	minimum = 0 (at node 0)
	maximum = 0.32 (at node 11)
Injected flit rate average = 0.0201458
	minimum = 0.0166667 (at node 15)
	maximum = 0.0253333 (at node 13)
Accepted flit rate average= 0.02
	minimum = 0 (at node 0)
	maximum = 0.32 (at node 11)
Injected packet length average = 1
Accepted packet length average = 1
Total in-flight flits = 11 (11 measured)
latency change    = 0.00265202
throughput change = 0.009375
Class 0:
Packet latency average = 21.4428
	minimum = 7
	maximum = 61
Network latency average = 21.4428
	minimum = 7
	maximum = 61
Slowest packet = 26625
Flit latency average = 21.4453
	minimum = 7
	maximum = 61
Slowest flit = 26625
Fragmentation average = 0
	minimum = 0
	maximum = 0
Injected packet rate average = 0.0202344
	minimum = 0.018 (at node 2)
	maximum = 0.02475 (at node 13)
Accepted packet rate average = 0.0201406
	minimum = 0 (at node 0)
	maximum = 0.32225 (at node 11)
Injected flit rate average = 0.0202344
	minimum = 0.018 (at node 2)
	maximum = 0.02475 (at node 13)
Accepted flit rate average= 0.0201406
	minimum = 0 (at node 0)
	maximum = 0.32225 (at node 11)
Injected packet length average = 1
Accepted packet length average = 1
Total in-flight flits = 10 (10 measured)
latency change    = 0.00664989
throughput change = 0.00698216
Class 0:
Packet latency average = 21.5449
	minimum = 7
	maximum = 65
Network latency average = 21.5449
	minimum = 7
	maximum = 65
Slowest packet = 27362
Flit latency average = 21.5466
	minimum = 7
	maximum = 65
Slowest flit = 27362
Fragmentation average = 0
	minimum = 0
	maximum = 0
Injected packet rate average = 0.0205125
	minimum = 0.0182 (at node 15)
	maximum = 0.0262 (at node 13)
Accepted packet rate average = 0.0205125
	minimum = 0 (at node 0)
	maximum = 0.3282 (at node 11)
Injected flit rate average = 0.0205125
	minimum = 0.0182 (at node 15)
	maximum = 0.0262 (at node 13)
Accepted flit rate average= 0.0205125
	minimum = 0 (at node 0)
	maximum = 0.3282 (at node 11)
Injected packet length average = 1
Accepted packet length average = 1
Total in-flight flits = 4 (4 measured)
latency change    = 0.00473883
throughput change = 0.0181292
Draining all recorded packets ...
Draining remaining packets ...
Time taken is 8037 cycles
Class 0:
Packet latency average = 22.3797
	minimum = 7
	maximum = 58
Network latency average = 22.3797
	minimum = 7
	maximum = 58
Slowest packet = 27721
Flit latency average = 22.3797
	minimum = 7
	maximum = 58
Slowest flit = 27721
Fragmentation average = 0
	minimum = 0
	maximum = 0
Injected packet rate average = 0.0221875
	minimum = 0.014 (at node 10)
	maximum = 0.032 (at node 13)
Accepted packet rate average = 0.0215625
	minimum = 0 (at node 0)
	maximum = 0.345 (at node 11)
Injected flit rate average = 0.0221875
	minimum = 0.014 (at node 10)
	maximum = 0.032 (at node 13)
Accepted flit rate average= 0.0215625
	minimum = 0 (at node 0)
	maximum = 0.345 (at node 11)
Injected packet length average = 1
Accepted packet length average = 1
Total in-flight flits = 10 (0 measured)
latency change    = 1
throughput change = 1
Class 0:
Packet latency average = 22.3635
	minimum = 7
	maximum = 58
Network latency average = 22.3635
	minimum = 7
	maximum = 58
Slowest packet = 27721
Flit latency average = 22.3635
	minimum = 7
	maximum = 58
Slowest flit = 27721
Fragmentation average = 0
	minimum = 0
	maximum = 0
Injected packet rate average = 0.0209688
	minimum = 0.0155 (at node 7)
	maximum = 0.0275 (at node 13)
Accepted packet rate average = 0.0207188
	minimum = 0 (at node 0)
	maximum = 0.3315 (at node 11)
Injected flit rate average = 0.0209688
	minimum = 0.0155 (at node 7)
	maximum = 0.0275 (at node 13)
Accepted flit rate average= 0.0207188
	minimum = 0 (at node 0)
	maximum = 0.3315 (at node 11)
Injected packet length average = 1
Accepted packet length average = 1
Total in-flight flits = 8 (0 measured)
latency change    = 0.000724882
throughput change = 0.040724
Class 0:
Packet latency average = 20.724
	minimum = 7
	maximum = 42
Network latency average = 20.724
	minimum = 7
	maximum = 42
Slowest packet = 28412
Flit latency average = 20.724
	minimum = 7
	maximum = 42
Slowest flit = 28412
Fragmentation average = 0
	minimum = 0
	maximum = 0
Injected packet rate average = 0.01925
	minimum = 0.012 (at node 11)
	maximum = 0.025 (at node 5)
Accepted packet rate average = 0.01925
	minimum = 0 (at node 0)
	maximum = 0.308 (at node 11)
Injected flit rate average = 0.01925
	minimum = 0.012 (at node 11)
	maximum = 0.025 (at node 5)
Accepted flit rate average= 0.01925
	minimum = 0 (at node 0)
	maximum = 0.308 (at node 11)
Injected packet length average = 1
Accepted packet length average = 1
Total in-flight flits = 8 (0 measured)
latency change    = 0.0791098
throughput change = 0.0762987
Warmed up ...Time used is 3000 cycles
Class 0:
Packet latency average = 22.3363
	minimum = 7
	maximum = 68
Network latency average = 22.3363
	minimum = 7
	maximum = 68
Slowest packet = 28826
Flit latency average = 22.3808
	minimum = 7
	maximum = 68
Slowest flit = 28826
Fragmentation average = 0
	minimum = 0
	maximum = 0
Injected packet rate average = 0.0215625
	minimum = 0.016 (at node 1)
	maximum = 0.028 (at node 7)
Accepted packet rate average = 0.0215
	minimum = 0 (at node 0)
	maximum = 0.344 (at node 11)
Injected flit rate average = 0.0215625
	minimum = 0.016 (at node 1)
	maximum = 0.028 (at node 7)
Accepted flit rate average= 0.0215
	minimum = 0 (at node 0)
	maximum = 0.344 (at node 11)
Injected packet length average = 1
Accepted packet length average = 1
Total in-flight flits = 9 (9 measured)
latency change    = 0.0721822
throughput change = 0.104651
Class 0:
Packet latency average = 21.5717
	minimum = 7
	maximum = 68
Network latency average = 21.5717
	minimum = 7
	maximum = 68
Slowest packet = 28826
Flit latency average = 21.605
	minimum = 7
	maximum = 68
Slowest flit = 28826
Fragmentation average = 0
	minimum = 0
	maximum = 0
Injected packet rate average = 0.02
	minimum = 0.014 (at node 12)
	maximum = 0.025 (at node 8)
Accepted packet rate average = 0.0200938
	minimum = 0 (at node 0)
	maximum = 0.3215 (at node 11)
Injected flit rate average = 0.02
	minimum = 0.014 (at node 12)
	maximum = 0.025 (at node 8)
Accepted flit rate average= 0.0200938
	minimum = 0 (at node 0)
	maximum = 0.3215 (at node 11)
Injected packet length average = 1
Accepted packet length average = 1
Total in-flight flits = 5 (5 measured)
latency change    = 0.0354473
throughput change = 0.0699844
Class 0:
Packet latency average = 21.3983
	minimum = 7
	maximum = 68
Network latency average = 21.3983
	minimum = 7
	maximum = 68
Slowest packet = 28826
Flit latency average = 21.4222
	minimum = 7
	maximum = 68
Slowest flit = 28826
Fragmentation average = 0
	minimum = 0
	maximum = 0
Injected packet rate average = 0.0198958
	minimum = 0.015 (at node 12)
	maximum = 0.0266667 (at node 8)
Accepted packet rate average = 0.0199375
	minimum = 0 (at node 0)
	maximum = 0.319 (at node 11)
Injected flit rate average = 0.0198958
	minimum = 0.015 (at node 12)
	maximum = 0.0266667 (at node 8)
Accepted flit rate average= 0.0199375
	minimum = 0 (at node 0)
	maximum = 0.319 (at node 11)
Injected packet length average = 1
Accepted packet length average = 1
Total in-flight flits = 6 (6 measured)
latency change    = 0.00810062
throughput change = 0.00783699
Class 0:
Packet latency average = 21.5712
	minimum = 7
	maximum = 68
Network latency average = 21.5712
	minimum = 7
	maximum = 68
Slowest packet = 28826
Flit latency average = 21.5878
	minimum = 7
	maximum = 68
Slowest flit = 28826
Fragmentation average = 0
	minimum = 0
	maximum = 0
Injected packet rate average = 0.0201875
	minimum = 0.01675 (at node 6)
	maximum = 0.023 (at node 8)
Accepted packet rate average = 0.0202031
	minimum = 0 (at node 0)
	maximum = 0.32325 (at node 11)
Injected flit rate average = 0.0201875
	minimum = 0.01675 (at node 6)
	maximum = 0.023 (at node 8)
Accepted flit rate average= 0.0202031
	minimum = 0 (at node 0)
	maximum = 0.32325 (at node 11)
Injected packet length average = 1
Accepted packet length average = 1
Total in-flight flits = 7 (7 measured)
[...]
	minimum = 7
	maximum = 43
Slowest packet = 219094
Flit latency average = 20.5884
	minimum = 7
	maximum = 43
Slowest flit = 219094
Fragmentation average = 0
	minimum = 0
	maximum = 0
Injected packet rate average = 0.0194062
	minimum = 0.015 (at node 12)
	maximum = 0.025 (at node 10)
Accepted packet rate average = 0.0194375
	minimum = 0 (at node 0)
	maximum = 0.311 (at node 11)
Injected flit rate average = 0.0194062
	minimum = 0.015 (at node 12)
	maximum = 0.025 (at node 10)
Accepted flit rate average= 0.0194375
	minimum = 0 (at node 0)
	maximum = 0.311 (at node 11)
Injected packet length average = 1
Accepted packet length average = 1
Total in-flight flits = 3 (3 measured)
latency change    = 0.0126278
throughput change = 0.0450161
Class 0:
Packet latency average = 20.657
	minimum = 7
	maximum = 43
Network latency average = 20.657
	minimum = 7
	maximum = 43
Slowest packet = 219094
Flit latency average = 20.6574
	minimum = 7
	maximum = 43
Slowest flit = 219094
Fragmentation average = 0
	minimum = 0
	maximum = 0
Injected packet rate average = 0.0195
	minimum = 0.015 (at node 8)
	maximum = 0.025 (at node 10)
Accepted packet rate average = 0.0194583
	minimum = 0 (at node 0)
	maximum = 0.311333 (at node 11)
Injected flit rate average = 0.0195
	minimum = 0.015 (at node 8)
	maximum = 0.025 (at node 10)
Accepted flit rate average= 0.0194583
	minimum = 0 (at node 0)
	maximum = 0.311333 (at node 11)
Injected packet length average = 1
Accepted packet length average = 1
Total in-flight flits = 6 (6 measured)
latency change    = 0.00336983
throughput change = 0.00107066
Draining all recorded packets ...
Draining remaining packets ...
Time taken is 6037 cycles
Class 0:
Packet latency average = 21.2978
	minimum = 7
	maximum = 45
Network latency average = 21.2978
	minimum = 7
	maximum = 45
Slowest packet = 220053
Flit latency average = 21.2978
	minimum = 7
	maximum = 45
Slowest flit = 220053
Fragmentation average = 0
	minimum = 0
	maximum = 0
Injected packet rate average = 0.020125
	minimum = 0.012 (at node 7)
	maximum = 0.028 (at node 15)
Accepted packet rate average = 0.0199375
	minimum = 0 (at node 0)
	maximum = 0.319 (at node 11)
Injected flit rate average = 0.020125
	minimum = 0.012 (at node 7)
	maximum = 0.028 (at node 15)
Accepted flit rate average= 0.0199375
	minimum = 0 (at node 0)
	maximum = 0.319 (at node 11)
Injected packet length average = 1
Accepted packet length average = 1
Total in-flight flits = 3 (0 measured)
latency change    = 1
throughput change = 1
Class 0:
Packet latency average = 21.5355
	minimum = 7
	maximum = 45
Network latency average = 21.5355
	minimum = 7
	maximum = 45
Slowest packet = 220053
Flit latency average = 21.5355
	minimum = 7
	maximum = 45
Slowest flit = 220053
Fragmentation average = 0
	minimum = 0
	maximum = 0
Injected packet rate average = 0.01975
	minimum = 0.0155 (at node 6)
	maximum = 0.0255 (at node 1)
Accepted packet rate average = 0.019375
	minimum = 0 (at node 0)
	maximum = 0.31 (at node 11)
Injected flit rate average = 0.01975
	minimum = 0.0155 (at node 6)
	maximum = 0.0255 (at node 1)
Accepted flit rate average= 0.019375
	minimum = 0 (at node 0)
	maximum = 0.31 (at node 11)
Injected packet length average = 1
Accepted packet length average = 1
Total in-flight flits = 12 (0 measured)
latency change    = 0.0110366
throughput change = 0.0290323
Class 0:
Packet latency average = 21.6431
	minimum = 7
	maximum = 69
Network latency average = 21.6431
	minimum = 7
	maximum = 69
Slowest packet = 220626
Flit latency average = 21.6431
	minimum = 7
	maximum = 69
Slowest flit = 220626
Fragmentation average = 0
	minimum = 0
	maximum = 0
Injected packet rate average = 0.0209375
	minimum = 0.012 (at node 3)
	maximum = 0.028 (at node 10)
Accepted packet rate average = 0.0211875
	minimum = 0 (at node 0)
	maximum = 0.339 (at node 11)
Injected flit rate average = 0.0209375
	minimum = 0.012 (at node 3)
	maximum = 0.028 (at node 10)
Accepted flit rate average= 0.0211875
	minimum = 0 (at node 0)
	maximum = 0.339 (at node 11)
Injected packet length average = 1
Accepted packet length average = 1
Total in-flight flits = 8 (0 measured)
latency change    = 0.00497083
throughput change = 0.0855457
Warmed up ...Time used is 3000 cycles
Class 0:
Packet latency average = 21.5281
	minimum = 7
	maximum = 85
Network latency average = 21.5281
	minimum = 7
	maximum = 85
Slowest packet = 221172
Flit latency average = 21.6067
	minimum = 7
	maximum = 85
Slowest flit = 221172
Fragmentation average = 0
	minimum = 0
	maximum = 0
Injected packet rate average = 0.0205
	minimum = 0.012 (at node 0)
	maximum = 0.031 (at node 9)
Accepted packet rate average = 0.0205
	minimum = 0 (at node 0)
	maximum = 0.328 (at node 11)
Injected flit rate average = 0.0205
	minimum = 0.012 (at node 0)
	maximum = 0.031 (at node 9)
Accepted flit rate average= 0.0205
	minimum = 0 (at node 0)
	maximum = 0.328 (at node 11)
Injected packet length average = 1
Accepted packet length average = 1
Total in-flight flits = 8 (8 measured)
latency change    = 0.00533919
throughput change = 0.0335366
Class 0:
Packet latency average = 21.609
	minimum = 7
	maximum = 85
Network latency average = 21.609
	minimum = 7
	maximum = 85
Slowest packet = 221172
Flit latency average = 21.6487
	minimum = 7
	maximum = 85
Slowest flit = 221172
Fragmentation average = 0
	minimum = 0
	maximum = 0
Injected packet rate average = 0.0196563
	minimum = 0.0145 (at node 12)
	maximum = 0.026 (at node 9)
Accepted packet rate average = 0.01975
	minimum = 0 (at node 0)
	maximum = 0.316 (at node 11)
Injected flit rate average = 0.0196563
	minimum = 0.0145 (at node 12)
	maximum = 0.026 (at node 9)
Accepted flit rate average= 0.01975
	minimum = 0 (at node 0)
	maximum = 0.316 (at node 11)
Injected packet length average = 1
Accepted packet length average = 1
Total in-flight flits = 5 (5 measured)
latency change    = 0.00374147
throughput change = 0.0379747
Class 0:
Packet latency average = 21.5292
	minimum = 7
	maximum = 85
Network latency average = 21.5292
	minimum = 7
	maximum = 85
Slowest packet = 221172
Flit latency average = 21.5563
	minimum = 7
	maximum = 85
Slowest flit = 221172
Fragmentation average = 0
	minimum = 0
	maximum = 0
Injected packet rate average = 0.0197292
	minimum = 0.017 (at node 11)
	maximum = 0.023 (at node 3)
Accepted packet rate average = 0.0198125
	minimum = 0 (at node 0)
	maximum = 0.317 (at node 11)
Injected flit rate average = 0.0197292
	minimum = 0.017 (at node 11)
	maximum = 0.023 (at node 3)
Accepted flit rate average= 0.0198125
	minimum = 0 (at node 0)
	maximum = 0.317 (at node 11)
Injected packet length average = 1
Accepted packet length average = 1
Total in-flight flits = 4 (4 measured)
latency change    = 0.00370716
throughput change = 0.00315457
Draining all recorded packets ...
Draining remaining packets ...
Time taken is 6040 cycles
Class 0:
Packet latency average = 20.2764
	minimum = 7
	maximum = 40
Network latency average = 20.2764
	minimum = 7
	maximum = 40
Slowest packet = 222068
Flit latency average = 20.2764
	minimum = 7
	maximum = 40
Slowest flit = 222068
Fragmentation average = 0
	minimum = 0
	maximum = 0
Injected packet rate average = 0.0175625
	minimum = 0.01 (at node 6)
	maximum = 0.023 (at node 9)
Accepted packet rate average = 0.0171875
	minimum = 0 (at node 0)
	maximum = 0.275 (at node 11)
Injected flit rate average = 0.0175625
	minimum = 0.01 (at node 6)
	maximum = 0.023 (at node 9)
Accepted flit rate average= 0.0171875
	minimum = 0 (at node 0)
	maximum = 0.275 (at node 11)
Injected packet length average = 1
Accepted packet length average = 1
Total in-flight flits = 6 (0 measured)
latency change    = 1
throughput change = 1
Class 0:
Packet latency average = 20.89
	minimum = 7
	maximum = 61
Network latency average = 20.89
	minimum = 7
	maximum = 61
Slowest packet = 222499
Flit latency average = 20.89
	minimum = 7
	maximum = 61
Slowest flit = 222499
Fragmentation average = 0
	minimum = 0
	maximum = 0
Injected packet rate average = 0.0185625
	minimum = 0.0135 (at node 6)
	maximum = 0.0235 (at node 15)
Accepted packet rate average = 0.0181875
	minimum = 0 (at node 0)
	maximum = 0.291 (at node 11)
Injected flit rate average = 0.0185625
	minimum = 0.0135 (at node 6)
	maximum = 0.0235 (at node 15)
Accepted flit rate average= 0.0181875
	minimum = 0 (at node 0)
	maximum = 0.291 (at node 11)
Injected packet length average = 1
Accepted packet length average = 1
Total in-flight flits = 12 (0 measured)
latency change    = 0.0293762
throughput change = 0.0549828
Class 0:
Packet latency average = 21.1797
	minimum = 7
	maximum = 73
Network latency average = 21.1797
	minimum = 7
	maximum = 73
Slowest packet = 222509
Flit latency average = 21.1797
	minimum = 7
	maximum = 73
Slowest flit = 222509
Fragmentation average = 0
	minimum = 0
	maximum = 0
Injected packet rate average = 0.019125
	minimum = 0.015 (at node 7)
	maximum = 0.026 (at node 8)
Accepted packet rate average = 0.019125
	minimum = 0 (at node 0)
	maximum = 0.306 (at node 11)
Injected flit rate average = 0.019125
	minimum = 0.015 (at node 7)
	maximum = 0.026 (at node 8)
Accepted flit rate average= 0.019125
	minimum = 0 (at node 0)
	maximum = 0.306 (at node 11)
Injected packet length average = 1
Accepted packet length average = 1
Total in-flight flits = 12 (0 measured)
latency change    = 0.0136784
throughput change = 0.0490196
Warmed up ...Time used is 3000 cycles
Class 0:
Packet latency average = 21.074
	minimum = 7
	maximum = 42
Network latency average = 21.074
	minimum = 7
	maximum = 42
Slowest packet = 222858
Flit latency average = 21.0991
	minimum = 7
	maximum = 42
Slowest flit = 222858
Fragmentation average = 0
	minimum = 0
	maximum = 0
Injected packet rate average = 0.01975
	minimum = 0.013 (at node 0)
	maximum = 0.027 (at node 14)
Accepted packet rate average = 0.0201875
	minimum = 0 (at node 0)
	maximum = 0.323 (at node 11)
Injected flit rate average = 0.01975
	minimum = 0.013 (at node 0)
	maximum = 0.027 (at node 14)
Accepted flit rate average= 0.0201875
	minimum = 0 (at node 0)
	maximum = 0.323 (at node 11)
Injected packet length average = 1
Accepted packet length average = 1
Total in-flight flits = 5 (5 measured)
latency change    = 0.00501964
throughput change = 0.0526316
Class 0:
Packet latency average = 21.1238
	minimum = 7
	maximum = 50
Network latency average = 21.1238
	minimum = 7
	maximum = 50
Slowest packet = 223337
Flit latency average = 21.1356
	minimum = 7
	maximum = 50
Slowest flit = 223337
Fragmentation average = 0
	minimum = 0
	maximum = 0
Injected packet rate average = 0.0195938
	minimum = 0.0155 (at node 13)
	maximum = 0.0245 (at node 14)
Accepted packet rate average = 0.0198125
	minimum = 0 (at node 0)
	maximum = 0.317 (at node 11)
Injected flit rate average = 0.0195938
	minimum = 0.0155 (at node 13)
	maximum = 0.0245 (at node 14)
Accepted flit rate average= 0.0198125
	minimum = 0 (at node 0)
	maximum = 0.317 (at node 11)
Injected packet length average = 1
Accepted packet length average = 1
Total in-flight flits = 5 (5 measured)
latency change    = 0.00235939
throughput change = 0.0189274
Class 0:
Packet latency average = 21.1185
	minimum = 7
	maximum = 52
Network latency average = 21.1185
	minimum = 7
	maximum = 52
Slowest packet = 223676
Flit latency average = 21.1266
	minimum = 7
	maximum = 52
Slowest flit = 223676
Fragmentation average = 0
	minimum = 0
	maximum = 0
Injected packet rate average = 0.0194167
	minimum = 0.014 (at node 13)
	maximum = 0.024 (at node 14)
Accepted packet rate average = 0.0195833
	minimum = 0 (at node 0)
	maximum = 0.313333 (at node 11)
Injected flit rate average = 0.0194167
	minimum = 0.014 (at node 13)
	maximum = 0.024 (at node 14)
Accepted flit rate average= 0.0195833
	minimum = 0 (at node 0)
	maximum = 0.313333 (at node 11)
Injected packet length average = 1
Accepted packet length average = 1
Total in-flight flits = 4 (4 measured)
latency change    = 0.000249058
throughput change = 0.0117021
Class 0:
Packet latency average = 21.1341
	minimum = 7
	maximum = 52
Network latency average = 21.1341
	minimum = 7
	maximum = 52
Slowest packet = 223676
Flit latency average = 21.14
	minimum = 7
	maximum = 52
Slowest flit = 223676
Fragmentation average = 0
	minimum = 0
	maximum = 0
Injected packet rate average = 0.0195156
	minimum = 0.01525 (at node 13)
	maximum = 0.02375 (at node 14)
Accepted packet rate average = 0.0196406
	minimum = 0 (at node 0)
	maximum = 0.31425 (at node 11)
Injected flit rate average = 0.0195156
	minimum = 0.01525 (at node 13)
	maximum = 0.02375 (at node 14)
Accepted flit rate average= 0.0196406
	minimum = 0 (at node 0)
	maximum = 0.31425 (at node 11)
Injected packet length average = 1
Accepted packet length average = 1
Total in-flight flits = 4 (4 measured)
latency change    = 0.00073824
throughput change = 0.002917
Draining all recorded packets ...
Draining remaining packets ...
Time taken is 7044 cycles
Class 0:
Packet latency average = 20.7993
	minimum = 7
	maximum = 51
Network latency average = 20.7993
	minimum = 7
	maximum = 51
Slowest packet = 224219
Flit latency average = 20.7993
	minimum = 7
	maximum = 51
Slowest flit = 224219
Fragmentation average = 0
	minimum = 0
	maximum = 0
Injected packet rate average = 0.019375
	minimum = 0.014 (at node 0)
	maximum = 0.025 (at node 1)
Accepted packet rate average = 0.019
	minimum = 0 (at node 0)
	maximum = 0.304 (at node 11)
Injected flit rate average = 0.019375
	minimum = 0.014 (at node 0)
	maximum = 0.025 (at node 1)
Accepted flit rate average= 0.019
	minimum = 0 (at node 0)
	maximum = 0.304 (at node 11)
Injected packet length average = 1
Accepted packet length average = 1
Total in-flight flits = 6 (0 measured)
latency change    = 1
throughput change = 1
Class 0:
Packet latency average = 20.7386
	minimum = 7
	maximum = 52
Network latency average = 20.7386
	minimum = 7
	maximum = 52
Slowest packet = 224641
Flit latency average = 20.7386
	minimum = 7
	maximum = 52
Slowest flit = 224641
Fragmentation average = 0
	minimum = 0
	maximum = 0
Injected packet rate average = 0.019375
	minimum = 0.016 (at node 0)
	maximum = 0.0235 (at node 7)
Accepted packet rate average = 0.019125
	minimum = 0 (at node 0)
	maximum = 0.306 (at node 11)
Injected flit rate average = 0.019375
	minimum = 0.016 (at node 0)
	maximum = 0.0235 (at node 7)
Accepted flit rate average= 0.019125
	minimum = 0 (at node 0)
	maximum = 0.306 (at node 11)
Injected packet length average = 1
Accepted packet length average = 1
Total in-flight flits = 8 (0 measured)
latency change    = 0.00293077
throughput change = 0.00653595
Class 0:
Packet latency average = 21.276
	minimum = 7
	maximum = 47
Network latency average = 21.276
	minimum = 7
	maximum = 47
Slowest packet = 224737
Flit latency average = 21.276
	minimum = 7
	maximum = 47
Slowest flit = 224737
Fragmentation average = 0
	minimum = 0
	maximum = 0
Injected packet rate average = 0.0193125
	minimum = 0.008 (at node 3)
	maximum = 0.027 (at node 12)
Accepted packet rate average = 0.01925
	minimum = 0 (at node 0)
	maximum = 0.308 (at node 11)
Injected flit rate average = 0.0193125
	minimum = 0.008 (at node 3)
	maximum = 0.027 (at node 12)
Accepted flit rate average= 0.01925
	minimum = 0 (at node 0)
	maximum = 0.308 (at node 11)
Injected packet length average = 1
Accepted packet length average = 1
Total in-flight flits = 9 (0 measured)
latency change    = 0.0252591
throughput change = 0.00649351
Warmed up ...Time used is 3000 cycles
Class 0:
Packet latency average = 20.1242
	minimum = 7
	maximum = 43
Network latency average = 20.1242
	minimum = 7
	maximum = 43
Slowest packet = 225061
Flit latency average = 20.2834
	minimum = 7
	maximum = 51
Slowest flit = 225011
Fragmentation average = 0
	minimum = 0
	maximum = 0
Injected packet rate average = 0.0188125
	minimum = 0.008 (at node 12)
	maximum = 0.029 (at node 6)
Accepted packet rate average = 0.0191875
	minimum = 0 (at node 0)
	maximum = 0.307 (at node 11)
Injected flit rate average = 0.0188125
	minimum = 0.008 (at node 12)
	maximum = 0.029 (at node 6)
Accepted flit rate average= 0.0191875
	minimum = 0 (at node 0)
	maximum = 0.307 (at node 11)
Injected packet length average = 1
Accepted packet length average = 1
Total in-flight flits = 3 (3 measured)
latency change    = 0.0572353
throughput change = 0.00325733
Class 0:
Packet latency average = 20.8289
	minimum = 7
	maximum = 54
Network latency average = 20.8289
	minimum = 7
	maximum = 54
Slowest packet = 225594
Flit latency average = 20.8985
	minimum = 7
	maximum = 54
Slowest flit = 225594
Fragmentation average = 0
	minimum = 0
	maximum = 0
Injected packet rate average = 0.0190312
	minimum = 0.014 (at node 7)
	maximum = 0.026 (at node 5)
Accepted packet rate average = 0.0190937
	minimum = 0 (at node 0)
	maximum = 0.3055 (at node 11)
Injected flit rate average = 0.0190312
	minimum = 0.014 (at node 7)
	maximum = 0.026 (at node 5)
Accepted flit rate average= 0.0190937
	minimum = 0 (at node 0)
	maximum = 0.3055 (at node 11)
Injected packet length average = 1
Accepted packet length average = 1
Total in-flight flits = 7 (7 measured)
latency change    = 0.0338348
throughput change = 0.00490998
Class 0:
Packet latency average = 21.21
	minimum = 7
	maximum = 59
Network latency average = 21.21
	minimum = 7
	maximum = 59
Slowest packet = 225942
Flit latency average = 21.2511
	minimum = 7
	maximum = 59
Slowest flit = 225942
Fragmentation average = 0
	minimum = 0
	maximum = 0
Injected packet rate average = 0.0198125
	minimum = 0.0153333 (at node 15)
	maximum = 0.0263333 (at node 5)
Accepted packet rate average = 0.0198333
	minimum = 0 (at node 0)
	maximum = 0.317333 (at node 11)
Injected flit rate average = 0.0198125
	minimum = 0.0153333 (at node 15)
	maximum = 0.0263333 (at node 5)
Accepted flit rate average= 0.0198333
	minimum = 0 (at node 0)
	maximum = 0.317333 (at node 11)
Injected packet length average = 1
Accepted packet length average = 1
Total in-flight flits = 8 (8 measured)
latency change    = 0.0179663
throughput change = 0.0372899
Class 0:
Packet latency average = 21.388
	minimum = 7
	maximum = 59
Network latency average = 21.3872
	minimum = 7
	maximum = 59
Slowest packet = 225942
Flit latency average = 21.4162
	minimum = 7
	maximum = 59
Slowest flit = 225942
Fragmentation average = 0
	minimum = 0
	maximum = 0
Injected packet rate average = 0.0201875
	minimum = 0.0165 (at node 15)
	maximum = 0.02525 (at node 5)
Accepted packet rate average = 0.0202344
	minimum = 0 (at node 0)
	maximum = 0.32375 (at node 11)
Injected flit rate average = 0.0201875
	minimum = 0.0165 (at node 15)
	maximum = 0.02525 (at node 5)
Accepted flit rate average= 0.0202344
	minimum = 0 (at node 0)
	maximum = 0.32375 (at node 11)
Injected packet length average = 1
Accepted packet length average = 1
Total in-flight flits = 6 (6 measured)
latency change    = 0.00832506
throughput change = 0.0198198
Draining all recorded packets ...
Draining remaining packets ...
Time taken is 7046 cycles
====== Overall Traffic Statistics ======
====== Traffic class 0 ======
Packet latency average = 21.3338 (100 samples)
	minimum = 7 (100 samples)
	maximum = 62.42 (100 samples)
Network latency average = 21.3338 (100 samples)
	minimum = 7 (100 samples)
	maximum = 62.42 (100 samples)
Flit latency average = 21.3466 (100 samples)
	minimum = 7 (100 samples)
	maximum = 62.96 (100 samples)
Fragmentation average = 0 (100 samples)
	minimum = 0 (100 samples)
	maximum = 0 (100 samples)
Injected packet rate average = 0.0199289 (100 samples)
	minimum = 0.0160218 (100 samples)
	maximum = 0.0241732 (100 samples)
Accepted packet rate average = 0.0199382 (100 samples)
	minimum = 0 (100 samples)
	maximum = 0.319012 (100 samples)
Injected flit rate average = 0.0199289 (100 samples)
	minimum = 0.0160218 (100 samples)
	maximum = 0.0241732 (100 samples)
Accepted flit rate average = 0.0199382 (100 samples)
	minimum = 0 (100 samples)
	maximum = 0.319012 (100 samples)
Injected packet size average = 1 (100 samples)
Accepted packet size average = 1 (100 samples)
Hops average = 3.50011 (100 samples)
Total run time 10.2492
