BEGIN Configuration File: /tmp/bs_hotspot_1139297_575542.cfg
topology = mesh;
k = 4; n = 2; routing_function = gnn_ppo_route_4x4;
num_vcs = 4; vc_buf_size = 4; wait_for_tail_credit = 1;
vc_allocator = islip; sw_allocator = islip; alloc_iters = 1;
credit_delay = 2; routing_delay = 1; vc_alloc_delay = 1; sw_alloc_delay = 1;
input_speedup = 2; output_speedup = 1; internal_speedup = 1.0;
traffic = hotspot; packet_size = 1; sim_type = latency;
injection_rate = 0.05; warmup_periods = 3; sample_period = 1000;
sim_count = 100; seed = 4;

END Configuration File: /tmp/bs_hotspot_1139297_575542.cfg
Class 0:
Packet latency average = 146.088
	minimum = 7
	maximum = 804
Network latency average = 124.619
	minimum = 7
	maximum = 804
Slowest packet = 110
Flit latency average = 124.619
	minimum = 7
	maximum = 804
Slowest flit = 110
Fragmentation average = 0
	minimum = 0
	maximum = 0
Injected packet rate average = 0.037625
	minimum = 0.016 (at node 4)
	maximum = 0.052 (at node 10)
Accepted packet rate average = 0.0305
	minimum = 0 (at node 0)
	maximum = 0.488 (at node 11)
Injected flit rate average = 0.037625
	minimum = 0.016 (at node 4)
	maximum = 0.052 (at node 10)
Accepted flit rate average= 0.0305
	minimum = 0 (at node 0)
	maximum = 0.488 (at node 11)
Injected packet length average = 1
Accepted packet length average = 1
Total in-flight flits = 126 (0 measured)
latency change    = 1
throughput change = 1
Class 0:
Packet latency average = 260.35
	minimum = 7
	maximum = 1683
Network latency average = 166.007
	minimum = 7
	maximum = 1615
Slowest packet = 228
Flit latency average = 166.007
	minimum = 7
	maximum = 1615
Slowest flit = 228
Fragmentation average = 0
	minimum = 0
	maximum = 0
Injected packet rate average = 0.0343125
	minimum = 0.013 (at node 4)
	maximum = 0.061 (at node 15)
Accepted packet rate average = 0.030875
	minimum = 0 (at node 0)
	maximum = 0.494 (at node 11)
Injected flit rate average = 0.0343125
	minimum = 0.013 (at node 4)
	maximum = 0.061 (at node 15)
Accepted flit rate average= 0.030875
	minimum = 0 (at node 0)
	maximum = 0.494 (at node 11)
Injected packet length average = 1
Accepted packet length average = 1
Total in-flight flits = 123 (0 measured)
latency change    = 0.438878
throughput change = 0.0121457
Class 0:
Packet latency average = 612.762
	minimum = 7
	maximum = 2404
Network latency average = 207.51
	minimum = 7
	maximum = 1826
Slowest packet = 928
Flit latency average = 207.51
	minimum = 7
	maximum = 1826
Slowest flit = 248
Fragmentation average = 0
	minimum = 0
	maximum = 0
Injected packet rate average = 0.03125
	minimum = 0.006 (at node 4)
	maximum = 0.062 (at node 7)
Accepted packet rate average = 0.03125
	minimum = 0 (at node 0)
	maximum = 0.5 (at node 11)
Injected flit rate average = 0.03125
	minimum = 0.006 (at node 4)
	maximum = 0.062 (at node 7)
Accepted flit rate average= 0.03125
	minimum = 0 (at node 0)
	maximum = 0.5 (at node 11)
Injected packet length average = 1
Accepted packet length average = 1
Total in-flight flits = 121 (0 measured)
latency change    = 0.57512
throughput change = 0.012
Average latency for class 0 exceeded 500 cycles. Aborting simulation.
Too many sample periods needed to converge
Simulation unstable, ending ...
Total run time 0.0633831
