BEGIN Configuration File: /tmp/tmp8w0q2f7s.cfg
topology = mesh;
k = 4;
n = 2;
routing_function = gnn_port_score_route_4x4;
num_vcs = 4;
vc_buf_size = 4;
wait_for_tail_credit = 1;
vc_allocator = islip;
sw_allocator = islip;
alloc_iters = 1;
credit_delay = 2;
routing_delay = 1;
vc_alloc_delay = 1;
sw_alloc_delay = 1;
input_speedup = 2;
output_speedup = 1;
internal_speedup = 1.0;
traffic = uniform;
packet_size = 1;
sim_type = latency;
injection_rate = 0.05;
warmup_periods = 3;
sample_period = 1000;
sim_count = 100;
seed = 3;

END Configuration File: /tmp/tmp8w0q2f7s.cfg
Class 0:
Packet latency average = 19.3811
	minimum = 7
	maximum = 42
Network latency average = 19.3786
	minimum = 7
	maximum = 42
Slowest packet = 221
Flit latency average = 19.3786
	minimum = 7
	maximum = 42
Slowest flit = 221
Fragmentation average = 0
	minimum = 0
	maximum = 0
Injected packet rate average = 0.050375
	minimum = 0.034 (at node 4)
	maximum = 0.068 (at node 9)
Accepted packet rate average = 0.0496875
	minimum = 0.038 (at node 12)
	maximum = 0.06 (at node 11)
Injected flit rate average = 0.050375
	minimum = 0.034 (at node 4)
	maximum = 0.068 (at node 9)
Accepted flit rate average= 0.0496875
	minimum = 0.038 (at node 12)
	maximum = 0.06 (at node 11)
Injected packet length average = 1
Accepted packet length average = 1
Total in-flight flits = 11 (0 measured)
latency change    = 1
throughput change = 1
Class 0:
Packet latency average = 19.7843
	minimum = 7
	maximum = 44
Network latency average = 19.7831
	minimum = 7
	maximum = 44
Slowest packet = 1026
Flit latency average = 19.7831
	minimum = 7
	maximum = 44
Slowest flit = 1026
Fragmentation average = 0
	minimum = 0
	maximum = 0
Injected packet rate average = 0.049125
	minimum = 0.041 (at node 4)
	maximum = 0.057 (at node 9)
Accepted packet rate average = 0.0486875
	minimum = 0.0415 (at node 3)
	maximum = 0.0565 (at node 7)
Injected flit rate average = 0.049125
	minimum = 0.041 (at node 4)
	maximum = 0.057 (at node 9)
Accepted flit rate average= 0.0486875
	minimum = 0.0415 (at node 3)
	maximum = 0.0565 (at node 7)
Injected packet length average = 1
Accepted packet length average = 1
Total in-flight flits = 14 (0 measured)
latency change    = 0.0203801
throughput change = 0.0205392
Class 0:
Packet latency average = 20.6361
	minimum = 7
	maximum = 47
Network latency average = 20.6361
	minimum = 7
	maximum = 47
Slowest packet = 1623
Flit latency average = 20.6361
	minimum = 7
	maximum = 47
Slowest flit = 1623
Fragmentation average = 0
	minimum = 0
	maximum = 0
Injected packet rate average = 0.0490625
	minimum = 0.032 (at node 11)
	maximum = 0.066 (at node 12)
Accepted packet rate average = 0.049125
	minimum = 0.037 (at node 11)
	maximum = 0.063 (at node 3)
Injected flit rate average = 0.0490625
	minimum = 0.032 (at node 11)
	maximum = 0.066 (at node 12)
Accepted flit rate average= 0.049125
	minimum = 0.037 (at node 11)
	maximum = 0.063 (at node 3)
Injected packet length average = 1
Accepted packet length average = 1
Total in-flight flits = 13 (0 measured)
latency change    = 0.0412768
throughput change = 0.00890585
Warmed up ...Time used is 3000 cycles
Class 0:
Packet latency average = 19.7869
	minimum = 7
	maximum = 46
Network latency average = 19.7869
	minimum = 7
	maximum = 46
Slowest packet = 2712
Flit latency average = 19.8775
	minimum = 7
	maximum = 46
Slowest flit = 2712
Fragmentation average = 0
	minimum = 0
	maximum = 0
Injected packet rate average = 0.0475625
	minimum = 0.036 (at node 9)
	maximum = 0.062 (at node 12)
Accepted packet rate average = 0.0474375
	minimum = 0.039 (at node 11)
	maximum = 0.064 (at node 15)
Injected flit rate average = 0.0475625
	minimum = 0.036 (at node 9)
	maximum = 0.062 (at node 12)
Accepted flit rate average= 0.0474375
	minimum = 0.039 (at node 11)
	maximum = 0.064 (at node 15)
Injected packet length average = 1
Accepted packet length average = 1
Total in-flight flits = 15 (15 measured)
latency change    = 0.0429209
throughput change = 0.0355731
Class 0:
Packet latency average = 20.055
	minimum = 7
	maximum = 46
Network latency average = 20.055
	minimum = 7
	maximum = 46
Slowest packet = 2712
Flit latency average = 20.0954
	minimum = 7
	maximum = 46
Slowest flit = 2712
Fragmentation average = 0
	minimum = 0
	maximum = 0
Injected packet rate average = 0.0505625
	minimum = 0.0405 (at node 14)
	maximum = 0.061 (at node 12)
Accepted packet rate average = 0.0504375
	minimum = 0.044 (at node 9)
	maximum = 0.058 (at node 0)
Injected flit rate average = 0.0505625
	minimum = 0.0405 (at node 14)
	maximum = 0.061 (at node 12)
Accepted flit rate average= 0.0504375
	minimum = 0.044 (at node 9)
	maximum = 0.058 (at node 0)
Injected packet length average = 1
Accepted packet length average = 1
Total in-flight flits = 17 (17 measured)
latency change    = 0.0133684
throughput change = 0.0594796
Class 0:
Packet latency average = 19.9661
	minimum = 7
	maximum = 46
Network latency average = 19.9661
	minimum = 7
	maximum = 46
Slowest packet = 2712
Flit latency average = 19.9934
	minimum = 7
	maximum = 46
Slowest flit = 2712
Fragmentation average = 0
	minimum = 0
	maximum = 0
Injected packet rate average = 0.0506875
	minimum = 0.0426667 (at node 14)
	maximum = 0.058 (at node 12)
Accepted packet rate average = 0.0506042
	minimum = 0.046 (at node 4)
	maximum = 0.057 (at node 6)
Injected flit rate average = 0.0506875
	minimum = 0.0426667 (at node 14)
	maximum = 0.058 (at node 12)
Accepted flit rate average= 0.0506042
	minimum = 0.046 (at node 4)
	maximum = 0.057 (at node 6)
Injected packet length average = 1
Accepted packet length average = 1
Total in-flight flits = 17 (17 measured)
latency change    = 0.00445286
throughput change = 0.00329354
Class 0:
Packet latency average = 20.0363
	minimum = 7
	maximum = 47
Network latency average = 20.0363
	minimum = 7
	maximum = 47
Slowest packet = 4908
Flit latency average = 20.0565
	minimum = 7
	maximum = 47
Slowest flit = 4908
Fragmentation average = 0
	minimum = 0
	maximum = 0
Injected packet rate average = 0.0506094
	minimum = 0.0445 (at node 3)
	maximum = 0.05525 (at node 0)
Accepted packet rate average = 0.0505781
	minimum = 0.043 (at node 4)
	maximum = 0.057 (at node 6)
Injected flit rate average = 0.0506094
	minimum = 0.0445 (at node 3)
	maximum = 0.05525 (at node 0)
Accepted flit rate average= 0.0505781
	minimum = 0.043 (at node 4)
	maximum = 0.057 (at node 6)
Injected packet length average = 1
Accepted packet length average = 1
Total in-flight flits = 15 (15 measured)
latency change    = 0.00350518
throughput change = 0.00051488
Class 0:
Packet latency average = 20.0575
	minimum = 7
	maximum = 50
Network latency average = 20.0575
	minimum = 7
	maximum = 50
Slowest packet = 5617
Flit latency average = 20.0735
	minimum = 7
	maximum = 50
Slowest flit = 5617
Fragmentation average = 0
	minimum = 0
	maximum = 0
Injected packet rate average = 0.0509375
	minimum = 0.0438 (at node 15)
	maximum = 0.057 (at node 0)
Accepted packet rate average = 0.05085
	minimum = 0.0442 (at node 4)
	maximum = 0.0578 (at node 6)
Injected flit rate average = 0.0509375
	minimum = 0.0438 (at node 15)
	maximum = 0.057 (at node 0)
Accepted flit rate average= 0.05085
	minimum = 0.0442 (at node 4)
	maximum = 0.0578 (at node 6)
Injected packet length average = 1
Accepted packet length average = 1
Total in-flight flits = 20 (20 measured)
latency change    = 0.00105545
throughput change = 0.00534661
Draining all recorded packets ...
Draining remaining packets ...
Time taken is 8055 cycles
Class 0:
Packet latency average = 20.0584
	minimum = 7
	maximum = 45
Network latency average = 20.0584
	minimum = 7
	maximum = 45
Slowest packet = 6559
Flit latency average = 20.0584
	minimum = 7
	maximum = 45
Slowest flit = 6559
Fragmentation average = 0
	minimum = 0
	maximum = 0
Injected packet rate average = 0.051625
	minimum = 0.033 (at node 8)
	maximum = 0.063 (at node 4)
Accepted packet rate average = 0.0503125
	minimum = 0.037 (at node 2)
	maximum = 0.063 (at node 5)
Injected flit rate average = 0.051625
	minimum = 0.033 (at node 8)
	maximum = 0.063 (at node 4)
Accepted flit rate average= 0.0503125
	minimum = 0.037 (at node 2)
	maximum = 0.063 (at node 5)
Injected packet length average = 1
Accepted packet length average = 1
Total in-flight flits = 21 (0 measured)
latency change    = 1
throughput change = 1
Class 0:
Packet latency average = 20.0719
	minimum = 7
	maximum = 45
Network latency average = 20.0719
	minimum = 7
	maximum = 45
Slowest packet = 6559
Flit latency average = 20.0719
	minimum = 7
	maximum = 45
Slowest flit = 6559
Fragmentation average = 0
	minimum = 0
	maximum = 0
Injected packet rate average = 0.051625
	minimum = 0.0425 (at node 8)
	maximum = 0.0585 (at node 10)
Accepted packet rate average = 0.0513125
	minimum = 0.0415 (at node 8)
	maximum = 0.061 (at node 0)
Injected flit rate average = 0.051625
	minimum = 0.0425 (at node 8)
	maximum = 0.0585 (at node 10)
Accepted flit rate average= 0.0513125
	minimum = 0.0415 (at node 8)
	maximum = 0.061 (at node 0)
Injected packet length average = 1
Accepted packet length average = 1
Total in-flight flits = 10 (0 measured)
latency change    = 0.000671512
throughput change = 0.0194884
Class 0:
Packet latency average = 19.7024
	minimum = 7
	maximum = 45
Network latency average = 19.7024
	minimum = 7
	maximum = 45
Slowest packet = 8660
Flit latency average = 19.7024
	minimum = 7
	maximum = 45
Slowest flit = 8660
Fragmentation average = 0
	minimum = 0
	maximum = 0
Injected packet rate average = 0.050625
	minimum = 0.038 (at node 5)
	maximum = 0.06 (at node 15)
Accepted packet rate average = 0.0501875
	minimum = 0.035 (at node 12)
	maximum = 0.061 (at node 14)
Injected flit rate average = 0.050625
	minimum = 0.038 (at node 5)
	maximum = 0.06 (at node 15)
Accepted flit rate average= 0.0501875
	minimum = 0.035 (at node 12)
	maximum = 0.061 (at node 14)
Injected packet length average = 1
Accepted packet length average = 1
Total in-flight flits = 17 (0 measured)
latency change    = 0.018754
throughput change = 0.0224159
Warmed up ...Time used is 3000 cycles
Class 0:
Packet latency average = 20.2427
	minimum = 7
	maximum = 43
Network latency average = 20.2427
	minimum = 7
	maximum = 43
Slowest packet = 8982
Flit latency average = 20.2913
	minimum = 7
	maximum = 43
Slowest flit = 8982
Fragmentation average = 0
	minimum = 0
	maximum = 0
Injected packet rate average = 0.0498125
	minimum = 0.039 (at node 15)
	maximum = 0.06 (at node 10)
Accepted packet rate average = 0.05
	minimum = 0.036 (at node 6)
	maximum = 0.063 (at node 7)
Injected flit rate average = 0.0498125
	minimum = 0.039 (at node 15)
	maximum = 0.06 (at node 10)
Accepted flit rate average= 0.05
	minimum = 0.036 (at node 6)
	maximum = 0.063 (at node 7)
Injected packet length average = 1
Accepted packet length average = 1
Total in-flight flits = 14 (14 measured)
latency change    = 0.0266907
throughput change = 0.00375
Class 0:
Packet latency average = 20.3835
	minimum = 7
	maximum = 48
Network latency average = 20.3835
	minimum = 7
	maximum = 48
Slowest packet = 10273
Flit latency average = 20.4061
	minimum = 7
	maximum = 48
Slowest flit = 10273
Fragmentation average = 0
	minimum = 0
	maximum = 0
Injected packet rate average = 0.0504687
	minimum = 0.042 (at node 15)
	maximum = 0.056 (at node 12)
Accepted packet rate average = 0.0504062
	minimum = 0.043 (at node 6)
	maximum = 0.06 (at node 0)
Injected flit rate average = 0.0504687
	minimum = 0.042 (at node 15)
	maximum = 0.056 (at node 12)
Accepted flit rate average= 0.0504062
	minimum = 0.043 (at node 6)
	maximum = 0.06 (at node 0)
Injected packet length average = 1
Accepted packet length average = 1
Total in-flight flits = 19 (19 measured)
latency change    = 0.00690767
throughput change = 0.00805952
Class 0:
Packet latency average = 20.291
	minimum = 7
	maximum = 49
Network latency average = 20.291
	minimum = 7
	maximum = 49
Slowest packet = 10895
Flit latency average = 20.3065
	minimum = 7
	maximum = 49
Slowest flit = 10895
Fragmentation average = 0
	minimum = 0
	maximum = 0
Injected packet rate average = 0.0509167
	minimum = 0.044 (at node 4)
	maximum = 0.0576667 (at node 5)
Accepted packet rate average = 0.0510417
	minimum = 0.0416667 (at node 6)
	maximum = 0.061 (at node 0)
Injected flit rate average = 0.0509167
	minimum = 0.044 (at node 4)
	maximum = 0.0576667 (at node 5)
Accepted flit rate average= 0.0510417
	minimum = 0.0416667 (at node 6)
	maximum = 0.061 (at node 0)
Injected packet length average = 1
Accepted packet length average = 1
Total in-flight flits = 11 (11 measured)
latency change    = 0.00455669
throughput change = 0.012449
Draining all recorded packets ...
Draining remaining packets ...
Time taken is 6070 cycles
Class 0:
Packet latency average = 20.0994
	minimum = 7
	maximum = 41
Network latency average = 20.0994
	minimum = 7
	maximum = 41
Slowest packet = 11809
Flit latency average = 20.0994
	minimum = 7
	maximum = 41
Slowest flit = 11809
Fragmentation average = 0
	minimum = 0
	maximum = 0
Injected packet rate average = 0.050625
	minimum = 0.04 (at node 15)
	maximum = 0.062 (at node 5)
Accepted packet rate average = 0.0496875
	minimum = 0.04 (at node 4)
	maximum = 0.062 (at node 6)
Injected flit rate average = 0.050625
	minimum = 0.04 (at node 15)
	maximum = 0.062 (at node 5)
Accepted flit rate average= 0.0496875
	minimum = 0.04 (at node 4)
	maximum = 0.062 (at node 6)
Injected packet length average = 1
Accepted packet length average = 1
Total in-flight flits = 15 (0 measured)
latency change    = 1
throughput change = 1
Class 0:
Packet latency average = 19.9602
	minimum = 7
	maximum = 49
Network latency average = 19.9602
	minimum = 7
	maximum = 49
Slowest packet = 12660
Flit latency average = 19.9602
	minimum = 7
	maximum = 49
Slowest flit = 12660
Fragmentation average = 0
	minimum = 0
	maximum = 0
Injected packet rate average = 0.050875
	minimum = 0.0435 (at node 10)
	maximum = 0.056 (at node 14)
Accepted packet rate average = 0.0502187
	minimum = 0.042 (at node 8)
	maximum = 0.0595 (at node 6)
Injected flit rate average = 0.050875
	minimum = 0.0435 (at node 10)
	maximum = 0.056 (at node 14)
Accepted flit rate average= 0.0502187
	minimum = 0.042 (at node 8)
	maximum = 0.0595 (at node 6)
Injected packet length average = 1
Accepted packet length average = 1
Total in-flight flits = 21 (0 measured)
latency change    = 0.00697373
throughput change = 0.0105787
Class 0:
Packet latency average = 19.9528
	minimum = 7
	maximum = 43
Network latency average = 19.9528
	minimum = 7
	maximum = 43
Slowest packet = 13162
Flit latency average = 19.9528
	minimum = 7
	maximum = 43
Slowest flit = 13162
Fragmentation average = 0
	minimum = 0
	maximum = 0
Injected packet rate average = 0.0540625
	minimum = 0.041 (at node 14)
	maximum = 0.073 (at node 10)
Accepted packet rate average = 0.0543125
	minimum = 0.039 (at node 8)
	maximum = 0.072 (at node 5)
Injected flit rate average = 0.0540625
	minimum = 0.041 (at node 14)
	maximum = 0.073 (at node 10)
Accepted flit rate average= 0.0543125
	minimum = 0.039 (at node 8)
	maximum = 0.072 (at node 5)
Injected packet length average = 1
Accepted packet length average = 1
Total in-flight flits = 17 (0 measured)
latency change    = 0.000368615
throughput change = 0.075374
Warmed up ...Time used is 3000 cycles
Class 0:
Packet latency average = 20.0091
	minimum = 7
	maximum = 49
Network latency average = 20.0091
	minimum = 7
	maximum = 49
Slowest packet = 14054
Flit latency average = 20.0405
	minimum = 7
	maximum = 49
Slowest flit = 14054
Fragmentation average = 0
	minimum = 0
	maximum = 0
Injected packet rate average = 0.0498125
	minimum = 0.034 (at node 7)
	maximum = 0.066 (at node 6)
Accepted packet rate average = 0.049375
	minimum = 0.043 (at node 6)
	maximum = 0.059 (at node 15)
Injected flit rate average = 0.0498125
	minimum = 0.034 (at node 7)
	maximum = 0.066 (at node 6)
Accepted flit rate average= 0.049375
	minimum = 0.043 (at node 6)
	maximum = 0.059 (at node 15)
Injected packet length average = 1
Accepted packet length average = 1
Total in-flight flits = 24 (24 measured)
latency change    = 0.00281054
throughput change = 0.1
Class 0:
Packet latency average = 20.0601
	minimum = 7
	maximum = 49
Network latency average = 20.0601
	minimum = 7
	maximum = 49
Slowest packet = 14054
Flit latency average = 20.0746
	minimum = 7
	maximum = 49
Slowest flit = 14054
Fragmentation average = 0
	minimum = 0
	maximum = 0
Injected packet rate average = 0.0515625
	minimum = 0.04 (at node 7)
	maximum = 0.0615 (at node 11)
Accepted packet rate average = 0.0515
	minimum = 0.046 (at node 10)
	maximum = 0.0595 (at node 3)
Injected flit rate average = 0.0515625
	minimum = 0.04 (at node 7)
	maximum = 0.0615 (at node 11)
Accepted flit rate average= 0.0515
	minimum = 0.046 (at node 10)
	maximum = 0.0595 (at node 3)
Injected packet length average = 1
Accepted packet length average = 1
Total in-flight flits = 19 (19 measured)
latency change    = 0.00254387
throughput change = 0.0412621
Class 0:
Packet latency average = 20.0118
	minimum = 7
	maximum = 52
Network latency average = 20.0118
	minimum = 7
	maximum = 52
Slowest packet = 16013
Flit latency average = 20.0219
	minimum = 7
	maximum = 52
Slowest flit = 16013
Fragmentation average = 0
	minimum = 0
	maximum = 0
Injected packet rate average = 0.051375
	minimum = 0.043 (at node 7)
	maximum = 0.0593333 (at node 3)
Accepted packet rate average = 0.0514583
	minimum = 0.0446667 (at node 13)
	maximum = 0.0606667 (at node 9)
Injected flit rate average = 0.051375
	minimum = 0.043 (at node 7)
	maximum = 0.0593333 (at node 3)
Accepted flit rate average= 0.0514583
	minimum = 0.0446667 (at node 13)
	maximum = 0.0606667 (at node 9)
Injected packet length average = 1
Accepted packet length average = 1
Total in-flight flits = 13 (13 measured)
latency change    = 0.00241175
throughput change = 0.000809717
Class 0:
Packet latency average = 19.9759
	minimum = 7
	maximum = 52
Network latency average = 19.9759
	minimum = 7
	maximum = 52
Slowest packet = 16013
Flit latency average = 19.9837
	minimum = 7
	maximum = 52
Slowest flit = 16013
Fragmentation average = 0
	minimum = 0
	maximum = 0
Injected packet rate average = 0.0506562
	minimum = 0.04125 (at node 7)
	maximum = 0.055 (at node 1)
Accepted packet rate average = 0.0507344
	minimum = 0.046 (at node 13)
	maximum = 0.0575 (at node 1)
Injected flit rate average = 0.0506562
	minimum = 0.04125 (at node 7)
	maximum = 0.055 (at node 1)
Accepted flit rate average= 0.0507344
	minimum = 0.046 (at node 13)
	maximum = 0.0575 (at node 1)
Injected packet length average = 1
Accepted packet length average = 1
Total in-flight flits = 12 (12 measured)
latency change    = 0.00180072
throughput change = 0.0142696
Draining all recorded packets ...
Draining remaining packets ...
Time taken is 7043 cycles
Class 0:
Packet latency average = 20.1779
	minimum = 7
	maximum = 41
Network latency average = 20.1779
	minimum = 7
	maximum = 41
Slowest packet = 17456
Flit latency average = 20.1779
	minimum = 7
	maximum = 41
Slowest flit = 17456
Fragmentation average = 0
	minimum = 0
	maximum = 0
Injected packet rate average = 0.0508125
	minimum = 0.039 (at node 14)
	maximum = 0.058 (at node 2)
Accepted packet rate average = 0.049875
	minimum = 0.033 (at node 6)
	maximum = 0.064 (at node 11)
Injected flit rate average = 0.0508125
	minimum = 0.039 (at node 14)
	maximum = 0.058 (at node 2)
Accepted flit rate average= 0.049875
	minimum = 0.033 (at node 6)
	maximum = 0.064 (at node 11)
Injected packet length average = 1
Accepted packet length average = 1
Total in-flight flits = 15 (0 measured)
latency change    = 1
throughput change = 1
Class 0:
Packet latency average = 20.0815
	minimum = 7
	maximum = 43
Network latency average = 20.0815
	minimum = 7
	maximum = 43
Slowest packet = 18537
Flit latency average = 20.0815
	minimum = 7
	maximum = 43
Slowest flit = 18537
Fragmentation average = 0
	minimum = 0
	maximum = 0
Injected packet rate average = 0.0506562
	minimum = 0.0415 (at node 7)
	maximum = 0.0595 (at node 8)
Accepted packet rate average = 0.0502187
	minimum = 0.041 (at node 6)
	maximum = 0.0585 (at node 10)
Injected flit rate average = 0.0506562
	minimum = 0.0415 (at node 7)
	maximum = 0.0595 (at node 8)
Accepted flit rate average= 0.0502187
	minimum = 0.041 (at node 6)
	maximum = 0.0585 (at node 10)
Injected packet length average = 1
Accepted packet length average = 1
Total in-flight flits = 14 (0 measured)
latency change    = 0.00480175
throughput change = 0.00684505
Class 0:
Packet latency average = 20.1995
	minimum = 7
	maximum = 58
Network latency average = 20.1995
	minimum = 7
	maximum = 58
Slowest packet = 19427
Flit latency average = 20.1995
	minimum = 7
	maximum = 58
Slowest flit = 19427
Fragmentation average = 0
	minimum = 0
	maximum = 0
Injected packet rate average = 0.05425
	minimum = 0.043 (at node 15)
	maximum = 0.065 (at node 2)
Accepted packet rate average = 0.0545
	minimum = 0.042 (at node 11)
	maximum = 0.069 (at node 10)
Injected flit rate average = 0.05425
	minimum = 0.043 (at node 15)
	maximum = 0.065 (at node 2)
Accepted flit rate average= 0.0545
	minimum = 0.042 (at node 11)
	maximum = 0.069 (at node 10)
Injected packet length average = 1
Accepted packet length average = 1
Total in-flight flits = 10 (0 measured)
latency change    = 0.00584285
throughput change = 0.078555
Warmed up ...Time used is 3000 cycles
Class 0:
Packet latency average = 20.0219
	minimum = 7
	maximum = 45
Network latency average = 20.0219
	minimum = 7
	maximum = 45
Slowest packet = 20145
Flit latency average = 20.1081
	minimum = 7
	maximum = 45
Slowest flit = 20145
Fragmentation average = 0
	minimum = 0
	maximum = 0
Injected packet rate average = 0.0494375
	minimum = 0.039 (at node 7)
	maximum = 0.061 (at node 14)
Accepted packet rate average = 0.049125
	minimum = 0.039 (at node 7)
	maximum = 0.064 (at node 4)
Injected flit rate average = 0.0494375
	minimum = 0.039 (at node 7)
	maximum = 0.061 (at node 14)
Accepted flit rate average= 0.049125
	minimum = 0.039 (at node 7)
	maximum = 0.064 (at node 4)
Injected packet length average = 1
Accepted packet length average = 1
Total in-flight flits = 15 (15 measured)
latency change    = 0.00887199
throughput change = 0.109415
Class 0:
Packet latency average = 20.0686
	minimum = 7
	maximum = 45
Network latency average = 20.0686
	minimum = 7
	maximum = 45
Slowest packet = 20145
Flit latency average = 20.1119
	minimum = 7
	maximum = 45
Slowest flit = 20145
Fragmentation average = 0
	minimum = 0
	maximum = 0
Injected packet rate average = 0.0486562
	minimum = 0.041 (at node 2)
	maximum = 0.0555 (at node 14)
Accepted packet rate average = 0.0485937
	minimum = 0.0405 (at node 0)
	maximum = 0.056 (at node 1)
Injected flit rate average = 0.0486562
	minimum = 0.041 (at node 2)
	maximum = 0.0555 (at node 14)
Accepted flit rate average= 0.0485937
	minimum = 0.0405 (at node 0)
	maximum = 0.056 (at node 1)
Injected packet length average = 1
Accepted packet length average = 1
Total in-flight flits = 12 (12 measured)
latency change    = 0.00232708
throughput change = 0.0109325
Class 0:
Packet latency average = 20.1585
	minimum = 7
	maximum = 46
Network latency average = 20.1585
	minimum = 7
	maximum = 46
Slowest packet = 21256
Flit latency average = 20.1868
	minimum = 7
	maximum = 46
Slowest flit = 21256
Fragmentation average = 0
	minimum = 0
	maximum = 0
Injected packet rate average = 0.0489167
	minimum = 0.0426667 (at node 2)
	maximum = 0.0536667 (at node 14)
Accepted packet rate average = 0.0488542
	minimum = 0.0416667 (at node 12)
	maximum = 0.058 (at node 4)
Injected flit rate average = 0.0489167
	minimum = 0.0426667 (at node 2)
	maximum = 0.0536667 (at node 14)
Accepted flit rate average= 0.0488542
	minimum = 0.0416667 (at node 12)
	maximum = 0.058 (at node 4)
Injected packet length average = 1
Accepted packet length average = 1
Total in-flight flits = 13 (13 measured)
latency change    = 0.00445718
throughput change = 0.00533049
Class 0:
Packet latency average = 20.1611
	minimum = 7
	maximum = 46
Network latency average = 20.1611
	minimum = 7
	maximum = 46
Slowest packet = 21256
Flit latency average = 20.1822
	minimum = 7
	maximum = 46
Slowest flit = 21256
Fragmentation average = 0
	minimum = 0
	maximum = 0
Injected packet rate average = 0.0492812
	minimum = 0.04425 (at node 10)
	maximum = 0.05425 (at node 13)
Accepted packet rate average = 0.0491406
	minimum = 0.043 (at node 5)
	maximum = 0.05675 (at node 4)
Injected flit rate average = 0.0492812
	minimum = 0.04425 (at node 10)
	maximum = 0.05425 (at node 13)
Accepted flit rate average= 0.0491406
	minimum = 0.043 (at node 5)
	maximum = 0.05675 (at node 4)
Injected packet length average = 1
Accepted packet length average = 1
Total in-flight flits = 19 (19 measured)
latency change    = 0.000130265
throughput change = 0.00582936
Draining all recorded packets ...
Draining remaining packets ...
Time taken is 7057 cycles
Class 0:
Packet latency average = 19.937
	minimum = 7
	maximum = 44
Network latency average = 19.937
	minimum = 7
	maximum = 44
Slowest packet = 23373
Flit latency average = 19.937
	minimum = 7
	maximum = 44
Slowest flit = 23373
Fragmentation average = 0
	minimum = 0
	maximum = 0
Injected packet rate average = 0.047875
	minimum = 0.039 (at node 1)
	maximum = 0.055 (at node 4)
Accepted packet rate average = 0.046625
	minimum = 0.036 (at node 15)
	maximum = 0.057 (at node 4)
Injected flit rate average = 0.047875
	minimum = 0.039 (at node 1)
	maximum = 0.055 (at node 4)
Accepted flit rate average= 0.046625
	minimum = 0.036 (at node 15)
	maximum = 0.057 (at node 4)
Injected packet length average = 1
Accepted packet length average = 1
Total in-flight flits = 20 (0 measured)
latency change    = 1
throughput change = 1
Class 0:
Packet latency average = 19.8353
	minimum = 7
	maximum = 44
Network latency average = 19.8353
	minimum = 7
	maximum = 44
Slowest packet = 23373
Flit latency average = 19.8353
	minimum = 7
	maximum = 44
Slowest flit = 23373
Fragmentation average = 0
	minimum = 0
	maximum = 0
Injected packet rate average = 0.048125
	minimum = 0.04 (at node 12)
	maximum = 0.0555 (at node 6)
Accepted packet rate average = 0.047625
	minimum = 0.0415 (at node 11)
	maximum = 0.054 (at node 14)
Injected flit rate average = 0.048125
	minimum = 0.04 (at node 12)
	maximum = 0.0555 (at node 6)
Accepted flit rate average= 0.047625
	minimum = 0.0415 (at node 11)
	maximum = 0.054 (at node 14)
Injected packet length average = 1
Accepted packet length average = 1
Total in-flight flits = 16 (0 measured)
latency change    = 0.00512699
throughput change = 0.0209974
Class 0:
Packet latency average = 19.8053
	minimum = 7
	maximum = 46
Network latency average = 19.8053
	minimum = 7
	maximum = 46
Slowest packet = 24531
Flit latency average = 19.8053
	minimum = 7
	maximum = 46
Slowest flit = 24531
Fragmentation average = 0
	minimum = 0
	maximum = 0
Injected packet rate average = 0.051875
	minimum = 0.038 (at node 11)
	maximum = 0.061 (at node 9)
Accepted packet rate average = 0.052
	minimum = 0.038 (at node 15)
	maximum = 0.07 (at node 1)
Injected flit rate average = 0.051875
	minimum = 0.038 (at node 11)
	maximum = 0.061 (at node 9)
Accepted flit rate average= 0.052
	minimum = 0.038 (at node 15)
	maximum = 0.07 (at node 1)
Injected packet length average = 1
Accepted packet length average = 1
Total in-flight flits = 14 (0 measured)
latency change    = 0.00151542
throughput change = 0.0841346
Warmed up ...Time used is 3000 cycles
Class 0:
Packet latency average = 20.4887
	minimum = 7
	maximum = 46
Network latency average = 20.4887
	minimum = 7
	maximum = 46
Slowest packet = 25591
Flit latency average = 20.5553
	minimum = 7
	maximum = 46
Slowest flit = 25591
Fragmentation average = 0
	minimum = 0
	maximum = 0
Injected packet rate average = 0.048125
	minimum = 0.034 (at node 3)
	maximum = 0.064 (at node 12)
Accepted packet rate average = 0.0480625
	minimum = 0.037 (at node 0)
	maximum = 0.059 (at node 5)
Injected flit rate average = 0.048125
	minimum = 0.034 (at node 3)
	maximum = 0.064 (at node 12)
Accepted flit rate average= 0.0480625
	minimum = 0.037 (at node 0)
	maximum = 0.059 (at node 5)
Injected packet length average = 1
Accepted packet length average = 1
Total in-flight flits = 15 (15 measured)
latency change    = 0.0333575
throughput change = 0.0819246
Class 0:
Packet latency average = 20.3802
	minimum = 7
	maximum = 50
Network latency average = 20.3802
	minimum = 7
	maximum = 50
Slowest packet = 26558
Flit latency average = 20.4147
	minimum = 7
	maximum = 50
Slowest flit = 26558
Fragmentation average = 0
	minimum = 0
	maximum = 0
Injected packet rate average = 0.04775
	minimum = 0.037 (at node 7)
	maximum = 0.06 (at node 12)
Accepted packet rate average = 0.0477812
	minimum = 0.039 (at node 10)
	maximum = 0.0545 (at node 2)
Injected flit rate average = 0.04775
	minimum = 0.037 (at node 7)
	maximum = 0.06 (at node 12)
Accepted flit rate average= 0.0477812
	minimum = 0.039 (at node 10)
	maximum = 0.0545 (at node 2)
Injected packet length average = 1
Accepted packet length average = 1
Total in-flight flits = 13 (13 measured)
latency change    = 0.00532594
throughput change = 0.0058862
Class 0:
Packet latency average = 20.3179
	minimum = 7
	maximum = 50
Network latency average = 20.3179
	minimum = 7
	maximum = 50
Slowest packet = 26558
Flit latency average = 20.3409
	minimum = 7
	maximum = 50
Slowest flit = 26558
Fragmentation average = 0
	minimum = 0
	maximum = 0
Injected packet rate average = 0.0483542
	minimum = 0.0383333 (at node 4)
	maximum = 0.058 (at node 12)
Accepted packet rate average = 0.0484583
	minimum = 0.041 (at node 10)
	maximum = 0.0543333 (at node 15)
Injected flit rate average = 0.0483542
	minimum = 0.0383333 (at node 4)
	maximum = 0.058 (at node 12)
Accepted flit rate average= 0.0484583
	minimum = 0.041 (at node 10)
	maximum = 0.0543333 (at node 15)
Injected packet length average = 1
Accepted packet length average = 1
Total in-flight flits = 9 (9 measured)
latency change    = 0.00306584
throughput change = 0.0139725
Class 0:
Packet latency average = 20.2015
	minimum = 7
	maximum = 50
Network latency average = 20.2015
	minimum = 7
	maximum = 50
Slowest packet = 26558
Flit latency average = 20.2191
	minimum = 7
	maximum = 50
Slowest flit = 26558
Fragmentation average = 0
	minimum = 0
	maximum = 0
Injected packet rate average = 0.0490156
	minimum = 0.0395 (at node 3)
	maximum = 0.056 (at node 12)
Accepted packet rate average = 0.049
	minimum = 0.04425 (at node 4)
	maximum = 0.0545 (at node 15)
Injected flit rate average = 0.0490156
	minimum = 0.0395 (at node 3)
	maximum = 0.056 (at node 12)
Accepted flit rate average= 0.049
	minimum = 0.04425 (at node 4)
	maximum = 0.0545 (at node 15)
Injected packet length average = 1
Accepted packet length average = 1
Total in-flight flits = 15 (15 measured)
latency change    = 0.0057636
throughput change = 0.0110544
Draining all recorded packets ...
Draining remaining packets ...
Time taken is 7064 cycles
Class 0:
Packet latency average = 20.1685
	minimum = 7
	maximum = 46
Network latency average = 20.1685
	minimum = 7
	maximum = 46
Slowest packet = 28433
Flit latency average = 20.1685
	minimum = 7
	maximum = 46
Slowest flit = 28433
Fragmentation average = 0
	minimum = 0
	maximum = 0
Injected packet rate average = 0.0528125
	minimum = 0.043 (at node 6)
	maximum = 0.07 (at node 2)
Accepted packet rate average = 0.0511875
	minimum = 0.04 (at node 3)
	maximum = 0.062 (at node 1)
Injected flit rate average = 0.0528125
	minimum = 0.043 (at node 6)
	maximum = 0.07 (at node 2)
Accepted flit rate average= 0.0511875
	minimum = 0.04 (at node 3)
	maximum = 0.062 (at node 1)
Injected packet length average = 1
Accepted packet length average = 1
Total in-flight flits = 26 (0 measured)
latency change    = 1
throughput change = 1
Class 0:
Packet latency average = 20.1441
	minimum = 7
	maximum = 49
Network latency average = 20.1441
	minimum = 7
	maximum = 49
Slowest packet = 29141
Flit latency average = 20.1441
	minimum = 7
	maximum = 49
Slowest flit = 29141
Fragmentation average = 0
	minimum = 0
	maximum = 0
Injected packet rate average = 0.0513125
	minimum = 0.044 (at node 3)
	maximum = 0.0625 (at node 11)
Accepted packet rate average = 0.05075
	minimum = 0.039 (at node 3)
	maximum = 0.058 (at node 11)
Injected flit rate average = 0.0513125
	minimum = 0.044 (at node 3)
	maximum = 0.0625 (at node 11)
Accepted flit rate average= 0.05075
	minimum = 0.039 (at node 3)
	maximum = 0.058 (at node 11)
Injected packet length average = 1
Accepted packet length average = 1
Total in-flight flits = 18 (0 measured)
latency change    = 0.00121174
throughput change = 0.00862069
Class 0:
Packet latency average = 20.6067
	minimum = 7
	maximum = 43
Network latency average = 20.6067
	minimum = 7
	maximum = 43
Slowest packet = 30661
Flit latency average = 20.6067
	minimum = 7
	maximum = 43
Slowest flit = 30661
Fragmentation average = 0
	minimum = 0
	maximum = 0
Injected packet rate average = 0.0505
	minimum = 0.038 (at node 11)
	maximum = 0.058 (at node 5)
Accepted packet rate average = 0.050375
	minimum = 0.041 (at node 8)
	maximum = 0.06 (at node 0)
Injected flit rate average = 0.0505
	minimum = 0.038 (at node 11)
	maximum = 0.058 (at node 5)
Accepted flit rate average= 0.050375
	minimum = 0.041 (at node 8)
	maximum = 0.06 (at node 0)
Injected packet length average = 1
Accepted packet length average = 1
Total in-flight flits = 20 (0 measured)
latency change    = 0.0224495
throughput change = 0.00744417
Warmed up ...Time used is 3000 cycles
Class 0:
Packet latency average = 20.03
	minimum = 7
	maximum = 44
Network latency average = 20.03
	minimum = 7
	maximum = 44
Slowest packet = 30928
Flit latency average = 20.1832
	minimum = 7
	maximum = 44
Slowest flit = 30928
Fragmentation average = 0
	minimum = 0
	maximum = 0
Injected packet rate average = 0.0509375
	minimum = 0.039 (at node 9)
	maximum = 0.065 (at node 4)
Accepted packet rate average = 0.0511875
	minimum = 0.039 (at node 13)
	maximum = 0.061 (at node 11)
Injected flit rate average = 0.0509375
	minimum = 0.039 (at node 9)
	maximum = 0.065 (at node 4)
Accepted flit rate average= 0.0511875
	minimum = 0.039 (at node 13)
	maximum = 0.061 (at node 11)
Injected packet length average = 1
Accepted packet length average = 1
Total in-flight flits = 16 (16 measured)
latency change    = 0.0287899
throughput change = 0.015873
Class 0:
Packet latency average = 19.8978
	minimum = 7
	maximum = 44
Network latency average = 19.8978
	minimum = 7
	maximum = 44
Slowest packet = 30928
Flit latency average = 19.9771
	minimum = 7
	maximum = 44
Slowest flit = 30928
Fragmentation average = 0
	minimum = 0
	maximum = 0
Injected packet rate average = 0.050375
	minimum = 0.043 (at node 9)
	maximum = 0.0555 (at node 5)
Accepted packet rate average = 0.0504687
	minimum = 0.039 (at node 13)
	maximum = 0.059 (at node 6)
Injected flit rate average = 0.050375
	minimum = 0.043 (at node 9)
	maximum = 0.0555 (at node 5)
Accepted flit rate average= 0.0504687
	minimum = 0.039 (at node 13)
	maximum = 0.059 (at node 6)
Injected packet length average = 1
Accepted packet length average = 1
Total in-flight flits = 17 (17 measured)
latency change    = 0.00664555
throughput change = 0.0142415
Class 0:
Packet latency average = 19.9496
	minimum = 7
	maximum = 44
Network latency average = 19.9496
	minimum = 7
	maximum = 44
Slowest packet = 30928
Flit latency average = 20.0025
	minimum = 7
	maximum = 44
Slowest flit = 30928
Fragmentation average = 0
	minimum = 0
	maximum = 0
Injected packet rate average = 0.049875
	minimum = 0.0443333 (at node 9)
	maximum = 0.054 (at node 15)
Accepted packet rate average = 0.0500417
	minimum = 0.0446667 (at node 13)
	maximum = 0.057 (at node 6)
Injected flit rate average = 0.049875
	minimum = 0.0443333 (at node 9)
	maximum = 0.054 (at node 15)
Accepted flit rate average= 0.0500417
	minimum = 0.0446667 (at node 13)
	maximum = 0.057 (at node 6)
Injected packet length average = 1
Accepted packet length average = 1
Total in-flight flits = 12 (12 measured)
latency change    = 0.00259737
throughput change = 0.00853455
Draining all recorded packets ...
Draining remaining packets ...
Time taken is 6060 cycles
Class 0:
Packet latency average = 19.9964
	minimum = 7
	maximum = 43
Network latency average = 19.9964
	minimum = 7
	maximum = 43
Slowest packet = 33975
Flit latency average = 19.9964
	minimum = 7
	maximum = 43
Slowest flit = 33975
Fragmentation average = 0
	minimum = 0
	maximum = 0
Injected packet rate average = 0.053
	minimum = 0.044 (at node 7)
	maximum = 0.061 (at node 2)
Accepted packet rate average = 0.052375
	minimum = 0.04 (at node 12)
	maximum = 0.068 (at node 0)
Injected flit rate average = 0.053
	minimum = 0.044 (at node 7)
	maximum = 0.061 (at node 2)
Accepted flit rate average= 0.052375
	minimum = 0.04 (at node 12)
	maximum = 0.068 (at node 0)
Injected packet length average = 1
Accepted packet length average = 1
Total in-flight flits = 10 (0 measured)
latency change    = 1
throughput change = 1
Class 0:
Packet latency average = 20.0133
	minimum = 7
	maximum = 46
Network latency average = 20.0133
	minimum = 7
	maximum = 46
Slowest packet = 34387
Flit latency average = 20.0133
	minimum = 7
	maximum = 46
Slowest flit = 34387
Fragmentation average = 0
	minimum = 0
	maximum = 0
Injected packet rate average = 0.0522188
	minimum = 0.0475 (at node 1)
	maximum = 0.06 (at node 9)
Accepted packet rate average = 0.0517188
	minimum = 0.0405 (at node 12)
	maximum = 0.061 (at node 11)
Injected flit rate average = 0.0522188
	minimum = 0.0475 (at node 1)
	maximum = 0.06 (at node 9)
Accepted flit rate average= 0.0517188
	minimum = 0.0405 (at node 12)
	maximum = 0.061 (at node 11)
Injected packet length average = 1
Accepted packet length average = 1
Total in-flight flits = 16 (0 measured)
latency change    = 0.00084309
throughput change = 0.0126888
Class 0:
Packet latency average = 20.1479
	minimum = 7
	maximum = 49
Network latency average = 20.1479
	minimum = 7
	maximum = 49
Slowest packet = 35425
Flit latency average = 20.1479
	minimum = 7
	maximum = 49
Slowest flit = 35425
Fragmentation average = 0
	minimum = 0
	maximum = 0
Injected packet rate average = 0.0530625
	minimum = 0.039 (at node 2)
	maximum = 0.063 (at node 10)
Accepted packet rate average = 0.0528125
	minimum = 0.039 (at node 4)
	maximum = 0.062 (at node 11)
Injected flit rate average = 0.0530625
	minimum = 0.039 (at node 2)
	maximum = 0.063 (at node 10)
Accepted flit rate average= 0.0528125
	minimum = 0.039 (at node 4)
	maximum = 0.062 (at node 11)
Injected packet length average = 1
Accepted packet length average = 1
Total in-flight flits = 20 (0 measured)
latency change    = 0.00668237
throughput change = 0.0207101
Warmed up ...Time used is 3000 cycles
Class 0:
Packet latency average = 19.917
	minimum = 7
	maximum = 54
Network latency average = 19.917
	minimum = 7
	maximum = 54
Slowest packet = 35979
Flit latency average = 20.0411
	minimum = 7
	maximum = 54
Slowest flit = 35979
Fragmentation average = 0
	minimum = 0
	maximum = 0
Injected packet rate average = 0.0530625
	minimum = 0.035 (at node 13)
	maximum = 0.073 (at node 5)
Accepted packet rate average = 0.0531875
	minimum = 0.046 (at node 2)
	maximum = 0.073 (at node 5)
Injected flit rate average = 0.0530625
	minimum = 0.035 (at node 13)
	maximum = 0.073 (at node 5)
Accepted flit rate average= 0.0531875
	minimum = 0.046 (at node 2)
	maximum = 0.073 (at node 5)
Injected packet length average = 1
Accepted packet length average = 1
Total in-flight flits = 18 (18 measured)
latency change    = 0.0115962
throughput change = 0.00705053
Class 0:
Packet latency average = 20.0811
	minimum = 7
	maximum = 54
Network latency average = 20.0811
	minimum = 7
	maximum = 54
Slowest packet = 35979
Flit latency average = 20.1437
	minimum = 7
	maximum = 54
Slowest flit = 35979
Fragmentation average = 0
	minimum = 0
	maximum = 0
Injected packet rate average = 0.0508125
	minimum = 0.041 (at node 2)
	maximum = 0.0595 (at node 5)
Accepted packet rate average = 0.0510938
	minimum = 0.042 (at node 2)
	maximum = 0.06 (at node 5)
Injected flit rate average = 0.0508125
	minimum = 0.041 (at node 2)
	maximum = 0.0595 (at node 5)
Accepted flit rate average= 0.0510938
	minimum = 0.042 (at node 2)
	maximum = 0.06 (at node 5)
Injected packet length average = 1
Accepted packet length average = 1
Total in-flight flits = 11 (11 measured)
latency change    = 0.0081742
throughput change = 0.0409786
Class 0:
Packet latency average = 20.2014
	minimum = 7
	maximum = 54
Network latency average = 20.2014
	minimum = 7
	maximum = 54
Slowest packet = 35979
Flit latency average = 20.2424
	minimum = 7
	maximum = 54
Slowest flit = 35979
Fragmentation average = 0
	minimum = 0
	maximum = 0
Injected packet rate average = 0.0507083
	minimum = 0.0416667 (at node 11)
	maximum = 0.0603333 (at node 1)
Accepted packet rate average = 0.0507917
	minimum = 0.043 (at node 13)
	maximum = 0.0586667 (at node 12)
Injected flit rate average = 0.0507083
	minimum = 0.0416667 (at node 11)
	maximum = 0.0603333 (at node 1)
Accepted flit rate average= 0.0507917
	minimum = 0.043 (at node 13)
	maximum = 0.0586667 (at node 12)
Injected packet length average = 1
Accepted packet length average = 1
Total in-flight flits = 16 (16 measured)
latency change    = 0.00595461
throughput change = 0.0059475
Draining all recorded packets ...
Draining remaining packets ...
Time taken is 6056 cycles
Class 0:
Packet latency average = 19.9154
	minimum = 7
	maximum = 41
Network latency average = 19.9154
	minimum = 7
	maximum = 41
Slowest packet = 38610
Flit latency average = 19.9154
	minimum = 7
	maximum = 41
Slowest flit = 38610
Fragmentation average = 0
	minimum = 0
	maximum = 0
Injected packet rate average = 0.0539375
	minimum = 0.028 (at node 4)
	maximum = 0.067 (at node 11)
Accepted packet rate average = 0.0531875
	minimum = 0.043 (at node 15)
	maximum = 0.064 (at node 7)
Injected flit rate average = 0.0539375
	minimum = 0.028 (at node 4)
	maximum = 0.067 (at node 11)
Accepted flit rate average= 0.0531875
	minimum = 0.043 (at node 15)
	maximum = 0.064 (at node 7)
Injected packet length average = 1
Accepted packet length average = 1
Total in-flight flits = 12 (0 measured)
latency change    = 1
throughput change = 1
Class 0:
Packet latency average = 20.0973
	minimum = 7
	maximum = 44
Network latency average = 20.0973
	minimum = 7
	maximum = 44
Slowest packet = 39112
Flit latency average = 20.0973
	minimum = 7
	maximum = 44
Slowest flit = 39112
Fragmentation average = 0
	minimum = 0
	maximum = 0
Injected packet rate average = 0.0532813
	minimum = 0.046 (at node 4)
	maximum = 0.061 (at node 9)
Accepted packet rate average = 0.0526563
	minimum = 0.046 (at node 3)
	maximum = 0.059 (at node 11)
Injected flit rate average = 0.0532813
	minimum = 0.046 (at node 4)
	maximum = 0.061 (at node 9)
Accepted flit rate average= 0.0526563
	minimum = 0.046 (at node 3)
	maximum = 0.059 (at node 11)
Injected packet length average = 1
Accepted packet length average = 1
Total in-flight flits = 20 (0 measured)
latency change    = 0.00905273
throughput change = 0.010089
Class 0:
Packet latency average = 19.9125
	minimum = 7
	maximum = 48
Network latency average = 19.9125
	minimum = 7
	maximum = 48
Slowest packet = 40462
Flit latency average = 19.9125
	minimum = 7
	maximum = 48
Slowest flit = 40462
Fragmentation average = 0
	minimum = 0
	maximum = 0
Injected packet rate average = 0.048125
	minimum = 0.042 (at node 0)
	maximum = 0.055 (at node 13)
Accepted packet rate average = 0.047875
	minimum = 0.039 (at node 6)
	maximum = 0.059 (at node 4)
Injected flit rate average = 0.048125
	minimum = 0.042 (at node 0)
	maximum = 0.055 (at node 13)
Accepted flit rate average= 0.047875
	minimum = 0.039 (at node 6)
	maximum = 0.059 (at node 4)
Injected packet length average = 1
Accepted packet length average = 1
Total in-flight flits = 24 (0 measured)
latency change    = 0.00928042
throughput change = 0.0998695
Warmed up ...Time used is 3000 cycles
Class 0:
Packet latency average = 19.7085
	minimum = 7
	maximum = 41
Network latency average = 19.7085
	minimum = 7
	maximum = 41
Slowest packet = 40830
Flit latency average = 19.8619
	minimum = 7
	maximum = 45
Slowest flit = 40605
Fragmentation average = 0
	minimum = 0
	maximum = 0
Injected packet rate average = 0.048125
	minimum = 0.039 (at node 2)
	maximum = 0.062 (at node 5)
Accepted packet rate average = 0.0493125
	minimum = 0.032 (at node 0)
	maximum = 0.06 (at node 4)
Injected flit rate average = 0.048125
	minimum = 0.039 (at node 2)
	maximum = 0.062 (at node 5)
Accepted flit rate average= 0.0493125
	minimum = 0.032 (at node 0)
	maximum = 0.06 (at node 4)
Injected packet length average = 1
Accepted packet length average = 1
Total in-flight flits = 5 (5 measured)
latency change    = 0.0103527
throughput change = 0.0291508
Class 0:
Packet latency average = 19.9319
	minimum = 7
	maximum = 46
Network latency average = 19.9319
	minimum = 7
	maximum = 46
Slowest packet = 42095
Flit latency average = 20.0051
	minimum = 7
	maximum = 46
Slowest flit = 42095
Fragmentation average = 0
	minimum = 0
	maximum = 0
Injected packet rate average = 0.04925
	minimum = 0.0425 (at node 14)
	maximum = 0.0585 (at node 5)
Accepted packet rate average = 0.0494062
	minimum = 0.0395 (at node 6)
	maximum = 0.0565 (at node 14)
Injected flit rate average = 0.04925
	minimum = 0.0425 (at node 14)
	maximum = 0.0585 (at node 5)
Accepted flit rate average= 0.0494062
	minimum = 0.0395 (at node 6)
	maximum = 0.0565 (at node 14)
Injected packet length average = 1
Accepted packet length average = 1
Total in-flight flits = 19 (19 measured)
latency change    = 0.0112093
throughput change = 0.00189753
Class 0:
Packet latency average = 20.0166
	minimum = 7
	maximum = 46
Network latency average = 20.0166
	minimum = 7
	maximum = 46
Slowest packet = 42095
Flit latency average = 20.0634
	minimum = 7
	maximum = 46
Slowest flit = 42095
Fragmentation average = 0
	minimum = 0
	maximum = 0
Injected packet rate average = 0.0505208
	minimum = 0.045 (at node 11)
	maximum = 0.055 (at node 5)
Accepted packet rate average = 0.0505833
	minimum = 0.0443333 (at node 6)
	maximum = 0.059 (at node 4)
Injected flit rate average = 0.0505208
	minimum = 0.045 (at node 11)
	maximum = 0.055 (at node 5)
Accepted flit rate average= 0.0505833
	minimum = 0.0443333 (at node 6)
	maximum = 0.059 (at node 4)
Injected packet length average = 1
Accepted packet length average = 1
Total in-flight flits = 21 (21 measured)
latency change    = 0.00423241
throughput change = 0.0232702
Draining all recorded packets ...
Draining remaining packets ...
Time taken is 6061 cycles
Class 0:
Packet latency average = 19.8413
	minimum = 7
	maximum = 46
Network latency average = 19.8413
	minimum = 7
	maximum = 46
Slowest packet = 43816
Flit latency average = 19.8413
	minimum = 7
	maximum = 46
Slowest flit = 43816
Fragmentation average = 0
	minimum = 0
	maximum = 0
Injected packet rate average = 0.0496875
	minimum = 0.038 (at node 12)
	maximum = 0.059 (at node 3)
Accepted packet rate average = 0.0484375
	minimum = 0.039 (at node 0)
	maximum = 0.063 (at node 11)
Injected flit rate average = 0.0496875
	minimum = 0.038 (at node 12)
	maximum = 0.059 (at node 3)
Accepted flit rate average= 0.0484375
	minimum = 0.039 (at node 0)
	maximum = 0.063 (at node 11)
Injected packet length average = 1
Accepted packet length average = 1
Total in-flight flits = 20 (0 measured)
latency change    = 1
throughput change = 1
Class 0:
Packet latency average = 19.8401
	minimum = 7
	maximum = 48
Network latency average = 19.8401
	minimum = 7
	maximum = 48
Slowest packet = 44101
Flit latency average = 19.8401
	minimum = 7
	maximum = 48
Slowest flit = 44101
Fragmentation average = 0
	minimum = 0
	maximum = 0
Injected packet rate average = 0.0489062
	minimum = 0.043 (at node 4)
	maximum = 0.056 (at node 3)
Accepted packet rate average = 0.0484687
	minimum = 0.0415 (at node 0)
	maximum = 0.06 (at node 11)
Injected flit rate average = 0.0489062
	minimum = 0.043 (at node 4)
	maximum = 0.056 (at node 3)
Accepted flit rate average= 0.0484687
	minimum = 0.0415 (at node 0)
	maximum = 0.06 (at node 11)
Injected packet length average = 1
Accepted packet length average = 1
Total in-flight flits = 14 (0 measured)
latency change    = 5.98366e-05
throughput change = 0.000644745
Class 0:
Packet latency average = 20.0398
	minimum = 7
	maximum = 43
Network latency average = 20.0398
	minimum = 7
	maximum = 43
Slowest packet = 44830
Flit latency average = 20.0398
	minimum = 7
	maximum = 43
Slowest flit = 44830
Fragmentation average = 0
	minimum = 0
	maximum = 0
Injected packet rate average = 0.05025
	minimum = 0.043 (at node 0)
	maximum = 0.06 (at node 1)
Accepted packet rate average = 0.05025
	minimum = 0.039 (at node 11)
	maximum = 0.062 (at node 8)
Injected flit rate average = 0.05025
	minimum = 0.043 (at node 0)
	maximum = 0.06 (at node 1)
Accepted flit rate average= 0.05025
	minimum = 0.039 (at node 11)
	maximum = 0.062 (at node 8)
Injected packet length average = 1
Accepted packet length average = 1
Total in-flight flits = 14 (0 measured)
latency change    = 0.00996506
throughput change = 0.0354478
Warmed up ...Time used is 3000 cycles
Class 0:
Packet latency average = 19.5327
	minimum = 7
	maximum = 45
Network latency average = 19.5327
	minimum = 7
	maximum = 45
Slowest packet = 45740
Flit latency average = 19.5468
	minimum = 7
	maximum = 45
Slowest flit = 45740
Fragmentation average = 0
	minimum = 0
	maximum = 0
Injected packet rate average = 0.046625
	minimum = 0.038 (at node 6)
	maximum = 0.062 (at node 1)
Accepted packet rate average = 0.04675
	minimum = 0.039 (at node 7)
	maximum = 0.054 (at node 6)
Injected flit rate average = 0.046625
	minimum = 0.038 (at node 6)
	maximum = 0.062 (at node 1)
Accepted flit rate average= 0.04675
	minimum = 0.039 (at node 7)
	maximum = 0.054 (at node 6)
Injected packet length average = 1
Accepted packet length average = 1
Total in-flight flits = 12 (12 measured)
latency change    = 0.0259618
throughput change = 0.0748663
Class 0:
Packet latency average = 19.8887
	minimum = 7
	maximum = 49
Network latency average = 19.8887
	minimum = 7
	maximum = 49
Slowest packet = 46462
Flit latency average = 19.8924
	minimum = 7
	maximum = 49
Slowest flit = 46462
Fragmentation average = 0
	minimum = 0
	maximum = 0
Injected packet rate average = 0.0474687
	minimum = 0.036 (at node 13)
	maximum = 0.057 (at node 8)
Accepted packet rate average = 0.0473437
	minimum = 0.0375 (at node 9)
	maximum = 0.0545 (at node 2)
Injected flit rate average = 0.0474687
	minimum = 0.036 (at node 13)
	maximum = 0.057 (at node 8)
Accepted flit rate average= 0.0473437
	minimum = 0.0375 (at node 9)
	maximum = 0.0545 (at node 2)
Injected packet length average = 1
Accepted packet length average = 1
Total in-flight flits = 18 (18 measured)
latency change    = 0.0179018
throughput change = 0.0125413
Class 0:
Packet latency average = 20.0845
	minimum = 7
	maximum = 54
Network latency average = 20.0845
	minimum = 7
	maximum = 54
Slowest packet = 47110
Flit latency average = 20.0858
	minimum = 7
	maximum = 54
Slowest flit = 47110
Fragmentation average = 0
	minimum = 0
	maximum = 0
Injected packet rate average = 0.0478958
	minimum = 0.036 (at node 13)
	maximum = 0.0553333 (at node 8)
Accepted packet rate average = 0.0478542
	minimum = 0.041 (at node 9)
	maximum = 0.0593333 (at node 6)
Injected flit rate average = 0.0478958
	minimum = 0.036 (at node 13)
	maximum = 0.0553333 (at node 8)
Accepted flit rate average= 0.0478542
	minimum = 0.041 (at node 9)
	maximum = 0.0593333 (at node 6)
Injected packet length average = 1
Accepted packet length average = 1
Total in-flight flits = 16 (16 measured)
latency change    = 0.00974865
throughput change = 0.0106661
Class 0:
Packet latency average = 19.9929
	minimum = 7
	maximum = 54
Network latency average = 19.9929
	minimum = 7
	maximum = 54
Slowest packet = 47110
Flit latency average = 19.9942
	minimum = 7
	maximum = 54
Slowest flit = 47110
Fragmentation average = 0
	minimum = 0
	maximum = 0
Injected packet rate average = 0.0489531
	minimum = 0.04075 (at node 13)
	maximum = 0.05525 (at node 4)
Accepted packet rate average = 0.0489062
	minimum = 0.041 (at node 13)
	maximum = 0.05875 (at node 6)
Injected flit rate average = 0.0489531
	minimum = 0.04075 (at node 13)
	maximum = 0.05525 (at node 4)
Accepted flit rate average= 0.0489062
	minimum = 0.041 (at node 13)
	maximum = 0.05875 (at node 6)
Injected packet length average = 1
Accepted packet length average = 1
Total in-flight flits = 17 (17 measured)
latency change    = 0.00458153
throughput change = 0.0215122
Draining all recorded packets ...
Draining remaining packets ...
Time taken is 7052 cycles
Class 0:
Packet latency average = 19.5568
	minimum = 7
	maximum = 45
Network latency average = 19.5568
	minimum = 7
	maximum = 45
Slowest packet = 49246
Flit latency average = 19.5568
	minimum = 7
	maximum = 45
Slowest flit = 49246
Fragmentation average = 0
	minimum = 0
	maximum = 0
Injected packet rate average = 0.0493125
	minimum = 0.035 (at node 12)
	maximum = 0.058 (at node 5)
Accepted packet rate average = 0.048375
	minimum = 0.041 (at node 14)
	maximum = 0.061 (at node 1)
Injected flit rate average = 0.0493125
	minimum = 0.035 (at node 12)
	maximum = 0.058 (at node 5)
Accepted flit rate average= 0.048375
	minimum = 0.041 (at node 14)
	maximum = 0.061 (at node 1)
Injected packet length average = 1
Accepted packet length average = 1
Total in-flight flits = 15 (0 measured)
latency change    = 1
throughput change = 1
Class 0:
Packet latency average = 20.0098
	minimum = 7
	maximum = 48
Network latency average = 20.0098
	minimum = 7
	maximum = 48
Slowest packet = 49698
Flit latency average = 20.0098
	minimum = 7
	maximum = 48
Slowest flit = 49698
Fragmentation average = 0
	minimum = 0
	maximum = 0
Injected packet rate average = 0.0484062
	minimum = 0.0405 (at node 12)
	maximum = 0.056 (at node 2)
Accepted packet rate average = 0.0477812
	minimum = 0.0415 (at node 2)
	maximum = 0.059 (at node 3)
Injected flit rate average = 0.0484062
	minimum = 0.0405 (at node 12)
	maximum = 0.056 (at node 2)
Accepted flit rate average= 0.0477812
	minimum = 0.0415 (at node 2)
	maximum = 0.059 (at node 3)
Injected packet length average = 1
Accepted packet length average = 1
Total in-flight flits = 20 (0 measured)
latency change    = 0.022637
throughput change = 0.0124264
Class 0:
Packet latency average = 20.1731
	minimum = 7
	maximum = 47
Network latency average = 20.1718
	minimum = 7
	maximum = 47
Slowest packet = 50549
Flit latency average = 20.1718
	minimum = 7
	maximum = 47
Slowest flit = 50549
Fragmentation average = 0
	minimum = 0
	maximum = 0
Injected packet rate average = 0.047875
	minimum = 0.034 (at node 12)
	maximum = 0.062 (at node 1)
Accepted packet rate average = 0.048375
	minimum = 0.036 (at node 3)
	maximum = 0.059 (at node 7)
Injected flit rate average = 0.047875
	minimum = 0.034 (at node 12)
	maximum = 0.062 (at node 1)
Accepted flit rate average= 0.048375
	minimum = 0.036 (at node 3)
	maximum = 0.059 (at node 7)
Injected packet length average = 1
Accepted packet length average = 1
Total in-flight flits = 12 (0 measured)
latency change    = 0.00809573
throughput change = 0.0122739
Warmed up ...Time used is 3000 cycles
Class 0:
Packet latency average = 19.7403
	minimum = 7
	maximum = 42
Network latency average = 19.7403
	minimum = 7
	maximum = 42
Slowest packet = 51356
Flit latency average = 19.7801
	minimum = 7
	maximum = 49
Slowest flit = 50932
Fragmentation average = 0
	minimum = 0
	maximum = 0
Injected packet rate average = 0.048625
	minimum = 0.038 (at node 14)
	maximum = 0.063 (at node 10)
Accepted packet rate average = 0.048875
	minimum = 0.036 (at node 11)
	maximum = 0.071 (at node 15)
Injected flit rate average = 0.048625
	minimum = 0.038 (at node 14)
	maximum = 0.063 (at node 10)
Accepted flit rate average= 0.048875
	minimum = 0.036 (at node 11)
	maximum = 0.071 (at node 15)
Injected packet length average = 1
Accepted packet length average = 1
Total in-flight flits = 8 (8 measured)
latency change    = 0.0219281
throughput change = 0.0102302
Class 0:
Packet latency average = 20.0033
	minimum = 7
	maximum = 45
Network latency average = 20.0033
	minimum = 7
	maximum = 45
Slowest packet = 52355
Flit latency average = 20.0214
	minimum = 7
	maximum = 49
Slowest flit = 50932
Fragmentation average = 0
	minimum = 0
	maximum = 0
Injected packet rate average = 0.04825
	minimum = 0.043 (at node 5)
	maximum = 0.054 (at node 10)
Accepted packet rate average = 0.0480937
	minimum = 0.0375 (at node 14)
	maximum = 0.0625 (at node 15)
Injected flit rate average = 0.04825
	minimum = 0.043 (at node 5)
	maximum = 0.054 (at node 10)
Accepted flit rate average= 0.0480937
	minimum = 0.0375 (at node 14)
	maximum = 0.0625 (at node 15)
Injected packet length average = 1
Accepted packet length average = 1
Total in-flight flits = 17 (17 measured)
latency change    = 0.0131486
throughput change = 0.0162443
Class 0:
Packet latency average = 20.0767
	minimum = 7
	maximum = 45
Network latency average = 20.0767
	minimum = 7
	maximum = 45
Slowest packet = 52355
Flit latency average = 20.0884
	minimum = 7
	maximum = 49
Slowest flit = 50932
Fragmentation average = 0
	minimum = 0
	maximum = 0
Injected packet rate average = 0.048375
	minimum = 0.0443333 (at node 5)
	maximum = 0.0543333 (at node 11)
Accepted packet rate average = 0.0483333
	minimum = 0.043 (at node 6)
	maximum = 0.057 (at node 15)
Injected flit rate average = 0.048375
	minimum = 0.0443333 (at node 5)
	maximum = 0.0543333 (at node 11)
Accepted flit rate average= 0.0483333
	minimum = 0.043 (at node 6)
	maximum = 0.057 (at node 15)
Injected packet length average = 1
Accepted packet length average = 1
Total in-flight flits = 14 (14 measured)
latency change    = 0.00365675
throughput change = 0.0049569
Draining all recorded packets ...
Draining remaining packets ...
Time taken is 6052 cycles
Class 0:
Packet latency average = 19.7875
	minimum = 7
	maximum = 46
Network latency average = 19.7875
	minimum = 7
	maximum = 46
Slowest packet = 53633
Flit latency average = 19.7875
	minimum = 7
	maximum = 46
Slowest flit = 53633
Fragmentation average = 0
	minimum = 0
	maximum = 0
Injected packet rate average = 0.052625
	minimum = 0.043 (at node 8)
	maximum = 0.062 (at node 14)
Accepted packet rate average = 0.0511875
	minimum = 0.039 (at node 3)
	maximum = 0.069 (at node 11)
Injected flit rate average = 0.052625
	minimum = 0.043 (at node 8)
	maximum = 0.062 (at node 14)
Accepted flit rate average= 0.0511875
	minimum = 0.039 (at node 3)
	maximum = 0.069 (at node 11)
Injected packet length average = 1
Accepted packet length average = 1
Total in-flight flits = 23 (0 measured)
latency change    = 1
throughput change = 1
Class 0:
Packet latency average = 19.9304
	minimum = 7
	maximum = 46
Network latency average = 19.9304
	minimum = 7
	maximum = 46
Slowest packet = 53633
Flit latency average = 19.9304
	minimum = 7
	maximum = 46
Slowest flit = 53633
Fragmentation average = 0
	minimum = 0
	maximum = 0
Injected packet rate average = 0.051125
	minimum = 0.0425 (at node 0)
	maximum = 0.059 (at node 14)
Accepted packet rate average = 0.0507187
	minimum = 0.043 (at node 15)
	maximum = 0.0565 (at node 11)
Injected flit rate average = 0.051125
	minimum = 0.0425 (at node 0)
	maximum = 0.059 (at node 14)
Accepted flit rate average= 0.0507187
	minimum = 0.043 (at node 15)
	maximum = 0.0565 (at node 11)
Injected packet length average = 1
Accepted packet length average = 1
Total in-flight flits = 13 (0 measured)
latency change    = 0.00716645
throughput change = 0.00924214
Class 0:
Packet latency average = 19.9232
	minimum = 7
	maximum = 40
Network latency average = 19.9232
	minimum = 7
	maximum = 40
Slowest packet = 55175
Flit latency average = 19.9232
	minimum = 7
	maximum = 40
Slowest flit = 55175
Fragmentation average = 0
	minimum = 0
	maximum = 0
Injected packet rate average = 0.049125
	minimum = 0.043 (at node 8)
	maximum = 0.062 (at node 9)
Accepted packet rate average = 0.0488125
	minimum = 0.034 (at node 10)
	maximum = 0.06 (at node 2)
Injected flit rate average = 0.049125
	minimum = 0.043 (at node 8)
	maximum = 0.062 (at node 9)
Accepted flit rate average= 0.0488125
	minimum = 0.034 (at node 10)
	maximum = 0.06 (at node 2)
Injected packet length average = 1
Accepted packet length average = 1
Total in-flight flits = 18 (0 measured)
latency change    = 0.00036141
throughput change = 0.0390525
Warmed up ...Time used is 3000 cycles
Class 0:
Packet latency average = 19.8697
	minimum = 7
	maximum = 41
Network latency average = 19.8697
	minimum = 7
	maximum = 41
Slowest packet = 55897
Flit latency average = 19.9142
	minimum = 7
	maximum = 43
Slowest flit = 55688
Fragmentation average = 0
	minimum = 0
	maximum = 0
Injected packet rate average = 0.0508125
	minimum = 0.034 (at node 9)
	maximum = 0.062 (at node 6)
Accepted packet rate average = 0.051
	minimum = 0.042 (at node 9)
	maximum = 0.062 (at node 4)
Injected flit rate average = 0.0508125
	minimum = 0.034 (at node 9)
	maximum = 0.062 (at node 6)
Accepted flit rate average= 0.051
	minimum = 0.042 (at node 9)
	maximum = 0.062 (at node 4)
Injected packet length average = 1
Accepted packet length average = 1
Total in-flight flits = 15 (15 measured)
latency change    = 0.00269261
throughput change = 0.0428922
Class 0:
Packet latency average = 20.029
	minimum = 7
	maximum = 48
Network latency average = 20.029
	minimum = 7
	maximum = 48
Slowest packet = 56566
Flit latency average = 20.0503
	minimum = 7
	maximum = 48
Slowest flit = 56566
Fragmentation average = 0
	minimum = 0
	maximum = 0
Injected packet rate average = 0.0489687
	minimum = 0.0365 (at node 9)
	maximum = 0.0595 (at node 8)
Accepted packet rate average = 0.0490937
	minimum = 0.0425 (at node 9)
	maximum = 0.058 (at node 4)
Injected flit rate average = 0.0489687
	minimum = 0.0365 (at node 9)
	maximum = 0.0595 (at node 8)
Accepted flit rate average= 0.0490937
	minimum = 0.0425 (at node 9)
	maximum = 0.058 (at node 4)
Injected packet length average = 1
Accepted packet length average = 1
Total in-flight flits = 14 (14 measured)
latency change    = 0.00795358
throughput change = 0.0388288
Class 0:
Packet latency average = 20.1224
	minimum = 7
	maximum = 48
Network latency average = 20.1224
	minimum = 7
	maximum = 48
Slowest packet = 56566
Flit latency average = 20.1361
	minimum = 7
	maximum = 48
Slowest flit = 56566
Fragmentation average = 0
	minimum = 0
	maximum = 0
Injected packet rate average = 0.0482917
	minimum = 0.038 (at node 9)
	maximum = 0.0553333 (at node 15)
Accepted packet rate average = 0.0483542
	minimum = 0.0413333 (at node 3)
	maximum = 0.0576667 (at node 4)
Injected flit rate average = 0.0482917
	minimum = 0.038 (at node 9)
	maximum = 0.0553333 (at node 15)
Accepted flit rate average= 0.0483542
	minimum = 0.0413333 (at node 3)
	maximum = 0.0576667 (at node 4)
Injected packet length average = 1
Accepted packet length average = 1
Total in-flight flits = 15 (15 measured)
latency change    = 0.0046452
throughput change = 0.0152951
Draining all recorded packets ...
Draining remaining packets ...
Time taken is 6059 cycles
Class 0:
Packet latency average = 19.9317
	minimum = 7
	maximum = 44
Network latency average = 19.9317
	minimum = 7
	maximum = 44
Slowest packet = 58666
Flit latency average = 19.9317
	minimum = 7
	maximum = 44
Slowest flit = 58666
Fragmentation average = 0
	minimum = 0
	maximum = 0
Injected packet rate average = 0.048375
	minimum = 0.04 (at node 14)
	maximum = 0.06 (at node 7)
Accepted packet rate average = 0.0475625
	minimum = 0.03 (at node 9)
	maximum = 0.059 (at node 5)
Injected flit rate average = 0.048375
	minimum = 0.04 (at node 14)
	maximum = 0.06 (at node 7)
Accepted flit rate average= 0.0475625
	minimum = 0.03 (at node 9)
	maximum = 0.059 (at node 5)
Injected packet length average = 1
Accepted packet length average = 1
Total in-flight flits = 13 (0 measured)
latency change    = 1
throughput change = 1
Class 0:
Packet latency average = 20.0006
	minimum = 7
	maximum = 47
Network latency average = 20.0006
	minimum = 7
	maximum = 47
Slowest packet = 58960
Flit latency average = 20.0006
	minimum = 7
	maximum = 47
Slowest flit = 58960
Fragmentation average = 0
	minimum = 0
	maximum = 0
Injected packet rate average = 0.0495312
	minimum = 0.0415 (at node 2)
	maximum = 0.0585 (at node 7)
Accepted packet rate average = 0.0485937
	minimum = 0.0365 (at node 9)
	maximum = 0.061 (at node 11)
Injected flit rate average = 0.0495312
	minimum = 0.0415 (at node 2)
	maximum = 0.0585 (at node 7)
Accepted flit rate average= 0.0485937
	minimum = 0.0365 (at node 9)
	maximum = 0.061 (at node 11)
Injected packet length average = 1
Accepted packet length average = 1
Total in-flight flits = 30 (0 measured)
latency change    = 0.0034486
throughput change = 0.0212219
Class 0:
Packet latency average = 19.9585
	minimum = 7
	maximum = 40
Network latency average = 19.9585
	minimum = 7
	maximum = 40
Slowest packet = 59930
Flit latency average = 19.9585
	minimum = 7
	maximum = 40
Slowest flit = 59930
Fragmentation average = 0
	minimum = 0
	maximum = 0
Injected packet rate average = 0.05
	minimum = 0.04 (at node 6)
	maximum = 0.067 (at node 14)
Accepted packet rate average = 0.0511875
	minimum = 0.04 (at node 3)
	maximum = 0.059 (at node 10)
Injected flit rate average = 0.05
	minimum = 0.04 (at node 6)
	maximum = 0.067 (at node 14)
Accepted flit rate average= 0.0511875
	minimum = 0.04 (at node 3)
	maximum = 0.059 (at node 10)
Injected packet length average = 1
Accepted packet length average = 1
Total in-flight flits = 11 (0 measured)
latency change    = 0.00211224
throughput change = 0.0506716
Warmed up ...Time used is 3000 cycles
Class 0:
Packet latency average = 20.1272
	minimum = 7
	maximum = 43
Network latency average = 20.1272
	minimum = 7
	maximum = 43
Slowest packet = 60577
Flit latency average = 20.1468
	minimum = 7
	maximum = 43
Slowest flit = 60577
Fragmentation average = 0
	minimum = 0
	maximum = 0
Injected packet rate average = 0.0501875
	minimum = 0.035 (at node 11)
	maximum = 0.071 (at node 14)
Accepted packet rate average = 0.0498125
	minimum = 0.043 (at node 7)
	maximum = 0.059 (at node 3)
Injected flit rate average = 0.0501875
	minimum = 0.035 (at node 11)
	maximum = 0.071 (at node 14)
Accepted flit rate average= 0.0498125
	minimum = 0.043 (at node 7)
	maximum = 0.059 (at node 3)
Injected packet length average = 1
Accepted packet length average = 1
Total in-flight flits = 17 (17 measured)
latency change    = 0.00838369
throughput change = 0.0276035
Class 0:
Packet latency average = 19.9941
	minimum = 7
	maximum = 48
Network latency average = 19.9941
	minimum = 7
	maximum = 48
Slowest packet = 61339
Flit latency average = 20.0052
	minimum = 7
	maximum = 48
Slowest flit = 61339
Fragmentation average = 0
	minimum = 0
	maximum = 0
Injected packet rate average = 0.048
	minimum = 0.039 (at node 4)
	maximum = 0.0575 (at node 14)
Accepted packet rate average = 0.048
	minimum = 0.0405 (at node 1)
	maximum = 0.0585 (at node 2)
Injected flit rate average = 0.048
	minimum = 0.039 (at node 4)
	maximum = 0.0575 (at node 14)
Accepted flit rate average= 0.048
	minimum = 0.0405 (at node 1)
	maximum = 0.0585 (at node 2)
Injected packet length average = 1
Accepted packet length average = 1
Total in-flight flits = 11 (11 measured)
latency change    = 0.00665837
throughput change = 0.0377604
Class 0:
Packet latency average = 20.1461
	minimum = 7
	maximum = 48
Network latency average = 20.1461
	minimum = 7
	maximum = 48
Slowest packet = 61339
Flit latency average = 20.1528
	minimum = 7
	maximum = 48
Slowest flit = 61339
Fragmentation average = 0
	minimum = 0
	maximum = 0
Injected packet rate average = 0.0483958
	minimum = 0.0433333 (at node 4)
	maximum = 0.057 (at node 14)
Accepted packet rate average = 0.0482708
	minimum = 0.0406667 (at node 10)
	maximum = 0.057 (at node 2)
Injected flit rate average = 0.0483958
	minimum = 0.0433333 (at node 4)
	maximum = 0.057 (at node 14)
Accepted flit rate average= 0.0482708
	minimum = 0.0406667 (at node 10)
	maximum = 0.057 (at node 2)
Injected packet length average = 1
Accepted packet length average = 1
Total in-flight flits = 17 (17 measured)
latency change    = 0.00754696
throughput change = 0.0056107
Draining all recorded packets ...
Draining remaining packets ...
Time taken is 6061 cycles
Class 0:
Packet latency average = 20.0553
	minimum = 7
	maximum = 43
Network latency average = 20.0553
	minimum = 7
	maximum = 43
Slowest packet = 63196
Flit latency average = 20.0553
	minimum = 7
	maximum = 43
Slowest flit = 63196
Fragmentation average = 0
	minimum = 0
	maximum = 0
Injected packet rate average = 0.0506875
	minimum = 0.037 (at node 8)
	maximum = 0.063 (at node 5)
Accepted packet rate average = 0.0496875
	minimum = 0.04 (at node 4)
	maximum = 0.059 (at node 8)
Injected flit rate average = 0.0506875
	minimum = 0.037 (at node 8)
	maximum = 0.063 (at node 5)
Accepted flit rate average= 0.0496875
	minimum = 0.04 (at node 4)
	maximum = 0.059 (at node 8)
Injected packet length average = 1
Accepted packet length average = 1
Total in-flight flits = 16 (0 measured)
latency change    = 1
throughput change = 1
Class 0:
Packet latency average = 20.5605
	minimum = 7
	maximum = 45
Network latency average = 20.5605
	minimum = 7
	maximum = 45
Slowest packet = 63704
Flit latency average = 20.5605
	minimum = 7
	maximum = 45
Slowest flit = 63704
Fragmentation average = 0
	minimum = 0
	maximum = 0
Injected packet rate average = 0.0504375
	minimum = 0.0425 (at node 7)
	maximum = 0.0565 (at node 15)
Accepted packet rate average = 0.050125
	minimum = 0.04 (at node 6)
	maximum = 0.0585 (at node 8)
Injected flit rate average = 0.0504375
	minimum = 0.0425 (at node 7)
	maximum = 0.0565 (at node 15)
Accepted flit rate average= 0.050125
	minimum = 0.04 (at node 6)
	maximum = 0.0585 (at node 8)
Injected packet length average = 1
Accepted packet length average = 1
Total in-flight flits = 10 (0 measured)
latency change    = 0.0245679
throughput change = 0.00872818
Class 0:
Packet latency average = 19.7947
	minimum = 7
	maximum = 45
Network latency average = 19.7947
	minimum = 7
	maximum = 45
Slowest packet = 64520
Flit latency average = 19.7947
	minimum = 7
	maximum = 45
Slowest flit = 64520
Fragmentation average = 0
	minimum = 0
	maximum = 0
Injected packet rate average = 0.052
	minimum = 0.041 (at node 4)
	maximum = 0.06 (at node 15)
Accepted packet rate average = 0.05175
	minimum = 0.039 (at node 2)
	maximum = 0.069 (at node 4)
Injected flit rate average = 0.052
	minimum = 0.041 (at node 4)
	maximum = 0.06 (at node 15)
Accepted flit rate average= 0.05175
	minimum = 0.039 (at node 2)
	maximum = 0.069 (at node 4)
Injected packet length average = 1
Accepted packet length average = 1
Total in-flight flits = 14 (0 measured)
latency change    = 0.0386865
throughput change = 0.031401
Warmed up ...Time used is 3000 cycles
Class 0:
Packet latency average = 20.9707
	minimum = 7
	maximum = 47
Network latency average = 20.9707
	minimum = 7
	maximum = 47
Slowest packet = 65445
Flit latency average = 21.0125
	minimum = 7
	maximum = 47
Slowest flit = 65445
Fragmentation average = 0
	minimum = 0
	maximum = 0
Injected packet rate average = 0.050125
	minimum = 0.035 (at node 5)
	maximum = 0.058 (at node 8)
Accepted packet rate average = 0.05
	minimum = 0.037 (at node 8)
	maximum = 0.063 (at node 15)
Injected flit rate average = 0.050125
	minimum = 0.035 (at node 5)
	maximum = 0.058 (at node 8)
Accepted flit rate average= 0.05
	minimum = 0.037 (at node 8)
	maximum = 0.063 (at node 15)
Injected packet length average = 1
Accepted packet length average = 1
Total in-flight flits = 16 (16 measured)
latency change    = 0.0560806
throughput change = 0.035
Class 0:
Packet latency average = 20.4847
	minimum = 7
	maximum = 47
Network latency average = 20.4847
	minimum = 7
	maximum = 47
Slowest packet = 65445
Flit latency average = 20.5101
	minimum = 7
	maximum = 47
Slowest flit = 65445
Fragmentation average = 0
	minimum = 0
	maximum = 0
Injected packet rate average = 0.0496562
	minimum = 0.0445 (at node 6)
	maximum = 0.0545 (at node 8)
Accepted packet rate average = 0.0495
	minimum = 0.042 (at node 5)
	maximum = 0.054 (at node 3)
Injected flit rate average = 0.0496562
	minimum = 0.0445 (at node 6)
	maximum = 0.0545 (at node 8)
Accepted flit rate average= 0.0495
	minimum = 0.042 (at node 5)
	maximum = 0.054 (at node 3)
Injected packet length average = 1
Accepted packet length average = 1
Total in-flight flits = 19 (19 measured)
latency change    = 0.0237262
throughput change = 0.010101
Class 0:
Packet latency average = 20.2452
	minimum = 7
	maximum = 47
Network latency average = 20.2452
	minimum = 7
	maximum = 47
Slowest packet = 65445
Flit latency average = 20.2632
	minimum = 7
	maximum = 47
Slowest flit = 65445
Fragmentation average = 0
	minimum = 0
	maximum = 0
Injected packet rate average = 0.0505208
	minimum = 0.045 (at node 6)
	maximum = 0.056 (at node 2)
Accepted packet rate average = 0.0504167
	minimum = 0.045 (at node 0)
	maximum = 0.06 (at node 9)
Injected flit rate average = 0.0505208
	minimum = 0.045 (at node 6)
	maximum = 0.056 (at node 2)
Accepted flit rate average= 0.0504167
	minimum = 0.045 (at node 0)
	maximum = 0.06 (at node 9)
Injected packet length average = 1
Accepted packet length average = 1
Total in-flight flits = 19 (19 measured)
latency change    = 0.0118296
throughput change = 0.0181818
Class 0:
Packet latency average = 20.198
	minimum = 7
	maximum = 47
Network latency average = 20.198
	minimum = 7
	maximum = 47
Slowest packet = 65445
Flit latency average = 20.2117
	minimum = 7
	maximum = 47
Slowest flit = 65445
Fragmentation average = 0
	minimum = 0
	maximum = 0
Injected packet rate average = 0.0504844
	minimum = 0.047 (at node 6)
	maximum = 0.0565 (at node 2)
Accepted packet rate average = 0.0504844
	minimum = 0.0445 (at node 12)
	maximum = 0.054 (at node 3)
Injected flit rate average = 0.0504844
	minimum = 0.047 (at node 6)
	maximum = 0.0565 (at node 2)
Accepted flit rate average= 0.0504844
	minimum = 0.0445 (at node 12)
	maximum = 0.054 (at node 3)
Injected packet length average = 1
Accepted packet length average = 1
Total in-flight flits = 14 (14 measured)
latency change    = 0.00233734
throughput change = 0.00134117
Draining all recorded packets ...
Draining remaining packets ...
Time taken is 7054 cycles
Class 0:
Packet latency average = 19.756
	minimum = 7
	maximum = 43
Network latency average = 19.756
	minimum = 7
	maximum = 43
Slowest packet = 69011
Flit latency average = 19.756
	minimum = 7
	maximum = 43
Slowest flit = 69011
Fragmentation average = 0
	minimum = 0
	maximum = 0
Injected packet rate average = 0.0505625
	minimum = 0.026 (at node 7)
	maximum = 0.062 (at node 2)
Accepted packet rate average = 0.0494375
	minimum = 0.041 (at node 1)
	maximum = 0.064 (at node 3)
Injected flit rate average = 0.0505625
	minimum = 0.026 (at node 7)
	maximum = 0.062 (at node 2)
Accepted flit rate average= 0.0494375
	minimum = 0.041 (at node 1)
	maximum = 0.064 (at node 3)
Injected packet length average = 1
Accepted packet length average = 1
Total in-flight flits = 18 (0 measured)
latency change    = 1
throughput change = 1
Class 0:
Packet latency average = 19.8172
	minimum = 7
	maximum = 48
Network latency average = 19.8172
	minimum = 7
	maximum = 48
Slowest packet = 69732
Flit latency average = 19.8172
	minimum = 7
	maximum = 48
Slowest flit = 69732
Fragmentation average = 0
	minimum = 0
	maximum = 0
Injected packet rate average = 0.0500625
	minimum = 0.0365 (at node 7)
	maximum = 0.0585 (at node 3)
Accepted packet rate average = 0.0495625
	minimum = 0.0415 (at node 13)
	maximum = 0.0615 (at node 2)
Injected flit rate average = 0.0500625
	minimum = 0.0365 (at node 7)
	maximum = 0.0585 (at node 3)
Accepted flit rate average= 0.0495625
	minimum = 0.0415 (at node 13)
	maximum = 0.0615 (at node 2)
Injected packet length average = 1
Accepted packet length average = 1
Total in-flight flits = 16 (0 measured)
latency change    = 0.00308546
throughput change = 0.00252207
Class 0:
Packet latency average = 20.0843
	minimum = 7
	maximum = 47
Network latency average = 20.0843
	minimum = 7
	maximum = 47
Slowest packet = 70801
Flit latency average = 20.0843
	minimum = 7
	maximum = 47
Slowest flit = 70801
Fragmentation average = 0
	minimum = 0
	maximum = 0
Injected packet rate average = 0.049625
	minimum = 0.038 (at node 15)
	maximum = 0.059 (at node 11)
Accepted packet rate average = 0.0496875
	minimum = 0.04 (at node 6)
	maximum = 0.058 (at node 1)
Injected flit rate average = 0.049625
	minimum = 0.038 (at node 15)
	maximum = 0.059 (at node 11)
Accepted flit rate average= 0.0496875
	minimum = 0.04 (at node 6)
	maximum = 0.058 (at node 1)
Injected packet length average = 1
Accepted packet length average = 1
Total in-flight flits = 15 (0 measured)
latency change    = 0.0133003
throughput change = 0.00251572
Warmed up ...Time used is 3000 cycles
Class 0:
Packet latency average = 19.9646
	minimum = 7
	maximum = 44
Network latency average = 19.9646
	minimum = 7
	maximum = 44
Slowest packet = 70916
Flit latency average = 20.0187
	minimum = 7
	maximum = 44
Slowest flit = 70916
Fragmentation average = 0
	minimum = 0
	maximum = 0
Injected packet rate average = 0.046625
	minimum = 0.036 (at node 2)
	maximum = 0.06 (at node 10)
Accepted packet rate average = 0.0468125
	minimum = 0.032 (at node 15)
	maximum = 0.053 (at node 2)
Injected flit rate average = 0.046625
	minimum = 0.036 (at node 2)
	maximum = 0.06 (at node 10)
Accepted flit rate average= 0.0468125
	minimum = 0.032 (at node 15)
	maximum = 0.053 (at node 2)
Injected packet length average = 1
Accepted packet length average = 1
Total in-flight flits = 12 (12 measured)
latency change    = 0.00599557
throughput change = 0.0614152
Class 0:
Packet latency average = 19.6826
	minimum = 7
	maximum = 45
Network latency average = 19.6807
	minimum = 7
	maximum = 45
Slowest packet = 72219
Flit latency average = 19.7089
	minimum = 7
	maximum = 45
Slowest flit = 72219
Fragmentation average = 0
	minimum = 0
	maximum = 0
Injected packet rate average = 0.0494062
	minimum = 0.045 (at node 4)
	maximum = 0.06 (at node 10)
Accepted packet rate average = 0.0495937
	minimum = 0.04 (at node 15)
	maximum = 0.0555 (at node 13)
Injected flit rate average = 0.0494062
	minimum = 0.045 (at node 4)
	maximum = 0.06 (at node 10)
Accepted flit rate average= 0.0495937
	minimum = 0.04 (at node 15)
	maximum = 0.0555 (at node 13)
Injected packet length average = 1
Accepted packet length average = 1
Total in-flight flits = 9 (9 measured)
latency change    = 0.0143278
throughput change = 0.0560807
Class 0:
Packet latency average = 20.0217
	minimum = 7
	maximum = 46
Network latency average = 20.0204
	minimum = 7
	maximum = 46
Slowest packet = 72606
Flit latency average = 20.0369
	minimum = 7
	maximum = 46
Slowest flit = 72606
Fragmentation average = 0
	minimum = 0
	maximum = 0
Injected packet rate average = 0.0503333
	minimum = 0.0446667 (at node 4)
	maximum = 0.057 (at node 10)
Accepted packet rate average = 0.05025
	minimum = 0.0426667 (at node 9)
	maximum = 0.0563333 (at node 13)
Injected flit rate average = 0.0503333
	minimum = 0.0446667 (at node 4)
	maximum = 0.057 (at node 10)
Accepted flit rate average= 0.05025
	minimum = 0.0426667 (at node 9)
	maximum = 0.0563333 (at node 13)
Injected packet length average = 1
Accepted packet length average = 1
Total in-flight flits = 19 (19 measured)
latency change    = 0.0169378
throughput change = 0.0130597
Class 0:
Packet latency average = 19.9933
	minimum = 7
	maximum = 46
Network latency average = 19.9924
	minimum = 7
	maximum = 46
Slowest packet = 72606
Flit latency average = 20.005
	minimum = 7
	maximum = 46
Slowest flit = 72606
Fragmentation average = 0
	minimum = 0
	maximum = 0
Injected packet rate average = 0.0494844
	minimum = 0.04275 (at node 14)
	maximum = 0.05375 (at node 10)
Accepted packet rate average = 0.0495312
	minimum = 0.0405 (at node 9)
	maximum = 0.0555 (at node 8)
Injected flit rate average = 0.0494844
	minimum = 0.04275 (at node 14)
	maximum = 0.05375 (at node 10)
Accepted flit rate average= 0.0495312
[...]
	maximum = 0.06 (at node 14)
Accepted packet rate average = 0.0504375
	minimum = 0.039 (at node 4)
	maximum = 0.06 (at node 7)
Injected flit rate average = 0.0503125
	minimum = 0.035 (at node 3)
	maximum = 0.06 (at node 14)
Accepted flit rate average= 0.0504375
	minimum = 0.039 (at node 4)
	maximum = 0.06 (at node 7)
Injected packet length average = 1
Accepted packet length average = 1
Total in-flight flits = 12 (0 measured)
latency change    = 0.0016771
throughput change = 0.027881
Warmed up ...Time used is 3000 cycles
Class 0:
Packet latency average = 20.5644
	minimum = 7
	maximum = 48
Network latency average = 20.5644
	minimum = 7
	maximum = 48
Slowest packet = 500944
Flit latency average = 20.632
	minimum = 7
	maximum = 48
Slowest flit = 500944
Fragmentation average = 0
	minimum = 0
	maximum = 0
Injected packet rate average = 0.0499375
	minimum = 0.034 (at node 6)
	maximum = 0.064 (at node 11)
Accepted packet rate average = 0.04925
	minimum = 0.042 (at node 6)
	maximum = 0.058 (at node 0)
Injected flit rate average = 0.0499375
	minimum = 0.034 (at node 6)
	maximum = 0.064 (at node 11)
Accepted flit rate average= 0.04925
	minimum = 0.042 (at node 6)
	maximum = 0.058 (at node 0)
Injected packet length average = 1
Accepted packet length average = 1
Total in-flight flits = 23 (23 measured)
latency change    = 0.0255791
throughput change = 0.0241117
Class 0:
Packet latency average = 20.3997
	minimum = 7
	maximum = 48
Network latency average = 20.3997
	minimum = 7
	maximum = 48
Slowest packet = 500944
Flit latency average = 20.4342
	minimum = 7
	maximum = 48
Slowest flit = 500944
Fragmentation average = 0
	minimum = 0
	maximum = 0
Injected packet rate average = 0.0503437
	minimum = 0.0365 (at node 6)
	maximum = 0.0595 (at node 11)
Accepted packet rate average = 0.0500937
	minimum = 0.0395 (at node 9)
	maximum = 0.0555 (at node 10)
Injected flit rate average = 0.0503437
	minimum = 0.0365 (at node 6)
	maximum = 0.0595 (at node 11)
Accepted flit rate average= 0.0500937
	minimum = 0.0395 (at node 9)
	maximum = 0.0555 (at node 10)
Injected packet length average = 1
Accepted packet length average = 1
Total in-flight flits = 20 (20 measured)
latency change    = 0.00807286
throughput change = 0.0168434
Class 0:
Packet latency average = 20.1801
	minimum = 7
	maximum = 48
Network latency average = 20.1801
	minimum = 7
	maximum = 48
Slowest packet = 500944
Flit latency average = 20.2041
	minimum = 7
	maximum = 48
Slowest flit = 500944
Fragmentation average = 0
	minimum = 0
	maximum = 0
Injected packet rate average = 0.0503958
	minimum = 0.0426667 (at node 15)
	maximum = 0.056 (at node 7)
Accepted packet rate average = 0.0502292
	minimum = 0.043 (at node 9)
	maximum = 0.0596667 (at node 10)
Injected flit rate average = 0.0503958
	minimum = 0.0426667 (at node 15)
	maximum = 0.056 (at node 7)
Accepted flit rate average= 0.0502292
	minimum = 0.043 (at node 9)
	maximum = 0.0596667 (at node 10)
Injected packet length average = 1
Accepted packet length average = 1
Total in-flight flits = 20 (20 measured)
latency change    = 0.0108857
throughput change = 0.00269598
Draining all recorded packets ...
Draining remaining packets ...
Time taken is 6058 cycles
Class 0:
Packet latency average = 20.1701
	minimum = 7
	maximum = 47
Network latency average = 20.1701
	minimum = 7
	maximum = 47
Slowest packet = 503541
Flit latency average = 20.1701
	minimum = 7
	maximum = 47
Slowest flit = 503541
Fragmentation average = 0
	minimum = 0
	maximum = 0
Injected packet rate average = 0.052875
	minimum = 0.043 (at node 3)
	maximum = 0.059 (at node 2)
Accepted packet rate average = 0.0518125
	minimum = 0.044 (at node 4)
	maximum = 0.067 (at node 5)
Injected flit rate average = 0.052875
	minimum = 0.043 (at node 3)
	maximum = 0.059 (at node 2)
Accepted flit rate average= 0.0518125
	minimum = 0.044 (at node 4)
	maximum = 0.067 (at node 5)
Injected packet length average = 1
Accepted packet length average = 1
Total in-flight flits = 17 (0 measured)
latency change    = 1
throughput change = 1
Class 0:
Packet latency average = 20.1603
	minimum = 7
	maximum = 49
Network latency average = 20.1603
	minimum = 7
	maximum = 49
Slowest packet = 504739
Flit latency average = 20.1603
	minimum = 7
	maximum = 49
Slowest flit = 504739
Fragmentation average = 0
	minimum = 0
	maximum = 0
Injected packet rate average = 0.0525313
	minimum = 0.0455 (at node 12)
	maximum = 0.066 (at node 15)
Accepted packet rate average = 0.0520625
	minimum = 0.0435 (at node 13)
	maximum = 0.0635 (at node 5)
Injected flit rate average = 0.0525313
	minimum = 0.0455 (at node 12)
	maximum = 0.066 (at node 15)
Accepted flit rate average= 0.0520625
	minimum = 0.0435 (at node 13)
	maximum = 0.0635 (at node 5)
Injected packet length average = 1
Accepted packet length average = 1
Total in-flight flits = 15 (0 measured)
latency change    = 0.000487113
throughput change = 0.00480192
Class 0:
Packet latency average = 20.1065
	minimum = 7
	maximum = 40
Network latency average = 20.1065
	minimum = 7
	maximum = 40
Slowest packet = 504884
Flit latency average = 20.1065
	minimum = 7
	maximum = 40
Slowest flit = 504884
Fragmentation average = 0
	minimum = 0
	maximum = 0
Injected packet rate average = 0.0491875
	minimum = 0.039 (at node 11)
	maximum = 0.058 (at node 3)
Accepted packet rate average = 0.0493125
	minimum = 0.039 (at node 7)
	maximum = 0.063 (at node 4)
Injected flit rate average = 0.0491875
	minimum = 0.039 (at node 11)
	maximum = 0.058 (at node 3)
Accepted flit rate average= 0.0493125
	minimum = 0.039 (at node 7)
	maximum = 0.063 (at node 4)
Injected packet length average = 1
Accepted packet length average = 1
Total in-flight flits = 13 (0 measured)
latency change    = 0.00267577
throughput change = 0.0557668
Warmed up ...Time used is 3000 cycles
Class 0:
Packet latency average = 19.8442
	minimum = 7
	maximum = 47
Network latency average = 19.8442
	minimum = 7
	maximum = 47
Slowest packet = 506115
Flit latency average = 19.9202
	minimum = 7
	maximum = 47
Slowest flit = 506115
Fragmentation average = 0
	minimum = 0
	maximum = 0
Injected packet rate average = 0.0480625
	minimum = 0.04 (at node 3)
	maximum = 0.055 (at node 6)
Accepted packet rate average = 0.04775
	minimum = 0.042 (at node 5)
	maximum = 0.056 (at node 7)
Injected flit rate average = 0.0480625
	minimum = 0.04 (at node 3)
	maximum = 0.055 (at node 6)
Accepted flit rate average= 0.04775
	minimum = 0.042 (at node 5)
	maximum = 0.056 (at node 7)
Injected packet length average = 1
Accepted packet length average = 1
Total in-flight flits = 18 (18 measured)
latency change    = 0.0132158
throughput change = 0.0327225
Class 0:
Packet latency average = 19.7416
	minimum = 7
	maximum = 47
Network latency average = 19.7416
	minimum = 7
	maximum = 47
Slowest packet = 506115
Flit latency average = 19.7805
	minimum = 7
	maximum = 47
Slowest flit = 506115
Fragmentation average = 0
	minimum = 0
	maximum = 0
Injected packet rate average = 0.0476562
	minimum = 0.0385 (at node 3)
	maximum = 0.054 (at node 5)
Accepted packet rate average = 0.0476875
	minimum = 0.042 (at node 3)
	maximum = 0.0535 (at node 7)
Injected flit rate average = 0.0476562
	minimum = 0.0385 (at node 3)
	maximum = 0.054 (at node 5)
Accepted flit rate average= 0.0476875
	minimum = 0.042 (at node 3)
	maximum = 0.0535 (at node 7)
Injected packet length average = 1
Accepted packet length average = 1
Total in-flight flits = 12 (12 measured)
latency change    = 0.00519891
throughput change = 0.00131062
Class 0:
Packet latency average = 19.6747
	minimum = 7
	maximum = 47
Network latency average = 19.6747
	minimum = 7
	maximum = 47
Slowest packet = 506115
Flit latency average = 19.7011
	minimum = 7
	maximum = 47
Slowest flit = 506115
Fragmentation average = 0
	minimum = 0
	maximum = 0
Injected packet rate average = 0.0476667
	minimum = 0.0393333 (at node 3)
	maximum = 0.055 (at node 7)
Accepted packet rate average = 0.0476042
	minimum = 0.0423333 (at node 1)
	maximum = 0.0533333 (at node 15)
Injected flit rate average = 0.0476667
	minimum = 0.0393333 (at node 3)
	maximum = 0.055 (at node 7)
Accepted flit rate average= 0.0476042
	minimum = 0.0423333 (at node 1)
	maximum = 0.0533333 (at node 15)
Injected packet length average = 1
Accepted packet length average = 1
Total in-flight flits = 16 (16 measured)
latency change    = 0.0033971
throughput change = 0.00175055
Draining all recorded packets ...
Draining remaining packets ...
Time taken is 6060 cycles
Class 0:
Packet latency average = 19.7442
	minimum = 7
	maximum = 51
Network latency average = 19.7442
	minimum = 7
	maximum = 51
Slowest packet = 507924
Flit latency average = 19.7442
	minimum = 7
	maximum = 51
Slowest flit = 507924
Fragmentation average = 0
	minimum = 0
	maximum = 0
Injected packet rate average = 0.04975
	minimum = 0.039 (at node 3)
	maximum = 0.062 (at node 14)
Accepted packet rate average = 0.048875
	minimum = 0.038 (at node 0)
	maximum = 0.061 (at node 11)
Injected flit rate average = 0.04975
	minimum = 0.039 (at node 3)
	maximum = 0.062 (at node 14)
Accepted flit rate average= 0.048875
	minimum = 0.038 (at node 0)
	maximum = 0.061 (at node 11)
Injected packet length average = 1
Accepted packet length average = 1
Total in-flight flits = 14 (0 measured)
latency change    = 1
throughput change = 1
Class 0:
Packet latency average = 19.7011
	minimum = 7
	maximum = 51
Network latency average = 19.7011
	minimum = 7
	maximum = 51
Slowest packet = 507924
Flit latency average = 19.7011
	minimum = 7
	maximum = 51
Slowest flit = 507924
Fragmentation average = 0
	minimum = 0
	maximum = 0
Injected packet rate average = 0.0495312
	minimum = 0.0415 (at node 1)
	maximum = 0.055 (at node 5)
Accepted packet rate average = 0.0489375
	minimum = 0.042 (at node 1)
	maximum = 0.059 (at node 6)
Injected flit rate average = 0.0495312
	minimum = 0.0415 (at node 1)
	maximum = 0.055 (at node 5)
Accepted flit rate average= 0.0489375
	minimum = 0.042 (at node 1)
	maximum = 0.059 (at node 6)
Injected packet length average = 1
Accepted packet length average = 1
Total in-flight flits = 19 (0 measured)
latency change    = 0.00218749
throughput change = 0.00127714
Class 0:
Packet latency average = 19.8344
	minimum = 7
	maximum = 40
Network latency average = 19.8344
	minimum = 7
	maximum = 40
Slowest packet = 509844
Flit latency average = 19.8344
	minimum = 7
	maximum = 40
Slowest flit = 509844
Fragmentation average = 0
	minimum = 0
	maximum = 0
Injected packet rate average = 0.050125
	minimum = 0.035 (at node 5)
	maximum = 0.062 (at node 9)
Accepted packet rate average = 0.0505625
	minimum = 0.035 (at node 7)
	maximum = 0.062 (at node 2)
Injected flit rate average = 0.050125
	minimum = 0.035 (at node 5)
	maximum = 0.062 (at node 9)
Accepted flit rate average= 0.0505625
	minimum = 0.035 (at node 7)
	maximum = 0.062 (at node 2)
Injected packet length average = 1
Accepted packet length average = 1
Total in-flight flits = 12 (0 measured)
latency change    = 0.00671632
throughput change = 0.0321384
Warmed up ...Time used is 3000 cycles
Class 0:
Packet latency average = 20.2805
	minimum = 7
	maximum = 46
Network latency average = 20.2805
	minimum = 7
	maximum = 46
Slowest packet = 510373
Flit latency average = 20.2993
	minimum = 7
	maximum = 46
Slowest flit = 510373
Fragmentation average = 0
	minimum = 0
	maximum = 0
Injected packet rate average = 0.0524375
	minimum = 0.041 (at node 7)
	maximum = 0.066 (at node 12)
Accepted packet rate average = 0.052
	minimum = 0.03 (at node 1)
	maximum = 0.068 (at node 8)
Injected flit rate average = 0.0524375
	minimum = 0.041 (at node 7)
	maximum = 0.066 (at node 12)
Accepted flit rate average= 0.052
	minimum = 0.03 (at node 1)
	maximum = 0.068 (at node 8)
Injected packet length average = 1
Accepted packet length average = 1
Total in-flight flits = 19 (19 measured)
latency change    = 0.0219977
throughput change = 0.0276442
Class 0:
Packet latency average = 20.1217
	minimum = 7
	maximum = 46
Network latency average = 20.1217
	minimum = 7
	maximum = 46
Slowest packet = 510373
Flit latency average = 20.1324
	minimum = 7
	maximum = 46
Slowest flit = 510373
Fragmentation average = 0
	minimum = 0
	maximum = 0
Injected packet rate average = 0.0515938
	minimum = 0.0445 (at node 7)
	maximum = 0.0615 (at node 9)
Accepted packet rate average = 0.0514688
	minimum = 0.042 (at node 12)
	maximum = 0.06 (at node 10)
Injected flit rate average = 0.0515938
	minimum = 0.0445 (at node 7)
	maximum = 0.0615 (at node 9)
Accepted flit rate average= 0.0514688
	minimum = 0.042 (at node 12)
	maximum = 0.06 (at node 10)
Injected packet length average = 1
Accepted packet length average = 1
Total in-flight flits = 16 (16 measured)
latency change    = 0.00789074
throughput change = 0.0103218
Class 0:
Packet latency average = 19.8689
	minimum = 7
	maximum = 46
Network latency average = 19.8689
	minimum = 7
	maximum = 46
Slowest packet = 510373
Flit latency average = 19.8774
	minimum = 7
	maximum = 46
Slowest flit = 510373
Fragmentation average = 0
	minimum = 0
	maximum = 0
Injected packet rate average = 0.0505833
	minimum = 0.044 (at node 11)
	maximum = 0.0603333 (at node 9)
Accepted packet rate average = 0.050625
	minimum = 0.042 (at node 12)
	maximum = 0.0596667 (at node 2)
Injected flit rate average = 0.0505833
	minimum = 0.044 (at node 11)
	maximum = 0.0603333 (at node 9)
Accepted flit rate average= 0.050625
	minimum = 0.042 (at node 12)
	maximum = 0.0596667 (at node 2)
Injected packet length average = 1
Accepted packet length average = 1
Total in-flight flits = 10 (10 measured)
latency change    = 0.012724
throughput change = 0.0166667
Draining all recorded packets ...
Draining remaining packets ...
Time taken is 6047 cycles
Class 0:
Packet latency average = 19.8172
	minimum = 7
	maximum = 51
Network latency average = 19.8172
	minimum = 7
	maximum = 51
Slowest packet = 513320
Flit latency average = 19.8172
	minimum = 7
	maximum = 51
Slowest flit = 513320
Fragmentation average = 0
	minimum = 0
	maximum = 0
Injected packet rate average = 0.0534375
	minimum = 0.038 (at node 11)
	maximum = 0.071 (at node 13)
Accepted packet rate average = 0.0523125
	minimum = 0.039 (at node 3)
	maximum = 0.062 (at node 9)
Injected flit rate average = 0.0534375
	minimum = 0.038 (at node 11)
	maximum = 0.071 (at node 13)
Accepted flit rate average= 0.0523125
	minimum = 0.039 (at node 3)
	maximum = 0.062 (at node 9)
Injected packet length average = 1
Accepted packet length average = 1
Total in-flight flits = 18 (0 measured)
latency change    = 1
throughput change = 1
Class 0:
Packet latency average = 19.8469
	minimum = 7
	maximum = 51
Network latency average = 19.8469
	minimum = 7
	maximum = 51
Slowest packet = 513320
Flit latency average = 19.8469
	minimum = 7
	maximum = 51
Slowest flit = 513320
Fragmentation average = 0
	minimum = 0
	maximum = 0
Injected packet rate average = 0.0506562
	minimum = 0.039 (at node 1)
	maximum = 0.058 (at node 13)
Accepted packet rate average = 0.0502187
	minimum = 0.0375 (at node 15)
	maximum = 0.056 (at node 2)
Injected flit rate average = 0.0506562
	minimum = 0.039 (at node 1)
	maximum = 0.058 (at node 13)
Accepted flit rate average= 0.0502187
	minimum = 0.0375 (at node 15)
	maximum = 0.056 (at node 2)
Injected packet length average = 1
Accepted packet length average = 1
Total in-flight flits = 14 (0 measured)
latency change    = 0.00149723
throughput change = 0.0416926
Class 0:
Packet latency average = 20.1017
	minimum = 7
	maximum = 45
Network latency average = 20.1017
	minimum = 7
	maximum = 45
Slowest packet = 514959
Flit latency average = 20.1017
	minimum = 7
	maximum = 45
Slowest flit = 514959
Fragmentation average = 0
	minimum = 0
	maximum = 0
Injected packet rate average = 0.0486875
	minimum = 0.036 (at node 2)
	maximum = 0.058 (at node 10)
Accepted packet rate average = 0.0485625
	minimum = 0.036 (at node 14)
	maximum = 0.06 (at node 11)
Injected flit rate average = 0.0486875
	minimum = 0.036 (at node 2)
	maximum = 0.058 (at node 10)
Accepted flit rate average= 0.0485625
	minimum = 0.036 (at node 14)
	maximum = 0.06 (at node 11)
Injected packet length average = 1
Accepted packet length average = 1
Total in-flight flits = 16 (0 measured)
latency change    = 0.0126732
throughput change = 0.0341055
Warmed up ...Time used is 3000 cycles
Class 0:
Packet latency average = 19.6358
	minimum = 7
	maximum = 43
Network latency average = 19.6358
	minimum = 7
	maximum = 43
Slowest packet = 515171
Flit latency average = 19.6891
	minimum = 7
	maximum = 43
Slowest flit = 515171
Fragmentation average = 0
	minimum = 0
	maximum = 0
Injected packet rate average = 0.0505625
	minimum = 0.039 (at node 10)
	maximum = 0.067 (at node 9)
Accepted packet rate average = 0.05025
	minimum = 0.033 (at node 10)
	maximum = 0.061 (at node 6)
Injected flit rate average = 0.0505625
	minimum = 0.039 (at node 10)
	maximum = 0.067 (at node 9)
Accepted flit rate average= 0.05025
	minimum = 0.033 (at node 10)
	maximum = 0.061 (at node 6)
Injected packet length average = 1
Accepted packet length average = 1
Total in-flight flits = 21 (21 measured)
latency change    = 0.0237264
throughput change = 0.0335821
Class 0:
Packet latency average = 19.9696
	minimum = 7
	maximum = 43
Network latency average = 19.9696
	minimum = 7
	maximum = 43
Slowest packet = 515171
Flit latency average = 19.9931
	minimum = 7
	maximum = 43
Slowest flit = 515171
Fragmentation average = 0
	minimum = 0
	maximum = 0
Injected packet rate average = 0.05
	minimum = 0.045 (at node 5)
	maximum = 0.0595 (at node 4)
Accepted packet rate average = 0.0499062
	minimum = 0.041 (at node 10)
	maximum = 0.0585 (at node 3)
Injected flit rate average = 0.05
	minimum = 0.045 (at node 5)
	maximum = 0.0595 (at node 4)
Accepted flit rate average= 0.0499062
	minimum = 0.041 (at node 10)
	maximum = 0.0585 (at node 3)
Injected packet length average = 1
Accepted packet length average = 1
Total in-flight flits = 19 (19 measured)
latency change    = 0.016718
throughput change = 0.00688791
Class 0:
Packet latency average = 20.0038
	minimum = 7
	maximum = 43
Network latency average = 20.0038
	minimum = 7
	maximum = 43
Slowest packet = 515171
Flit latency average = 20.0192
	minimum = 7
	maximum = 43
Slowest flit = 515171
Fragmentation average = 0
	minimum = 0
	maximum = 0
Injected packet rate average = 0.04975
	minimum = 0.043 (at node 5)
	maximum = 0.056 (at node 4)
Accepted packet rate average = 0.049875
	minimum = 0.0436667 (at node 10)
	maximum = 0.0586667 (at node 6)
Injected flit rate average = 0.04975
	minimum = 0.043 (at node 5)
	maximum = 0.056 (at node 4)
Accepted flit rate average= 0.049875
	minimum = 0.0436667 (at node 10)
	maximum = 0.0586667 (at node 6)
Injected packet length average = 1
Accepted packet length average = 1
Total in-flight flits = 10 (10 measured)
latency change    = 0.00170694
throughput change = 0.000626566
Draining all recorded packets ...
Draining remaining packets ...
Time taken is 6050 cycles
====== Overall Traffic Statistics ======
====== Traffic class 0 ======
Packet latency average = 20.0077 (100 samples)
	minimum = 7 (100 samples)
	maximum = 49.1 (100 samples)
Network latency average = 20.0076 (100 samples)
	minimum = 7 (100 samples)
	maximum = 49.1 (100 samples)
Flit latency average = 20.0218 (100 samples)
	minimum = 7 (100 samples)
	maximum = 49.18 (100 samples)
Fragmentation average = 0 (100 samples)
	minimum = 0 (100 samples)
	maximum = 0 (100 samples)
Injected packet rate average = 0.0500473 (100 samples)
	minimum = 0.0436327 (100 samples)
	maximum = 0.056706 (100 samples)
Accepted packet rate average = 0.0500489 (100 samples)
	minimum = 0.043339 (100 samples)
	maximum = 0.0568438 (100 samples)
Injected flit rate average = 0.0500473 (100 samples)
	minimum = 0.0436327 (100 samples)
	maximum = 0.056706 (100 samples)
Accepted flit rate average = 0.0500489 (100 samples)
	minimum = 0.043339 (100 samples)
	maximum = 0.0568438 (100 samples)
Injected packet size average = 1 (100 samples)
Accepted packet size average = 1 (100 samples)
Hops average = 3.49739 (100 samples)
Total run time 27.1407
