BEGIN Configuration File: /tmp/bs_1137237_463219.cfg
topology = mesh;
k = 4;
n = 2;
routing_function = gnn_ppo_route_4x4;
num_vcs = 4;
vc_buf_size = 4;
wait_for_tail_credit = 1;
vc_allocator = islip;
sw_allocator = islip;
alloc_iters = 1;
credit_delay = 2;
routing_delay = 1;
vc_alloc_delay = 1;
sw_alloc_delay = 1;
input_speedup = 2;
output_speedup = 1;
internal_speedup = 1.0;
traffic = transpose;
packet_size = 1;
sim_type = latency;
injection_rate = 0.1;
warmup_periods = 3;
sample_period = 1000;
sim_count = 100;
seed = 3;

END Configuration File: /tmp/bs_1137237_463219.cfg
Class 0:
Packet latency average = 23.1557
	minimum = 7
	maximum = 121
Network latency average = 23.1313
	minimum = 7
	maximum = 121
Slowest packet = 326
Flit latency average = 23.1313
	minimum = 7
	maximum = 121
Slowest flit = 326
Fragmentation average = 0
	minimum = 0
	maximum = 0
Injected packet rate average = 0.09975
	minimum = 0.078 (at node 15)
	maximum = 0.112 (at node 11)
Accepted packet rate average = 0.0975625
	minimum = 0.077 (at node 15)
	maximum = 0.111 (at node 2)
Injected flit rate average = 0.09975
	minimum = 0.078 (at node 15)
	maximum = 0.112 (at node 11)
Accepted flit rate average= 0.0975625
	minimum = 0.077 (at node 15)
	maximum = 0.111 (at node 2)
Injected packet length average = 1
Accepted packet length average = 1
Total in-flight flits = 35 (0 measured)
latency change    = 1
throughput change = 1
Class 0:
Packet latency average = 23.241
	minimum = 7
	maximum = 159
Network latency average = 23.1298
	minimum = 7
	maximum = 138
Slowest packet = 1642
Flit latency average = 23.1298
	minimum = 7
	maximum = 138
Slowest flit = 1642
Fragmentation average = 0
	minimum = 0
	maximum = 0
Injected packet rate average = 0.0980625
	minimum = 0.088 (at node 15)
	maximum = 0.108 (at node 14)
Accepted packet rate average = 0.097
	minimum = 0.087 (at node 15)
	maximum = 0.1055 (at node 6)
Injected flit rate average = 0.0980625
	minimum = 0.088 (at node 15)
	maximum = 0.108 (at node 14)
Accepted flit rate average= 0.097
	minimum = 0.087 (at node 15)
	maximum = 0.1055 (at node 6)
Injected packet length average = 1
Accepted packet length average = 1
Total in-flight flits = 34 (0 measured)
latency change    = 0.00367067
throughput change = 0.00579897
Class 0:
Packet latency average = 24.6794
	minimum = 7
	maximum = 165
Network latency average = 24.3835
	minimum = 7
	maximum = 163
Slowest packet = 4302
Flit latency average = 24.3835
	minimum = 7
	maximum = 163
Slowest flit = 4302
Fragmentation average = 0
	minimum = 0
	maximum = 0
Injected packet rate average = 0.0985
	minimum = 0.083 (at node 4)
	maximum = 0.118 (at node 14)
Accepted packet rate average = 0.0984375
	minimum = 0.082 (at node 1)
	maximum = 0.123 (at node 11)
Injected flit rate average = 0.0985
	minimum = 0.083 (at node 4)
	maximum = 0.118 (at node 14)
Accepted flit rate average= 0.0984375
	minimum = 0.082 (at node 1)
	maximum = 0.123 (at node 11)
Injected packet length average = 1
Accepted packet length average = 1
Total in-flight flits = 35 (0 measured)
latency change    = 0.0582829
throughput change = 0.0146032
Warmed up ...Time used is 3000 cycles
Class 0:
Packet latency average = 26.0013
	minimum = 7
	maximum = 213
Network latency average = 25.569
	minimum = 7
	maximum = 213
Slowest packet = 5818
Flit latency average = 25.7207
	minimum = 7
	maximum = 213
Slowest flit = 5818
Fragmentation average = 0
	minimum = 0
	maximum = 0
Injected packet rate average = 0.096625
	minimum = 0.071 (at node 9)
	maximum = 0.113 (at node 6)
Accepted packet rate average = 0.096
	minimum = 0.072 (at node 6)
	maximum = 0.113 (at node 9)
Injected flit rate average = 0.096625
	minimum = 0.071 (at node 9)
	maximum = 0.113 (at node 6)
Accepted flit rate average= 0.096
	minimum = 0.072 (at node 6)
	maximum = 0.113 (at node 9)
Injected packet length average = 1
Accepted packet length average = 1
Total in-flight flits = 47 (47 measured)
latency change    = 0.0508423
throughput change = 0.0253906
Class 0:
Packet latency average = 30.5897
	minimum = 7
	maximum = 296
Network latency average = 27.0485
	minimum = 7
	maximum = 213
Slowest packet = 5818
Flit latency average = 27.1061
	minimum = 7
	maximum = 213
Slowest flit = 5818
Fragmentation average = 0
	minimum = 0
	maximum = 0
Injected packet rate average = 0.098625
	minimum = 0.082 (at node 14)
	maximum = 0.1115 (at node 12)
Accepted packet rate average = 0.0983437
	minimum = 0.0825 (at node 11)
	maximum = 0.111 (at node 3)
Injected flit rate average = 0.098625
	minimum = 0.082 (at node 14)
	maximum = 0.1115 (at node 12)
Accepted flit rate average= 0.0983437
	minimum = 0.0825 (at node 11)
	maximum = 0.111 (at node 3)
Injected packet length average = 1
Accepted packet length average = 1
Total in-flight flits = 45 (45 measured)
latency change    = 0.149996
throughput change = 0.0238322
Class 0:
Packet latency average = 34.5658
	minimum = 7
	maximum = 353
Network latency average = 27.3872
	minimum = 7
	maximum = 213
Slowest packet = 5818
Flit latency average = 27.423
	minimum = 7
	maximum = 213
Slowest flit = 5818
Fragmentation average = 0
	minimum = 0
	maximum = 0
Injected packet rate average = 0.0988333
	minimum = 0.0873333 (at node 14)
	maximum = 0.108333 (at node 12)
Accepted packet rate average = 0.0987083
	minimum = 0.087 (at node 11)
	maximum = 0.109333 (at node 3)
Injected flit rate average = 0.0988333
	minimum = 0.0873333 (at node 14)
	maximum = 0.108333 (at node 12)
Accepted flit rate average= 0.0987083
	minimum = 0.087 (at node 11)
	maximum = 0.109333 (at node 3)
Injected packet length average = 1
Accepted packet length average = 1
Total in-flight flits = 42 (42 measured)
latency change    = 0.115031
throughput change = 0.00369354
Class 0:
Packet latency average = 31.8274
	minimum = 7
	maximum = 353
Network latency average = 26.3526
	minimum = 7
	maximum = 213
Slowest packet = 5818
Flit latency average = 26.3851
	minimum = 7
	maximum = 213
Slowest flit = 5818
Fragmentation average = 0
	minimum = 0
	maximum = 0
Injected packet rate average = 0.0989375
	minimum = 0.08425 (at node 9)
	maximum = 0.10675 (at node 13)
Accepted packet rate average = 0.098875
	minimum = 0.0845 (at node 6)
	maximum = 0.106 (at node 7)
Injected flit rate average = 0.0989375
	minimum = 0.08425 (at node 9)
	maximum = 0.10675 (at node 13)
Accepted flit rate average= 0.098875
	minimum = 0.0845 (at node 6)
	maximum = 0.106 (at node 7)
Injected packet length average = 1
Accepted packet length average = 1
Total in-flight flits = 39 (39 measured)
latency change    = 0.0860384
throughput change = 0.00168563
Class 0:
Packet latency average = 30.5415
	minimum = 7
	maximum = 353
Network latency average = 25.9977
	minimum = 7
	maximum = 213
Slowest packet = 5818
Flit latency average = 26.0251
	minimum = 7
	maximum = 213
Slowest flit = 5818
Fragmentation average = 0
	minimum = 0
	maximum = 0
Injected packet rate average = 0.099525
	minimum = 0.0872 (at node 9)
	maximum = 0.1056 (at node 0)
Accepted packet rate average = 0.0994875
	minimum = 0.0872 (at node 6)
	maximum = 0.1054 (at node 0)
Injected flit rate average = 0.099525
	minimum = 0.0872 (at node 9)
	maximum = 0.1056 (at node 0)
Accepted flit rate average= 0.0994875
	minimum = 0.0872 (at node 6)
	maximum = 0.1054 (at node 0)
Injected packet length average = 1
Accepted packet length average = 1
Total in-flight flits = 38 (38 measured)
latency change    = 0.0421036
throughput change = 0.00615655
Class 0:
Packet latency average = 30.4068
	minimum = 7
	maximum = 353
Network latency average = 26.1668
	minimum = 7
	maximum = 213
Slowest packet = 5818
Flit latency average = 26.189
	minimum = 7
	maximum = 213
Slowest flit = 5818
Fragmentation average = 0
	minimum = 0
	maximum = 0
Injected packet rate average = 0.0996354
	minimum = 0.0885 (at node 9)
	maximum = 0.106833 (at node 13)
Accepted packet rate average = 0.0995313
	minimum = 0.0883333 (at node 6)
	maximum = 0.107 (at node 7)
Injected flit rate average = 0.0996354
	minimum = 0.0885 (at node 9)
	maximum = 0.106833 (at node 13)
Accepted flit rate average= 0.0995313
	minimum = 0.0883333 (at node 6)
	maximum = 0.107 (at node 7)
Injected packet length average = 1
Accepted packet length average = 1
Total in-flight flits = 46 (46 measured)
latency change    = 0.00442965
throughput change = 0.00043956
Class 0:
Packet latency average = 30.4528
	minimum = 7
	maximum = 353
Network latency average = 26.3438
	minimum = 7
	maximum = 213
Slowest packet = 5818
Flit latency average = 26.3622
	minimum = 7
	maximum = 213
Slowest flit = 5818
Fragmentation average = 0
	minimum = 0
	maximum = 0
Injected packet rate average = 0.0997143
	minimum = 0.0918571 (at node 9)
	maximum = 0.106286 (at node 13)
Accepted packet rate average = 0.0997411
	minimum = 0.0918571 (at node 6)
	maximum = 0.106429 (at node 7)
Injected flit rate average = 0.0997143
	minimum = 0.0918571 (at node 9)
	maximum = 0.106286 (at node 13)
Accepted flit rate average= 0.0997411
	minimum = 0.0918571 (at node 6)
	maximum = 0.106429 (at node 7)
Injected packet length average = 1
Accepted packet length average = 1
Total in-flight flits = 32 (32 measured)
latency change    = 0.0015085
throughput change = 0.00210366
Draining all recorded packets ...
Draining remaining packets ...
Time taken is 10128 cycles
Class 0:
Packet latency average = 27.4929
	minimum = 7
	maximum = 232
Network latency average = 25.7843
	minimum = 7
	maximum = 166
Slowest packet = 16853
Flit latency average = 25.7843
	minimum = 7
	maximum = 166
Slowest flit = 16853
Fragmentation average = 0
	minimum = 0
	maximum = 0
Injected packet rate average = 0.0989375
	minimum = 0.086 (at node 1)
	maximum = 0.115 (at node 11)
Accepted packet rate average = 0.0965
	minimum = 0.084 (at node 4)
	maximum = 0.114 (at node 14)
Injected flit rate average = 0.0989375
	minimum = 0.086 (at node 1)
	maximum = 0.115 (at node 11)
Accepted flit rate average= 0.0965
	minimum = 0.084 (at node 4)
	maximum = 0.114 (at node 14)
Injected packet length average = 1
Accepted packet length average = 1
Total in-flight flits = 40 (0 measured)
latency change    = 1
throughput change = 1
Class 0:
Packet latency average = 25.1994
	minimum = 7
	maximum = 232
Network latency average = 24.1511
	minimum = 7
	maximum = 166
Slowest packet = 16853
Flit latency average = 24.1511
	minimum = 7
	maximum = 166
Slowest flit = 16853
Fragmentation average = 0
	minimum = 0
	maximum = 0
Injected packet rate average = 0.0984687
	minimum = 0.0855 (at node 5)
	maximum = 0.113 (at node 10)
Accepted packet rate average = 0.097
	minimum = 0.0855 (at node 5)
	maximum = 0.1125 (at node 10)
Injected flit rate average = 0.0984687
	minimum = 0.0855 (at node 5)
	maximum = 0.113 (at node 10)
Accepted flit rate average= 0.097
	minimum = 0.0855 (at node 5)
	maximum = 0.1125 (at node 10)
Injected packet length average = 1
Accepted packet length average = 1
Total in-flight flits = 48 (0 measured)
latency change    = 0.0910122
throughput change = 0.00515464
Class 0:
Packet latency average = 28.6415
	minimum = 7
	maximum = 177
Network latency average = 27.2042
	minimum = 7
	maximum = 177
Slowest packet = 19112
Flit latency average = 27.2042
	minimum = 7
	maximum = 177
Slowest flit = 19112
Fragmentation average = 0
	minimum = 0
	maximum = 0
Injected packet rate average = 0.100687
	minimum = 0.086 (at node 15)
	maximum = 0.123 (at node 2)
Accepted packet rate average = 0.101625
	minimum = 0.087 (at node 15)
	maximum = 0.125 (at node 8)
Injected flit rate average = 0.100687
	minimum = 0.086 (at node 15)
	maximum = 0.123 (at node 2)
Accepted flit rate average= 0.101625
	minimum = 0.087 (at node 15)
	maximum = 0.125 (at node 8)
Injected packet length average = 1
Accepted packet length average = 1
Total in-flight flits = 34 (0 measured)
latency change    = 0.120177
throughput change = 0.0455105
Warmed up ...Time used is 3000 cycles
Class 0:
Packet latency average = 31.1014
	minimum = 7
	maximum = 223
Network latency average = 26.3284
	minimum = 7
	maximum = 184
Slowest packet = 20761
Flit latency average = 27.1498
	minimum = 7
	maximum = 184
Slowest flit = 21574
Fragmentation average = 0
	minimum = 0
	maximum = 0
Injected packet rate average = 0.10325
	minimum = 0.072 (at node 9)
	maximum = 0.127 (at node 11)
Accepted packet rate average = 0.102625
	minimum = 0.071 (at node 6)
	maximum = 0.125 (at node 14)
Injected flit rate average = 0.10325
	minimum = 0.072 (at node 9)
	maximum = 0.127 (at node 11)
Accepted flit rate average= 0.102625
	minimum = 0.071 (at node 6)
	maximum = 0.125 (at node 14)
Injected packet length average = 1
Accepted packet length average = 1
Total in-flight flits = 43 (43 measured)
latency change    = 0.0790935
throughput change = 0.00974421
Class 0:
Packet latency average = 33.9788
	minimum = 7
	maximum = 277
Network latency average = 27.5397
	minimum = 7
	maximum = 191
Slowest packet = 20761
Flit latency average = 27.943
	minimum = 7
	maximum = 191
Slowest flit = 22752
Fragmentation average = 0
	minimum = 0
	maximum = 0
Injected packet rate average = 0.101469
	minimum = 0.0835 (at node 9)
	maximum = 0.117 (at node 11)
Accepted packet rate average = 0.101344
	minimum = 0.083 (at node 6)
	maximum = 0.115 (at node 14)
Injected flit rate average = 0.101469
	minimum = 0.0835 (at node 9)
	maximum = 0.117 (at node 11)
Accepted flit rate average= 0.101344
	minimum = 0.083 (at node 6)
	maximum = 0.115 (at node 14)
Injected packet length average = 1
Accepted packet length average = 1
Total in-flight flits = 37 (37 measured)
latency change    = 0.0846834
throughput change = 0.0126426
Class 0:
Packet latency average = 31.1364
	minimum = 7
	maximum = 277
Network latency average = 26.659
	minimum = 7
	maximum = 191
Slowest packet = 20761
Flit latency average = 26.9332
	minimum = 7
	maximum = 191
Slowest flit = 22752
Fragmentation average = 0
	minimum = 0
	maximum = 0
Injected packet rate average = 0.101813
	minimum = 0.088 (at node 9)
	maximum = 0.114 (at node 11)
Accepted packet rate average = 0.101646
	minimum = 0.0873333 (at node 6)
	maximum = 0.113333 (at node 14)
Injected flit rate average = 0.101813
	minimum = 0.088 (at node 9)
	maximum = 0.114 (at node 11)
Accepted flit rate average= 0.101646
	minimum = 0.0873333 (at node 6)
	maximum = 0.113333 (at node 14)
Injected packet length average = 1
Accepted packet length average = 1
Total in-flight flits = 40 (40 measured)
latency change    = 0.0912879
throughput change = 0.00297192
Class 0:
Packet latency average = 30.4404
	minimum = 7
	maximum = 277
Network latency average = 26.2179
	minimum = 7
	maximum = 191
Slowest packet = 20761
Flit latency average = 26.4254
	minimum = 7
	maximum = 191
Slowest flit = 22752
Fragmentation average = 0
	minimum = 0
	maximum = 0
Injected packet rate average = 0.102
	minimum = 0.0895 (at node 9)
	maximum = 0.114 (at node 11)
Accepted packet rate average = 0.101859
	minimum = 0.0895 (at node 6)
	maximum = 0.11325 (at node 14)
Injected flit rate average = 0.102
	minimum = 0.0895 (at node 9)
	maximum = 0.114 (at node 11)
Accepted flit rate average= 0.101859
	minimum = 0.0895 (at node 6)
	maximum = 0.11325 (at node 14)
Injected packet length average = 1
Accepted packet length average = 1
Total in-flight flits = 42 (42 measured)
latency change    = 0.0228653
throughput change = 0.00209644
Class 0:
Packet latency average = 31.4948
	minimum = 7
	maximum = 277
Network latency average = 26.6286
	minimum = 7
	maximum = 191
Slowest packet = 20761
Flit latency average = 26.7946
	minimum = 7
	maximum = 191
Slowest flit = 22752
Fragmentation average = 0
	minimum = 0
	maximum = 0
Injected packet rate average = 0.101
	minimum = 0.0898 (at node 9)
	maximum = 0.1104 (at node 3)
Accepted packet rate average = 0.100825
	minimum = 0.0896 (at node 6)
	maximum = 0.11 (at node 12)
Injected flit rate average = 0.101
	minimum = 0.0898 (at node 9)
	maximum = 0.1104 (at node 3)
Accepted flit rate average= 0.100825
	minimum = 0.0896 (at node 6)
	maximum = 0.11 (at node 12)
Injected packet length average = 1
Accepted packet length average = 1
Total in-flight flits = 48 (48 measured)
latency change    = 0.0334776
throughput change = 0.0102591
Class 0:
Packet latency average = 32.7228
	minimum = 7
	maximum = 408
Network latency average = 27.2009
	minimum = 7
	maximum = 276
Slowest packet = 20761
Flit latency average = 27.337
	minimum = 7
	maximum = 276
Slowest flit = 29050
Fragmentation average = 0
	minimum = 0
	maximum = 0
Injected packet rate average = 0.101094
	minimum = 0.0921667 (at node 9)
	maximum = 0.110333 (at node 12)
Accepted packet rate average = 0.100958
	minimum = 0.0918333 (at node 6)
	maximum = 0.110333 (at node 3)
Injected flit rate average = 0.101094
	minimum = 0.0921667 (at node 9)
	maximum = 0.110333 (at node 12)
Accepted flit rate average= 0.100958
	minimum = 0.0918333 (at node 6)
	maximum = 0.110333 (at node 3)
Injected packet length average = 1
Accepted packet length average = 1
Total in-flight flits = 47 (47 measured)
latency change    = 0.0375288
throughput change = 0.00132068
Draining all recorded packets ...
Draining remaining packets ...
Time taken is 9459 cycles
Class 0:
Packet latency average = 31.071
	minimum = 7
	maximum = 282
Network latency average = 26.4448
	minimum = 7
	maximum = 278
Slowest packet = 31909
Flit latency average = 26.4448
	minimum = 7
	maximum = 278
Slowest flit = 31909
Fragmentation average = 0
	minimum = 0
	maximum = 0
Injected packet rate average = 0.0991875
	minimum = 0.088 (at node 14)
	maximum = 0.122 (at node 10)
Accepted packet rate average = 0.0968125
	minimum = 0.082 (at node 12)
	maximum = 0.12 (at node 10)
Injected flit rate average = 0.0991875
	minimum = 0.088 (at node 14)
	maximum = 0.122 (at node 10)
Accepted flit rate average= 0.0968125
	minimum = 0.082 (at node 12)
	maximum = 0.12 (at node 10)
Injected packet length average = 1
Accepted packet length average = 1
Total in-flight flits = 39 (0 measured)
latency change    = 1
throughput change = 1
Class 0:
Packet latency average = 30.6712
	minimum = 7
	maximum = 282
Network latency average = 26.5136
	minimum = 7
	maximum = 278
Slowest packet = 31909
Flit latency average = 26.5136
	minimum = 7
	maximum = 278
Slowest flit = 31909
Fragmentation average = 0
	minimum = 0
	maximum = 0
Injected packet rate average = 0.0985625
	minimum = 0.088 (at node 8)
	maximum = 0.112 (at node 10)
Accepted packet rate average = 0.09675
	minimum = 0.082 (at node 12)
	maximum = 0.1105 (at node 10)
Injected flit rate average = 0.0985625
	minimum = 0.088 (at node 8)
	maximum = 0.112 (at node 10)
Accepted flit rate average= 0.09675
	minimum = 0.082 (at node 12)
	maximum = 0.1105 (at node 10)
Injected packet length average = 1
Accepted packet length average = 1
Total in-flight flits = 61 (0 measured)
latency change    = 0.0130358
throughput change = 0.000645995
Class 0:
Packet latency average = 46.4547
	minimum = 7
	maximum = 366
Network latency average = 28.884
	minimum = 7
	maximum = 260
Slowest packet = 34016
Flit latency average = 28.884
	minimum = 7
	maximum = 260
Slowest flit = 33969
Fragmentation average = 0
	minimum = 0
	maximum = 0
Injected packet rate average = 0.099625
	minimum = 0.077 (at node 11)
	maximum = 0.118 (at node 15)
Accepted packet rate average = 0.10075
	minimum = 0.076 (at node 14)
	maximum = 0.118 (at node 15)
Injected flit rate average = 0.099625
	minimum = 0.077 (at node 11)
	maximum = 0.118 (at node 15)
Accepted flit rate average= 0.10075
	minimum = 0.076 (at node 14)
	maximum = 0.118 (at node 15)
Injected packet length average = 1
Accepted packet length average = 1
Total in-flight flits = 41 (0 measured)
latency change    = 0.339762
throughput change = 0.0397022
Warmed up ...Time used is 3000 cycles
Class 0:
Packet latency average = 41.4732
	minimum = 7
	maximum = 312
Network latency average = 27.3771
	minimum = 7
	maximum = 201
Slowest packet = 35866
Flit latency average = 28.3602
	minimum = 7
	maximum = 201
Slowest flit = 35837
Fragmentation average = 0
	minimum = 0
	maximum = 0
Injected packet rate average = 0.101625
	minimum = 0.085 (at node 6)
	maximum = 0.121 (at node 14)
Accepted packet rate average = 0.1015
	minimum = 0.083 (at node 9)
	maximum = 0.12 (at node 11)
Injected flit rate average = 0.101625
	minimum = 0.085 (at node 6)
	maximum = 0.121 (at node 14)
Accepted flit rate average= 0.1015
	minimum = 0.083 (at node 9)
	maximum = 0.12 (at node 11)
Injected packet length average = 1
Accepted packet length average = 1
Total in-flight flits = 43 (43 measured)
latency change    = 0.120115
throughput change = 0.00738916
Class 0:
Packet latency average = 39.7876
	minimum = 7
	maximum = 312
Network latency average = 27.5432
	minimum = 7
	maximum = 201
Slowest packet = 35866
Flit latency average = 28.0307
	minimum = 7
	maximum = 201
Slowest flit = 35837
Fragmentation average = 0
	minimum = 0
	maximum = 0
Injected packet rate average = 0.102281
	minimum = 0.09 (at node 0)
	maximum = 0.1195 (at node 14)
Accepted packet rate average = 0.101906
	minimum = 0.09 (at node 0)
	maximum = 0.119 (at node 11)
Injected flit rate average = 0.102281
	minimum = 0.09 (at node 0)
	maximum = 0.1195 (at node 14)
Accepted flit rate average= 0.101906
	minimum = 0.09 (at node 0)
	maximum = 0.119 (at node 11)
Injected packet length average = 1
Accepted packet length average = 1
Total in-flight flits = 54 (54 measured)
latency change    = 0.0423643
throughput change = 0.00398651
Class 0:
Packet latency average = 36.4839
	minimum = 7
	maximum = 312
Network latency average = 27.5246
	minimum = 7
	maximum = 206
Slowest packet = 35866
Flit latency average = 27.8519
	minimum = 7
	maximum = 206
Slowest flit = 38981
Fragmentation average = 0
	minimum = 0
	maximum = 0
Injected packet rate average = 0.101042
	minimum = 0.092 (at node 0)
	maximum = 0.113333 (at node 14)
Accepted packet rate average = 0.10125
	minimum = 0.0916667 (at node 0)
	maximum = 0.113333 (at node 11)
Injected flit rate average = 0.101042
	minimum = 0.092 (at node 0)
	maximum = 0.113333 (at node 14)
Accepted flit rate average= 0.10125
	minimum = 0.0916667 (at node 0)
	maximum = 0.113333 (at node 11)
Injected packet length average = 1
Accepted packet length average = 1
Total in-flight flits = 30 (30 measured)
latency change    = 0.0905511
throughput change = 0.00648148
Class 0:
Packet latency average = 33.644
	minimum = 7
	maximum = 312
Network latency average = 26.763
	minimum = 7
	maximum = 206
Slowest packet = 35866
Flit latency average = 27.0156
	minimum = 7
	maximum = 206
Slowest flit = 38981
Fragmentation average = 0
	minimum = 0
	maximum = 0
Injected packet rate average = 0.100328
	minimum = 0.09225 (at node 0)
	maximum = 0.10775 (at node 14)
Accepted packet rate average = 0.100328
	minimum = 0.09175 (at node 0)
	maximum = 0.10725 (at node 11)
Injected flit rate average = 0.100328
	minimum = 0.09225 (at node 0)
	maximum = 0.10775 (at node 14)
Accepted flit rate average= 0.100328
	minimum = 0.09175 (at node 0)
	maximum = 0.10725 (at node 11)
Injected packet length average = 1
Accepted packet length average = 1
Total in-flight flits = 40 (40 measured)
latency change    = 0.0844094
throughput change = 0.0091886
Class 0:
Packet latency average = 31.5402
	minimum = 7
	maximum = 312
Network latency average = 25.9208
	minimum = 7
	maximum = 206
Slowest packet = 35866
Flit latency average = 26.1276
	minimum = 7
	maximum = 206
Slowest flit = 38981
Fragmentation average = 0
	minimum = 0
	maximum = 0
Injected packet rate average = 0.100138
	minimum = 0.0928 (at node 3)
	maximum = 0.107 (at node 15)
Accepted packet rate average = 0.100087
	minimum = 0.093 (at node 12)
	maximum = 0.1068 (at node 15)
Injected flit rate average = 0.100138
	minimum = 0.0928 (at node 3)
	maximum = 0.107 (at node 15)
Accepted flit rate average= 0.100087
	minimum = 0.093 (at node 12)
	maximum = 0.1068 (at node 15)
Injected packet length average = 1
Accepted packet length average = 1
Total in-flight flits = 46 (46 measured)
latency change    = 0.0667046
throughput change = 0.00240415
Class 0:
Packet latency average = 32.7731
	minimum = 7
	maximum = 322
Network latency average = 26.4367
	minimum = 7
	maximum = 209
Slowest packet = 35866
Flit latency average = 26.6078
	minimum = 7
	maximum = 209
Slowest flit = 44284
Fragmentation average = 0
	minimum = 0
	maximum = 0
Injected packet rate average = 0.0996042
	minimum = 0.0921667 (at node 3)
	maximum = 0.107333 (at node 15)
Accepted packet rate average = 0.0995313
	minimum = 0.0925 (at node 12)
	maximum = 0.107167 (at node 15)
Injected flit rate average = 0.0996042
	minimum = 0.0921667 (at node 3)
	maximum = 0.107333 (at node 15)
Accepted flit rate average= 0.0995313
	minimum = 0.0925 (at node 12)
	maximum = 0.107167 (at node 15)
Injected packet length average = 1
Accepted packet length average = 1
Total in-flight flits = 48 (48 measured)
latency change    = 0.0376193
throughput change = 0.0055887
Class 0:
Packet latency average = 32.0136
	minimum = 7
	maximum = 322
Network latency average = 26.2146
	minimum = 7
	maximum = 209
Slowest packet = 35866
Flit latency average = 26.3623
	minimum = 7
	maximum = 209
Slowest flit = 44284
Fragmentation average = 0
	minimum = 0
	maximum = 0
Injected packet rate average = 0.0993571
	minimum = 0.091 (at node 3)
	maximum = 0.107714 (at node 15)
Accepted packet rate average = 0.0994196
	minimum = 0.0918571 (at node 12)
	maximum = 0.107714 (at node 15)
Injected flit rate average = 0.0993571
	minimum = 0.091 (at node 3)
	maximum = 0.107714 (at node 15)
Accepted flit rate average= 0.0994196
	minimum = 0.0918571 (at node 12)
	maximum = 0.107714 (at node 15)
Injected packet length average = 1
Accepted packet length average = 1
Total in-flight flits = 33 (33 measured)
latency change    = 0.023723
throughput change = 0.00112259
Draining all recorded packets ...
Draining remaining packets ...
Time taken is 10123 cycles
Class 0:
Packet latency average = 22.1488
	minimum = 7
	maximum = 114
Network latency average = 22.0498
	minimum = 7
	maximum = 114
Slowest packet = 48229
Flit latency average = 22.0498
	minimum = 7
	maximum = 114
Slowest flit = 48229
Fragmentation average = 0
	minimum = 0
	maximum = 0
Injected packet rate average = 0.099875
	minimum = 0.086 (at node 11)
	maximum = 0.111 (at node 12)
Accepted packet rate average = 0.096625
	minimum = 0.084 (at node 9)
	maximum = 0.109 (at node 2)
Injected flit rate average = 0.099875
	minimum = 0.086 (at node 11)
	maximum = 0.111 (at node 12)
Accepted flit rate average= 0.096625
	minimum = 0.084 (at node 9)
	maximum = 0.109 (at node 2)
Injected packet length average = 1
Accepted packet length average = 1
Total in-flight flits = 52 (0 measured)
latency change    = 1
throughput change = 1
Class 0:
Packet latency average = 29.7117
	minimum = 7
	maximum = 280
Network latency average = 25.1384
	minimum = 7
	maximum = 167
Slowest packet = 48860
Flit latency average = 25.1384
	minimum = 7
	maximum = 167
Slowest flit = 49738
Fragmentation average = 0
	minimum = 0
	maximum = 0
Injected packet rate average = 0.0995625
	minimum = 0.0895 (at node 4)
	maximum = 0.1065 (at node 8)
Accepted packet rate average = 0.0982187
	minimum = 0.089 (at node 1)
	maximum = 0.1045 (at node 10)
Injected flit rate average = 0.0995625
	minimum = 0.0895 (at node 4)
	maximum = 0.1065 (at node 8)
Accepted flit rate average= 0.0982187
	minimum = 0.089 (at node 1)
	maximum = 0.1045 (at node 10)
Injected packet length average = 1
Accepted packet length average = 1
Total in-flight flits = 44 (0 measured)
latency change    = 0.254545
throughput change = 0.0162265
Class 0:
Packet latency average = 41.7144
	minimum = 7
	maximum = 293
Network latency average = 28.2587
	minimum = 7
	maximum = 197
Slowest packet = 50143
Flit latency average = 28.2587
	minimum = 7
	maximum = 197
Slowest flit = 51053
Fragmentation average = 0
	minimum = 0
	maximum = 0
Injected packet rate average = 0.0973125
	minimum = 0.084 (at node 12)
	maximum = 0.11 (at node 7)
Accepted packet rate average = 0.097375
	minimum = 0.085 (at node 3)
	maximum = 0.108 (at node 13)
Injected flit rate average = 0.0973125
	minimum = 0.084 (at node 12)
	maximum = 0.11 (at node 7)
Accepted flit rate average= 0.097375
	minimum = 0.085 (at node 3)
	maximum = 0.108 (at node 13)
Injected packet length average = 1
Accepted packet length average = 1
Total in-flight flits = 43 (0 measured)
latency change    = 0.287734
throughput change = 0.00866496
Warmed up ...Time used is 3000 cycles
Class 0:
Packet latency average = 32.6948
	minimum = 7
	maximum = 306
Network latency average = 27.3275
	minimum = 7
	maximum = 208
Slowest packet = 52162
Flit latency average = 27.6542
	minimum = 7
	maximum = 208
Slowest flit = 52162
Fragmentation average = 0
	minimum = 0
	maximum = 0
Injected packet rate average = 0.0984375
	minimum = 0.085 (at node 13)
	maximum = 0.122 (at node 12)
Accepted packet rate average = 0.0983125
	minimum = 0.083 (at node 7)
	maximum = 0.118 (at node 3)
Injected flit rate average = 0.0984375
	minimum = 0.085 (at node 13)
	maximum = 0.122 (at node 12)
Accepted flit rate average= 0.0983125
	minimum = 0.083 (at node 7)
	maximum = 0.118 (at node 3)
Injected packet length average = 1
Accepted packet length average = 1
Total in-flight flits = 45 (45 measured)
latency change    = 0.275873
throughput change = 0.00953592
Class 0:
Packet latency average = 32.4457
	minimum = 7
	maximum = 306
Network latency average = 27.304
	minimum = 7
	maximum = 208
Slowest packet = 52162
Flit latency average = 27.4633
	minimum = 7
	maximum = 208
Slowest flit = 52162
Fragmentation average = 0
	minimum = 0
	maximum = 0
Injected packet rate average = 0.100906
	minimum = 0.089 (at node 15)
	maximum = 0.1145 (at node 12)
Accepted packet rate average = 0.100969
	minimum = 0.089 (at node 15)
	maximum = 0.114 (at node 3)
Injected flit rate average = 0.100906
	minimum = 0.089 (at node 15)
	maximum = 0.1145 (at node 12)
Accepted flit rate average= 0.100969
	minimum = 0.089 (at node 15)
	maximum = 0.114 (at node 3)
Injected packet length average = 1
Accepted packet length average = 1
Total in-flight flits = 41 (41 measured)
latency change    = 0.0076755
throughput change = 0.0263076
Class 0:
Packet latency average = 30.3104
	minimum = 7
	maximum = 306
Network latency average = 26.3568
	minimum = 7
	maximum = 208
Slowest packet = 52162
Flit latency average = 26.4721
	minimum = 7
	maximum = 208
Slowest flit = 52162
Fragmentation average = 0
	minimum = 0
	maximum = 0
Injected packet rate average = 0.100146
	minimum = 0.0886667 (at node 14)
	maximum = 0.109 (at node 10)
Accepted packet rate average = 0.100437
	minimum = 0.0896667 (at node 11)
	maximum = 0.109 (at node 10)
Injected flit rate average = 0.100146
	minimum = 0.0886667 (at node 14)
	maximum = 0.109 (at node 10)
Accepted flit rate average= 0.100437
	minimum = 0.0896667 (at node 11)
	maximum = 0.109 (at node 10)
Injected packet length average = 1
Accepted packet length average = 1
Total in-flight flits = 28 (28 measured)
latency change    = 0.0704496
throughput change = 0.00528936
Class 0:
Packet latency average = 29.8784
	minimum = 7
	maximum = 306
Network latency average = 26.1606
	minimum = 7
	maximum = 208
Slowest packet = 52162
Flit latency average = 26.2478
	minimum = 7
	maximum = 208
Slowest flit = 52162
Fragmentation average = 0
	minimum = 0
	maximum = 0
Injected packet rate average = 0.101
	minimum = 0.0905 (at node 14)
	maximum = 0.107 (at node 13)
Accepted packet rate average = 0.101062
	minimum = 0.091 (at node 11)
	maximum = 0.10725 (at node 4)
Injected flit rate average = 0.101
	minimum = 0.0905 (at node 14)
	maximum = 0.107 (at node 13)
Accepted flit rate average= 0.101062
	minimum = 0.091 (at node 11)
	maximum = 0.10725 (at node 4)
Injected packet length average = 1
Accepted packet length average = 1
Total in-flight flits = 38 (38 measured)
latency change    = 0.0144565
throughput change = 0.00618429
Class 0:
Packet latency average = 29.1224
	minimum = 7
	maximum = 306
Network latency average = 26.0396
	minimum = 7
	maximum = 208
Slowest packet = 52162
Flit latency average = 26.1101
	minimum = 7
	maximum = 208
Slowest flit = 52162
Fragmentation average = 0
	minimum = 0
	maximum = 0
Injected packet rate average = 0.101025
	minimum = 0.0934 (at node 14)
	maximum = 0.1076 (at node 1)
Accepted packet rate average = 0.1009
	minimum = 0.093 (at node 11)
	maximum = 0.1086 (at node 4)
Injected flit rate average = 0.101025
	minimum = 0.0934 (at node 14)
	maximum = 0.1076 (at node 1)
Accepted flit rate average= 0.1009
	minimum = 0.093 (at node 11)
	maximum = 0.1086 (at node 4)
Injected packet length average = 1
Accepted packet length average = 1
Total in-flight flits = 52 (52 measured)
latency change    = 0.0259598
throughput change = 0.00161051
Class 0:
Packet latency average = 29.312
	minimum = 7
	maximum = 306
Network latency average = 26.257
	minimum = 7
	maximum = 208
Slowest packet = 52162
Flit latency average = 26.3149
	minimum = 7
	maximum = 208
Slowest flit = 52162
Fragmentation average = 0
	minimum = 0
	maximum = 0
Injected packet rate average = 0.100604
	minimum = 0.0941667 (at node 14)
	maximum = 0.1055 (at node 1)
Accepted packet rate average = 0.100615
	minimum = 0.0938333 (at node 11)
	maximum = 0.106333 (at node 4)
Injected flit rate average = 0.100604
	minimum = 0.0941667 (at node 14)
	maximum = 0.1055 (at node 1)
Accepted flit rate average= 0.100615
	minimum = 0.0938333 (at node 11)
	maximum = 0.106333 (at node 4)
Injected packet length average = 1
Accepted packet length average = 1
Total in-flight flits = 43 (43 measured)
latency change    = 0.0064666
throughput change = 0.00283673
Draining all recorded packets ...
Draining remaining packets ...
Time taken is 9293 cycles
Class 0:
Packet latency average = 22.703
	minimum = 7
	maximum = 141
Network latency average = 22.391
	minimum = 7
	maximum = 141
Slowest packet = 62717
Flit latency average = 22.391
	minimum = 7
	maximum = 141
Slowest flit = 62717
Fragmentation average = 0
	minimum = 0
	maximum = 0
Injected packet rate average = 0.10275
	minimum = 0.084 (at node 7)
	maximum = 0.118 (at node 1)
Accepted packet rate average = 0.100375
	minimum = 0.082 (at node 13)
	maximum = 0.117 (at node 4)
Injected flit rate average = 0.10275
	minimum = 0.084 (at node 7)
	maximum = 0.118 (at node 1)
Accepted flit rate average= 0.100375
	minimum = 0.082 (at node 13)
	maximum = 0.117 (at node 4)
Injected packet length average = 1
Accepted packet length average = 1
Total in-flight flits = 38 (0 measured)
latency change    = 1
throughput change = 1
Class 0:
Packet latency average = 25.2746
	minimum = 7
	maximum = 167
Network latency average = 24.2724
	minimum = 7
	maximum = 151
Slowest packet = 63928
Flit latency average = 24.2724
	minimum = 7
	maximum = 151
Slowest flit = 64288
Fragmentation average = 0
	minimum = 0
	maximum = 0
Injected packet rate average = 0.100906
	minimum = 0.086 (at node 3)
	maximum = 0.112 (at node 1)
Accepted packet rate average = 0.0995937
	minimum = 0.0825 (at node 12)
	maximum = 0.112 (at node 4)
Injected flit rate average = 0.100906
	minimum = 0.086 (at node 3)
	maximum = 0.112 (at node 1)
Accepted flit rate average= 0.0995937
	minimum = 0.0825 (at node 12)
	maximum = 0.112 (at node 4)
Injected packet length average = 1
Accepted packet length average = 1
Total in-flight flits = 43 (0 measured)
latency change    = 0.101745
throughput change = 0.00784437
Class 0:
Packet latency average = 25.4389
	minimum = 7
	maximum = 197
Network latency average = 23.2278
	minimum = 7
	maximum = 167
Slowest packet = 64896
Flit latency average = 23.2278
	minimum = 7
	maximum = 167
Slowest flit = 64848
Fragmentation average = 0
	minimum = 0
	maximum = 0
Injected packet rate average = 0.10075
	minimum = 0.087 (at node 2)
	maximum = 0.119 (at node 9)
Accepted packet rate average = 0.10125
	minimum = 0.085 (at node 8)
	maximum = 0.118 (at node 6)
Injected flit rate average = 0.10075
	minimum = 0.087 (at node 2)
	maximum = 0.119 (at node 9)
Accepted flit rate average= 0.10125
	minimum = 0.085 (at node 8)
	maximum = 0.118 (at node 6)
Injected packet length average = 1
Accepted packet length average = 1
Total in-flight flits = 34 (0 measured)
latency change    = 0.00646003
throughput change = 0.016358
Warmed up ...Time used is 3000 cycles
Class 0:
Packet latency average = 23.0745
	minimum = 7
	maximum = 120
Network latency average = 22.864
	minimum = 7
	maximum = 120
Slowest packet = 68137
Flit latency average = 22.9842
	minimum = 7
	maximum = 120
Slowest flit = 68137
Fragmentation average = 0
	minimum = 0
	maximum = 0
Injected packet rate average = 0.103438
	minimum = 0.09 (at node 14)
	maximum = 0.119 (at node 12)
Accepted packet rate average = 0.10275
	minimum = 0.088 (at node 12)
	maximum = 0.122 (at node 3)
Injected flit rate average = 0.103438
	minimum = 0.09 (at node 14)
	maximum = 0.119 (at node 12)
Accepted flit rate average= 0.10275
	minimum = 0.088 (at node 12)
	maximum = 0.122 (at node 3)
Injected packet length average = 1
Accepted packet length average = 1
Total in-flight flits = 47 (47 measured)
latency change    = 0.102466
throughput change = 0.0145985
Class 0:
Packet latency average = 29.9826
	minimum = 7
	maximum = 366
Network latency average = 25.5237
	minimum = 7
	maximum = 241
Slowest packet = 68156
Flit latency average = 25.5566
	minimum = 7
	maximum = 241
Slowest flit = 69064
Fragmentation average = 0
	minimum = 0
	maximum = 0
Injected packet rate average = 0.101688
	minimum = 0.0905 (at node 14)
	maximum = 0.1115 (at node 15)
Accepted packet rate average = 0.101781
	minimum = 0.0895 (at node 12)
	maximum = 0.112 (at node 15)
Injected flit rate average = 0.101688
	minimum = 0.0905 (at node 14)
	maximum = 0.1115 (at node 15)
Accepted flit rate average= 0.101781
	minimum = 0.0895 (at node 12)
	maximum = 0.112 (at node 15)
Injected packet length average = 1
Accepted packet length average = 1
Total in-flight flits = 33 (33 measured)
latency change    = 0.230403
throughput change = 0.00951796
Class 0:
Packet latency average = 37.5468
	minimum = 7
	maximum = 473
Network latency average = 26.6317
	minimum = 7
	maximum = 241
Slowest packet = 68156
Flit latency average = 26.6459
	minimum = 7
	maximum = 241
Slowest flit = 69064
Fragmentation average = 0
	minimum = 0
	maximum = 0
Injected packet rate average = 0.102563
	minimum = 0.0936667 (at node 3)
	maximum = 0.114667 (at node 1)
Accepted packet rate average = 0.10225
	minimum = 0.092 (at node 12)
	maximum = 0.113667 (at node 4)
Injected flit rate average = 0.102563
	minimum = 0.0936667 (at node 3)
	maximum = 0.114667 (at node 1)
Accepted flit rate average= 0.10225
	minimum = 0.092 (at node 12)
	maximum = 0.113667 (at node 4)
Injected packet length average = 1
Accepted packet length average = 1
Total in-flight flits = 51 (51 measured)
latency change    = 0.201459
throughput change = 0.00458435
Class 0:
Packet latency average = 41.3741
	minimum = 7
	maximum = 504
Network latency average = 27.1662
	minimum = 7
	maximum = 241
Slowest packet = 68156
Flit latency average = 27.1741
	minimum = 7
	maximum = 241
Slowest flit = 69064
Fragmentation average = 0
	minimum = 0
	maximum = 0
Injected packet rate average = 0.101375
	minimum = 0.09225 (at node 3)
	maximum = 0.11125 (at node 15)
Accepted packet rate average = 0.101328
	minimum = 0.0905 (at node 12)
	maximum = 0.1115 (at node 15)
Injected flit rate average = 0.101375
	minimum = 0.09225 (at node 3)
	maximum = 0.11125 (at node 15)
Accepted flit rate average= 0.101328
	minimum = 0.0905 (at node 12)
	maximum = 0.1115 (at node 15)
Injected packet length average = 1
Accepted packet length average = 1
Total in-flight flits = 39 (39 measured)
latency change    = 0.0925042
throughput change = 0.00909792
Class 0:
Packet latency average = 44.0394
	minimum = 7
	maximum = 550
Network latency average = 27.2885
	minimum = 7
	maximum = 241
Slowest packet = 68156
Flit latency average = 27.2944
	minimum = 7
	maximum = 241
Slowest flit = 69064
Fragmentation average = 0
	minimum = 0
	maximum = 0
Injected packet rate average = 0.1011
	minimum = 0.0934 (at node 3)
	maximum = 0.1098 (at node 15)
Accepted packet rate average = 0.100888
	minimum = 0.0916 (at node 12)
	maximum = 0.11 (at node 15)
Injected flit rate average = 0.1011
	minimum = 0.0934 (at node 3)
	maximum = 0.1098 (at node 15)
Accepted flit rate average= 0.100888
	minimum = 0.0916 (at node 12)
	maximum = 0.11 (at node 15)
Injected packet length average = 1
Accepted packet length average = 1
Total in-flight flits = 54 (54 measured)
latency change    = 0.0605228
throughput change = 0.00436749
Class 0:
Packet latency average = 45.7669
	minimum = 7
	maximum = 576
Network latency average = 27.2642
	minimum = 7
	maximum = 241
Slowest packet = 68156
Flit latency average = 27.2692
	minimum = 7
	maximum = 241
Slowest flit = 69064
Fragmentation average = 0
	minimum = 0
	maximum = 0
Injected packet rate average = 0.101479
	minimum = 0.0946667 (at node 10)
	maximum = 0.1095 (at node 15)
Accepted packet rate average = 0.101271
	minimum = 0.0946667 (at node 10)
	maximum = 0.1095 (at node 15)
Injected flit rate average = 0.101479
	minimum = 0.0946667 (at node 10)
	maximum = 0.1095 (at node 15)
Accepted flit rate average= 0.101271
	minimum = 0.0946667 (at node 10)
	maximum = 0.1095 (at node 15)
Injected packet length average = 1
Accepted packet length average = 1
Total in-flight flits = 56 (56 measured)
latency change    = 0.0377453
throughput change = 0.00378523
Class 0:
Packet latency average = 46.3802
	minimum = 7
	maximum = 576
Network latency average = 27.4864
	minimum = 7
	maximum = 254
Slowest packet = 68156
Flit latency average = 27.4899
	minimum = 7
	maximum = 254
Slowest flit = 76609
Fragmentation average = 0
	minimum = 0
	maximum = 0
Injected packet rate average = 0.101884
	minimum = 0.0954286 (at node 10)
	maximum = 0.109571 (at node 15)
Accepted packet rate average = 0.101732
	minimum = 0.0947143 (at node 12)
	maximum = 0.109571 (at node 15)
Injected flit rate average = 0.101884
	minimum = 0.0954286 (at node 10)
	maximum = 0.109571 (at node 15)
Accepted flit rate average= 0.101732
	minimum = 0.0947143 (at node 12)
	maximum = 0.109571 (at node 15)
Injected packet length average = 1
Accepted packet length average = 1
Total in-flight flits = 53 (53 measured)
latency change    = 0.0132226
throughput change = 0.00453455
Draining all recorded packets ...
Draining remaining packets ...
Time taken is 10591 cycles
Class 0:
Packet latency average = 23.6955
	minimum = 7
	maximum = 139
Network latency average = 23.2926
	minimum = 7
	maximum = 139
Slowest packet = 79527
Flit latency average = 23.2926
	minimum = 7
	maximum = 139
Slowest flit = 79527
Fragmentation average = 0
	minimum = 0
	maximum = 0
Injected packet rate average = 0.0985
	minimum = 0.086 (at node 12)
	maximum = 0.11 (at node 4)
Accepted packet rate average = 0.094625
	minimum = 0.079 (at node 3)
	maximum = 0.107 (at node 9)
Injected flit rate average = 0.0985
	minimum = 0.086 (at node 12)
	maximum = 0.11 (at node 4)
Accepted flit rate average= 0.094625
	minimum = 0.079 (at node 3)
	maximum = 0.107 (at node 9)
Injected packet length average = 1
Accepted packet length average = 1
Total in-flight flits = 64 (0 measured)
latency change    = 1
throughput change = 1
Class 0:
Packet latency average = 26.2461
	minimum = 7
	maximum = 186
Network latency average = 25.0581
	minimum = 7
	maximum = 166
Slowest packet = 79527
Flit latency average = 25.0581
	minimum = 7
	maximum = 166
Slowest flit = 80623
Fragmentation average = 0
	minimum = 0
	maximum = 0
Injected packet rate average = 0.099
	minimum = 0.0825 (at node 12)
	maximum = 0.11 (at node 1)
Accepted packet rate average = 0.0979063
	minimum = 0.082 (at node 3)
	maximum = 0.1095 (at node 4)
Injected flit rate average = 0.099
	minimum = 0.0825 (at node 12)
	maximum = 0.11 (at node 1)
Accepted flit rate average= 0.0979063
	minimum = 0.082 (at node 3)
	maximum = 0.1095 (at node 4)
Injected packet length average = 1
Accepted packet length average = 1
Total in-flight flits = 36 (0 measured)
latency change    = 0.0971795
throughput change = 0.0335142
Class 0:
Packet latency average = 32.3639
	minimum = 7
	maximum = 259
Network latency average = 27.8892
	minimum = 7
	maximum = 179
Slowest packet = 82094
Flit latency average = 27.8892
	minimum = 7
	maximum = 179
Slowest flit = 82811
Fragmentation average = 0
	minimum = 0
	maximum = 0
Injected packet rate average = 0.098625
	minimum = 0.087 (at node 0)
	maximum = 0.111 (at node 3)
Accepted packet rate average = 0.0975625
	minimum = 0.085 (at node 14)
	maximum = 0.108 (at node 3)
Injected flit rate average = 0.098625
	minimum = 0.087 (at node 0)
	maximum = 0.111 (at node 3)
Accepted flit rate average= 0.0975625
	minimum = 0.085 (at node 14)
	maximum = 0.108 (at node 3)
Injected packet length average = 1
Accepted packet length average = 1
Total in-flight flits = 52 (0 measured)
latency change    = 0.189031
throughput change = 0.00352338
Warmed up ...Time used is 3000 cycles
Class 0:
Packet latency average = 31.3476
	minimum = 7
	maximum = 305
Network latency average = 26.3285
	minimum = 7
	maximum = 209
Slowest packet = 83749
Flit latency average = 27.2052
	minimum = 7
	maximum = 209
Slowest flit = 83779
Fragmentation average = 0
	minimum = 0
	maximum = 0
Injected packet rate average = 0.098125
	minimum = 0.066 (at node 12)
	maximum = 0.117 (at node 10)
Accepted packet rate average = 0.098375
	minimum = 0.067 (at node 3)
	maximum = 0.117 (at node 10)
Injected flit rate average = 0.098125
	minimum = 0.066 (at node 12)
	maximum = 0.117 (at node 10)
Accepted flit rate average= 0.098375
	minimum = 0.067 (at node 3)
	maximum = 0.117 (at node 10)
Injected packet length average = 1
Accepted packet length average = 1
Total in-flight flits = 50 (50 measured)
latency change    = 0.0324204
throughput change = 0.00825921
Class 0:
Packet latency average = 31.7639
	minimum = 7
	maximum = 305
Network latency average = 27.0616
	minimum = 7
	maximum = 221
Slowest packet = 83749
Flit latency average = 27.485
	minimum = 7
	maximum = 221
Slowest flit = 85028
Fragmentation average = 0
	minimum = 0
	maximum = 0
Injected packet rate average = 0.0987813
	minimum = 0.0825 (at node 7)
	maximum = 0.1155 (at node 1)
Accepted packet rate average = 0.0990313
	minimum = 0.0815 (at node 13)
	maximum = 0.115 (at node 4)
Injected flit rate average = 0.0987813
	minimum = 0.0825 (at node 7)
	maximum = 0.1155 (at node 1)
Accepted flit rate average= 0.0990313
	minimum = 0.0815 (at node 13)
	maximum = 0.115 (at node 4)
Injected packet length average = 1
Accepted packet length average = 1
Total in-flight flits = 45 (45 measured)
latency change    = 0.0131063
throughput change = 0.0066267
Class 0:
Packet latency average = 30.9177
	minimum = 7
	maximum = 305
Network latency average = 26.6897
	minimum = 7
	maximum = 221
Slowest packet = 83749
Flit latency average = 26.9752
	minimum = 7
	maximum = 221
Slowest flit = 85028
Fragmentation average = 0
	minimum = 0
	maximum = 0
Injected packet rate average = 0.0988958
	minimum = 0.0893333 (at node 4)
	maximum = 0.114 (at node 1)
Accepted packet rate average = 0.0993125
	minimum = 0.0896667 (at node 5)
	maximum = 0.114333 (at node 4)
Injected flit rate average = 0.0988958
	minimum = 0.0893333 (at node 4)
	maximum = 0.114 (at node 1)
Accepted flit rate average= 0.0993125
	minimum = 0.0896667 (at node 5)
	maximum = 0.114333 (at node 4)
Injected packet length average = 1
Accepted packet length average = 1
Total in-flight flits = 32 (32 measured)
latency change    = 0.0273683
throughput change = 0.00283197
Draining all recorded packets ...
Draining remaining packets ...
Time taken is 6088 cycles
Class 0:
Packet latency average = 21.7348
	minimum = 7
	maximum = 97
Network latency average = 21.6901
	minimum = 7
	maximum = 97
Slowest packet = 89834
Flit latency average = 21.6901
	minimum = 7
	maximum = 97
Slowest flit = 89834
Fragmentation average = 0
	minimum = 0
	maximum = 0
Injected packet rate average = 0.0999375
	minimum = 0.083 (at node 5)
	maximum = 0.116 (at node 10)
Accepted packet rate average = 0.0978125
	minimum = 0.083 (at node 5)
	maximum = 0.115 (at node 10)
Injected flit rate average = 0.0999375
	minimum = 0.083 (at node 5)
	maximum = 0.116 (at node 10)
Accepted flit rate average= 0.0978125
	minimum = 0.083 (at node 5)
	maximum = 0.115 (at node 10)
Injected packet length average = 1
Accepted packet length average = 1
Total in-flight flits = 34 (0 measured)
latency change    = 1
throughput change = 1
Class 0:
Packet latency average = 23.5448
	minimum = 7
	maximum = 191
Network latency average = 22.7938
	minimum = 7
	maximum = 173
Slowest packet = 91105
Flit latency average = 22.7938
	minimum = 7
	maximum = 173
Slowest flit = 91105
Fragmentation average = 0
	minimum = 0
	maximum = 0
Injected packet rate average = 0.0989687
	minimum = 0.086 (at node 2)
	maximum = 0.1105 (at node 1)
Accepted packet rate average = 0.09775
	minimum = 0.086 (at node 8)
	maximum = 0.1095 (at node 4)
Injected flit rate average = 0.0989687
	minimum = 0.086 (at node 2)
	maximum = 0.1105 (at node 1)
Accepted flit rate average= 0.09775
	minimum = 0.086 (at node 8)
	maximum = 0.1095 (at node 4)
Injected packet length average = 1
Accepted packet length average = 1
Total in-flight flits = 39 (0 measured)
latency change    = 0.076872
throughput change = 0.000639386
Class 0:
Packet latency average = 28.0862
	minimum = 7
	maximum = 176
Network latency average = 26.2759
	minimum = 7
	maximum = 171
Slowest packet = 91490
Flit latency average = 26.2759
	minimum = 7
	maximum = 171
Slowest flit = 93047
Fragmentation average = 0
	minimum = 0
	maximum = 0
Injected packet rate average = 0.101625
	minimum = 0.086 (at node 3)
	maximum = 0.119 (at node 0)
Accepted packet rate average = 0.1015
	minimum = 0.086 (at node 12)
	maximum = 0.118 (at node 0)
Injected flit rate average = 0.101625
	minimum = 0.086 (at node 3)
	maximum = 0.119 (at node 0)
Accepted flit rate average= 0.1015
	minimum = 0.086 (at node 12)
	maximum = 0.118 (at node 0)
Injected packet length average = 1
Accepted packet length average = 1
Total in-flight flits = 41 (0 measured)
latency change    = 0.161697
throughput change = 0.0369458
Warmed up ...Time used is 3000 cycles
Class 0:
Packet latency average = 36.6704
	minimum = 7
	maximum = 294
Network latency average = 27.3237
	minimum = 7
	maximum = 203
Slowest packet = 93543
Flit latency average = 28.0607
	minimum = 7
	maximum = 203
Slowest flit = 93543
Fragmentation average = 0
	minimum = 0
	maximum = 0
Injected packet rate average = 0.0981875
	minimum = 0.081 (at node 14)
	maximum = 0.116 (at node 6)
Accepted packet rate average = 0.09775
	minimum = 0.085 (at node 11)
	maximum = 0.113 (at node 1)
Injected flit rate average = 0.0981875
	minimum = 0.081 (at node 14)
	maximum = 0.116 (at node 6)
Accepted flit rate average= 0.09775
	minimum = 0.085 (at node 11)
	maximum = 0.113 (at node 1)
Injected packet length average = 1
Accepted packet length average = 1
Total in-flight flits = 50 (50 measured)
latency change    = 0.23409
throughput change = 0.0383632
Class 0:
Packet latency average = 38.9689
	minimum = 7
	maximum = 342
Network latency average = 27.3127
	minimum = 7
	maximum = 203
Slowest packet = 93543
Flit latency average = 27.6741
	minimum = 7
	maximum = 203
Slowest flit = 93543
Fragmentation average = 0
	minimum = 0
	maximum = 0
Injected packet rate average = 0.0998125
	minimum = 0.0885 (at node 12)
	maximum = 0.115 (at node 7)
Accepted packet rate average = 0.0997187
	minimum = 0.0885 (at node 3)
	maximum = 0.1145 (at node 13)
Injected flit rate average = 0.0998125
	minimum = 0.0885 (at node 12)
	maximum = 0.115 (at node 7)
Accepted flit rate average= 0.0997187
	minimum = 0.0885 (at node 3)
	maximum = 0.1145 (at node 13)
Injected packet length average = 1
Accepted packet length average = 1
Total in-flight flits = 46 (46 measured)
latency change    = 0.058983
throughput change = 0.019743
Class 0:
Packet latency average = 37.1236
	minimum = 7
	maximum = 342
Network latency average = 26.8899
	minimum = 7
	maximum = 203
Slowest packet = 93543
Flit latency average = 27.1355
	minimum = 7
	maximum = 203
Slowest flit = 93543
Fragmentation average = 0
	minimum = 0
	maximum = 0
Injected packet rate average = 0.0992708
	minimum = 0.0886667 (at node 6)
	maximum = 0.109667 (at node 4)
Accepted packet rate average = 0.0992917
	minimum = 0.0876667 (at node 9)
	maximum = 0.110667 (at node 13)
Injected flit rate average = 0.0992708
	minimum = 0.0886667 (at node 6)
	maximum = 0.109667 (at node 4)
Accepted flit rate average= 0.0992917
	minimum = 0.0876667 (at node 9)
	maximum = 0.110667 (at node 13)
Injected packet length average = 1
Accepted packet length average = 1
Total in-flight flits = 40 (40 measured)
latency change    = 0.0497067
throughput change = 0.0043013
Class 0:
Packet latency average = 33.7545
	minimum = 7
	maximum = 342
Network latency average = 25.9594
	minimum = 7
	maximum = 203
Slowest packet = 93543
Flit latency average = 26.1521
	minimum = 7
	maximum = 203
Slowest flit = 93543
Fragmentation average = 0
	minimum = 0
	maximum = 0
Injected packet rate average = 0.0978125
	minimum = 0.089 (at node 6)
	maximum = 0.105 (at node 7)
Accepted packet rate average = 0.0980156
	minimum = 0.0885 (at node 9)
	maximum = 0.1055 (at node 13)
Injected flit rate average = 0.0978125
	minimum = 0.089 (at node 6)
	maximum = 0.105 (at node 7)
Accepted flit rate average= 0.0980156
	minimum = 0.0885 (at node 9)
	maximum = 0.1055 (at node 13)
Injected packet length average = 1
Accepted packet length average = 1
Total in-flight flits = 28 (28 measured)
latency change    = 0.099812
throughput change = 0.0130188
Class 0:
Packet latency average = 31.3612
	minimum = 7
	maximum = 342
Network latency average = 25.1071
	minimum = 7
	maximum = 203
Slowest packet = 93543
Flit latency average = 25.2661
	minimum = 7
	maximum = 203
Slowest flit = 93543
Fragmentation average = 0
	minimum = 0
	maximum = 0
Injected packet rate average = 0.0975875
	minimum = 0.0858 (at node 11)
	maximum = 0.1048 (at node 4)
Accepted packet rate average = 0.0977625
	minimum = 0.0858 (at node 14)
	maximum = 0.1052 (at node 1)
Injected flit rate average = 0.0975875
	minimum = 0.0858 (at node 11)
	maximum = 0.1048 (at node 4)
Accepted flit rate average= 0.0977625
	minimum = 0.0858 (at node 14)
	maximum = 0.1052 (at node 1)
Injected packet length average = 1
Accepted packet length average = 1
Total in-flight flits = 27 (27 measured)
latency change    = 0.0763144
throughput change = 0.00258918
Class 0:
Packet latency average = 30.0662
	minimum = 7
	maximum = 342
Network latency average = 24.7783
	minimum = 7
	maximum = 203
Slowest packet = 93543
Flit latency average = 24.9122
	minimum = 7
	maximum = 203
Slowest flit = 93543
Fragmentation average = 0
	minimum = 0
	maximum = 0
Injected packet rate average = 0.0978646
	minimum = 0.0881667 (at node 11)
	maximum = 0.105 (at node 1)
Accepted packet rate average = 0.0977917
	minimum = 0.088 (at node 14)
	maximum = 0.104667 (at node 4)
Injected flit rate average = 0.0978646
	minimum = 0.0881667 (at node 11)
	maximum = 0.105 (at node 1)
Accepted flit rate average= 0.0977917
	minimum = 0.088 (at node 14)
	maximum = 0.104667 (at node 4)
Injected packet length average = 1
Accepted packet length average = 1
Total in-flight flits = 50 (50 measured)
latency change    = 0.0430702
throughput change = 0.000298253
Class 0:
Packet latency average = 30.3908
	minimum = 7
	maximum = 342
Network latency average = 25.152
	minimum = 7
	maximum = 203
Slowest packet = 93543
Flit latency average = 25.2649
	minimum = 7
	maximum = 203
Slowest flit = 93543
Fragmentation average = 0
	minimum = 0
	maximum = 0
Injected packet rate average = 0.0981786
	minimum = 0.0912857 (at node 6)
	maximum = 0.104714 (at node 7)
Accepted packet rate average = 0.0981786
	minimum = 0.091 (at node 9)
	maximum = 0.105 (at node 13)
Injected flit rate average = 0.0981786
	minimum = 0.0912857 (at node 6)
	maximum = 0.104714 (at node 7)
Accepted flit rate average= 0.0981786
	minimum = 0.091 (at node 9)
	maximum = 0.105 (at node 13)
Injected packet length average = 1
Accepted packet length average = 1
Total in-flight flits = 43 (43 measured)
latency change    = 0.0106794
throughput change = 0.00394083
Draining all recorded packets ...
Draining remaining packets ...
Time taken is 10292 cycles
Class 0:
Packet latency average = 25.4532
	minimum = 7
	maximum = 229
Network latency average = 24.8552
	minimum = 7
	maximum = 211
Slowest packet = 105852
Flit latency average = 24.8552
	minimum = 7
	maximum = 211
Slowest flit = 105916
Fragmentation average = 0
	minimum = 0
	maximum = 0
Injected packet rate average = 0.10125
	minimum = 0.086 (at node 10)
	maximum = 0.118 (at node 7)
Accepted packet rate average = 0.098875
	minimum = 0.086 (at node 10)
	maximum = 0.116 (at node 5)
Injected flit rate average = 0.10125
	minimum = 0.086 (at node 10)
	maximum = 0.118 (at node 7)
Accepted flit rate average= 0.098875
	minimum = 0.086 (at node 10)
	maximum = 0.116 (at node 5)
Injected packet length average = 1
Accepted packet length average = 1
Total in-flight flits = 39 (0 measured)
latency change    = 1
throughput change = 1
Class 0:
Packet latency average = 28.2063
	minimum = 7
	maximum = 263
Network latency average = 25.9865
	minimum = 7
	maximum = 249
Slowest packet = 106394
Flit latency average = 25.9865
	minimum = 7
	maximum = 249
Slowest flit = 106394
Fragmentation average = 0
	minimum = 0
	maximum = 0
Injected packet rate average = 0.102906
	minimum = 0.098 (at node 1)
	maximum = 0.1165 (at node 5)
Accepted packet rate average = 0.1015
	minimum = 0.0965 (at node 4)
	maximum = 0.1165 (at node 5)
Injected flit rate average = 0.102906
	minimum = 0.098 (at node 1)
	maximum = 0.1165 (at node 5)
Accepted flit rate average= 0.1015
	minimum = 0.0965 (at node 4)
	maximum = 0.1165 (at node 5)
Injected packet length average = 1
Accepted packet length average = 1
Total in-flight flits = 45 (0 measured)
latency change    = 0.0976044
throughput change = 0.0258621
Class 0:
Packet latency average = 29.5395
	minimum = 7
	maximum = 308
Network latency average = 26.9901
	minimum = 7
	maximum = 223
Slowest packet = 108657
Flit latency average = 26.9901
	minimum = 7
	maximum = 223
Slowest flit = 108988
Fragmentation average = 0
	minimum = 0
	maximum = 0
Injected packet rate average = 0.1005
	minimum = 0.09 (at node 7)
	maximum = 0.111 (at node 6)
Accepted packet rate average = 0.100562
	minimum = 0.089 (at node 13)
	maximum = 0.111 (at node 7)
Injected flit rate average = 0.1005
	minimum = 0.09 (at node 7)
	maximum = 0.111 (at node 6)
Accepted flit rate average= 0.100562
	minimum = 0.089 (at node 13)
	maximum = 0.111 (at node 7)
Injected packet length average = 1
Accepted packet length average = 1
Total in-flight flits = 46 (0 measured)
latency change    = 0.0451323
throughput change = 0.00932256
Warmed up ...Time used is 3000 cycles
Class 0:
Packet latency average = 41.8831
	minimum = 7
	maximum = 449
Network latency average = 27.4977
	minimum = 7
	maximum = 201
Slowest packet = 109565
Flit latency average = 28.6896
	minimum = 7
	maximum = 214
Slowest flit = 109519
Fragmentation average = 0
	minimum = 0
	maximum = 0
Injected packet rate average = 0.0983125
	minimum = 0.079 (at node 0)
	maximum = 0.11 (at node 4)
Accepted packet rate average = 0.0980625
	minimum = 0.079 (at node 0)
	maximum = 0.11 (at node 1)
Injected flit rate average = 0.0983125
	minimum = 0.079 (at node 0)
	maximum = 0.11 (at node 4)
Accepted flit rate average= 0.0980625
	minimum = 0.079 (at node 0)
	maximum = 0.11 (at node 1)
Injected packet length average = 1
Accepted packet length average = 1
Total in-flight flits = 50 (50 measured)
latency change    = 0.294717
throughput change = 0.0254939
Class 0:
Packet latency average = 39.5193
	minimum = 7
	maximum = 449
Network latency average = 27.499
	minimum = 7
	maximum = 201
Slowest packet = 109565
Flit latency average = 28.0927
	minimum = 7
	maximum = 214
Slowest flit = 109519
Fragmentation average = 0
	minimum = 0
	maximum = 0
Injected packet rate average = 0.0985
	minimum = 0.077 (at node 0)
	maximum = 0.1115 (at node 9)
Accepted packet rate average = 0.0984375
	minimum = 0.0765 (at node 0)
	maximum = 0.111 (at node 6)
Injected flit rate average = 0.0985
	minimum = 0.077 (at node 0)
	maximum = 0.1115 (at node 9)
Accepted flit rate average= 0.0984375
	minimum = 0.0765 (at node 0)
	maximum = 0.111 (at node 6)
Injected packet length average = 1
Accepted packet length average = 1
Total in-flight flits = 47 (47 measured)
latency change    = 0.0598137
throughput change = 0.00380952
Class 0:
Packet latency average = 37.6853
	minimum = 7
	maximum = 449
Network latency average = 27.7081
	minimum = 7
	maximum = 201
Slowest packet = 109565
Flit latency average = 28.1018
	minimum = 7
	maximum = 214
Slowest flit = 109519
Fragmentation average = 0
	minimum = 0
	maximum = 0
Injected packet rate average = 0.0984792
	minimum = 0.0833333 (at node 0)
	maximum = 0.109 (at node 15)
Accepted packet rate average = 0.0984583
	minimum = 0.0836667 (at node 0)
	maximum = 0.109 (at node 15)
Injected flit rate average = 0.0984792
	minimum = 0.0833333 (at node 0)
	maximum = 0.109 (at node 15)
Accepted flit rate average= 0.0984583
	minimum = 0.0836667 (at node 0)
	maximum = 0.109 (at node 15)
Injected packet length average = 1
Accepted packet length average = 1
Total in-flight flits = 47 (47 measured)
latency change    = 0.0486682
throughput change = 0.000211595
Class 0:
Packet latency average = 38.4921
	minimum = 7
	maximum = 449
Network latency average = 27.9143
	minimum = 7
	maximum = 201
Slowest packet = 109565
Flit latency average = 28.2102
	minimum = 7
	maximum = 214
Slowest flit = 109519
Fragmentation average = 0
	minimum = 0
	maximum = 0
Injected packet rate average = 0.0976406
	minimum = 0.0915 (at node 0)
	maximum = 0.1035 (at node 3)
Accepted packet rate average = 0.09775
	minimum = 0.09175 (at node 0)
	maximum = 0.104 (at node 12)
Injected flit rate average = 0.0976406
	minimum = 0.0915 (at node 0)
	maximum = 0.1035 (at node 3)
Accepted flit rate average= 0.09775
	minimum = 0.09175 (at node 0)
	maximum = 0.104 (at node 12)
Injected packet length average = 1
Accepted packet length average = 1
Total in-flight flits = 39 (39 measured)
latency change    = 0.0209615
throughput change = 0.00724638
Class 0:
Packet latency average = 38.5111
	minimum = 7
	maximum = 449
Network latency average = 28.0422
	minimum = 7
	maximum = 247
Slowest packet = 109565
Flit latency average = 28.2771
	minimum = 7
	maximum = 247
Slowest flit = 116770
Fragmentation average = 0
	minimum = 0
	maximum = 0
Injected packet rate average = 0.0981875
	minimum = 0.0934 (at node 0)
	maximum = 0.1038 (at node 1)
Accepted packet rate average = 0.0982125
	minimum = 0.0934 (at node 0)
	maximum = 0.1036 (at node 4)
Injected flit rate average = 0.0981875
	minimum = 0.0934 (at node 0)
	maximum = 0.1038 (at node 1)
Accepted flit rate average= 0.0982125
	minimum = 0.0934 (at node 0)
	maximum = 0.1036 (at node 4)
Injected packet length average = 1
Accepted packet length average = 1
Total in-flight flits = 44 (44 measured)
latency change    = 0.000492446
throughput change = 0.00470918
Draining all recorded packets ...
Draining remaining packets ...
Time taken is 8306 cycles
Class 0:
Packet latency average = 21.4868
	minimum = 7
	maximum = 88
Network latency average = 21.4624
	minimum = 7
	maximum = 83
Slowest packet = 117995
Flit latency average = 21.4624
	minimum = 7
	maximum = 83
Slowest flit = 117995
Fragmentation average = 0
	minimum = 0
	maximum = 0
Injected packet rate average = 0.099875
	minimum = 0.08 (at node 13)
	maximum = 0.115 (at node 8)
Accepted packet rate average = 0.0971875
	minimum = 0.079 (at node 7)
	maximum = 0.113 (at node 6)
Injected flit rate average = 0.099875
	minimum = 0.08 (at node 13)
	maximum = 0.115 (at node 8)
Accepted flit rate average= 0.0971875
	minimum = 0.079 (at node 7)
	maximum = 0.113 (at node 6)
Injected packet length average = 1
Accepted packet length average = 1
Total in-flight flits = 43 (0 measured)
latency change    = 1
throughput change = 1
Class 0:
Packet latency average = 21.8355
	minimum = 7
	maximum = 106
Network latency average = 21.804
	minimum = 7
	maximum = 106
Slowest packet = 119307
Flit latency average = 21.804
	minimum = 7
	maximum = 106
Slowest flit = 119307
Fragmentation average = 0
	minimum = 0
	maximum = 0
Injected packet rate average = 0.0984375
	minimum = 0.0855 (at node 11)
	maximum = 0.113 (at node 14)
Accepted packet rate average = 0.0974375
	minimum = 0.0855 (at node 14)
	maximum = 0.1115 (at node 11)
Injected flit rate average = 0.0984375
	minimum = 0.0855 (at node 11)
	maximum = 0.113 (at node 14)
Accepted flit rate average= 0.0974375
	minimum = 0.0855 (at node 14)
	maximum = 0.1115 (at node 11)
Injected packet length average = 1
Accepted packet length average = 1
Total in-flight flits = 32 (0 measured)
latency change    = 0.0159674
throughput change = 0.00256575
Class 0:
Packet latency average = 21.9499
	minimum = 7
	maximum = 111
Network latency average = 21.8811
	minimum = 7
	maximum = 101
Slowest packet = 121608
Flit latency average = 21.8811
	minimum = 7
	maximum = 101
Slowest flit = 121608
Fragmentation average = 0
	minimum = 0
	maximum = 0
Injected packet rate average = 0.10025
	minimum = 0.09 (at node 11)
	maximum = 0.12 (at node 14)
Accepted packet rate average = 0.099875
	minimum = 0.087 (at node 14)
	maximum = 0.122 (at node 11)
Injected flit rate average = 0.10025
	minimum = 0.09 (at node 11)
	maximum = 0.12 (at node 14)
Accepted flit rate average= 0.099875
	minimum = 0.087 (at node 14)
	maximum = 0.122 (at node 11)
Injected packet length average = 1
Accepted packet length average = 1
Total in-flight flits = 38 (0 measured)
latency change    = 0.00521487
throughput change = 0.0244055
Warmed up ...Time used is 3000 cycles
Class 0:
Packet latency average = 22.7934
	minimum = 7
	maximum = 109
Network latency average = 22.6577
	minimum = 7
	maximum = 109
Slowest packet = 122640
Flit latency average = 23.0019
	minimum = 7
	maximum = 109
Slowest flit = 122640
Fragmentation average = 0
	minimum = 0
	maximum = 0
Injected packet rate average = 0.0978125
	minimum = 0.087 (at node 5)
	maximum = 0.11 (at node 15)
Accepted packet rate average = 0.0976875
	minimum = 0.086 (at node 3)
	maximum = 0.108 (at node 15)
Injected flit rate average = 0.0978125
	minimum = 0.087 (at node 5)
	maximum = 0.11 (at node 15)
Accepted flit rate average= 0.0976875
	minimum = 0.086 (at node 3)
	maximum = 0.108 (at node 15)
Injected packet length average = 1
Accepted packet length average = 1
Total in-flight flits = 40 (40 measured)
latency change    = 0.0370065
throughput change = 0.0223928
Class 0:
Packet latency average = 28.7905
	minimum = 7
	maximum = 313
Network latency average = 25.3386
	minimum = 7
	maximum = 212
Slowest packet = 124381
Flit latency average = 25.4754
	minimum = 7
	maximum = 212
Slowest flit = 125190
Fragmentation average = 0
	minimum = 0
	maximum = 0
Injected packet rate average = 0.0998437
	minimum = 0.0905 (at node 12)
	maximum = 0.1085 (at node 2)
Accepted packet rate average = 0.0996563
	minimum = 0.0905 (at node 3)
	maximum = 0.108 (at node 11)
Injected flit rate average = 0.0998437
	minimum = 0.0905 (at node 12)
	maximum = 0.1085 (at node 2)
Accepted flit rate average= 0.0996563
	minimum = 0.0905 (at node 3)
	maximum = 0.108 (at node 11)
Injected packet length average = 1
Accepted packet length average = 1
Total in-flight flits = 45 (45 measured)
latency change    = 0.208301
throughput change = 0.0197554
Class 0:
Packet latency average = 31.3386
	minimum = 7
	maximum = 319
Network latency average = 26.3603
	minimum = 7
	maximum = 265
Slowest packet = 124381
Flit latency average = 26.4434
	minimum = 7
	maximum = 265
Slowest flit = 126516
Fragmentation average = 0
	minimum = 0
	maximum = 0
Injected packet rate average = 0.0997083
	minimum = 0.0926667 (at node 8)
	maximum = 0.109333 (at node 2)
Accepted packet rate average = 0.0996042
	minimum = 0.093 (at node 12)
	maximum = 0.108667 (at node 8)
Injected flit rate average = 0.0997083
	minimum = 0.0926667 (at node 8)
	maximum = 0.109333 (at node 2)
Accepted flit rate average= 0.0996042
	minimum = 0.093 (at node 12)
	maximum = 0.108667 (at node 8)
Injected packet length average = 1
Accepted packet length average = 1
Total in-flight flits = 45 (45 measured)
latency change    = 0.0813074
throughput change = 0.000522903
Class 0:
Packet latency average = 31.4319
	minimum = 7
	maximum = 319
Network latency average = 26.7258
	minimum = 7
	maximum = 265
Slowest packet = 124381
Flit latency average = 26.7861
	minimum = 7
	maximum = 265
Slowest flit = 126516
Fragmentation average = 0
	minimum = 0
	maximum = 0
Injected packet rate average = 0.0995313
	minimum = 0.095 (at node 1)
	maximum = 0.109 (at node 2)
Accepted packet rate average = 0.0993594
	minimum = 0.095 (at node 4)
	maximum = 0.10725 (at node 8)
Injected flit rate average = 0.0995313
	minimum = 0.095 (at node 1)
	maximum = 0.109 (at node 2)
Accepted flit rate average= 0.0993594
	minimum = 0.095 (at node 4)
	maximum = 0.10725 (at node 8)
Injected packet length average = 1
Accepted packet length average = 1
Total in-flight flits = 50 (50 measured)
latency change    = 0.00296799
throughput change = 0.0024637
Class 0:
Packet latency average = 31.3921
	minimum = 7
	maximum = 319
Network latency average = 26.9966
	minimum = 7
	maximum = 265
Slowest packet = 124381
Flit latency average = 27.0436
	minimum = 7
	maximum = 265
Slowest flit = 126516
Fragmentation average = 0
	minimum = 0
	maximum = 0
Injected packet rate average = 0.0995
	minimum = 0.0924 (at node 1)
	maximum = 0.1084 (at node 2)
Accepted packet rate average = 0.0992375
	minimum = 0.0926 (at node 4)
	maximum = 0.1068 (at node 8)
Injected flit rate average = 0.0995
	minimum = 0.0924 (at node 1)
	maximum = 0.1084 (at node 2)
Accepted flit rate average= 0.0992375
	minimum = 0.0926 (at node 4)
	maximum = 0.1068 (at node 8)
Injected packet length average = 1
Accepted packet length average = 1
Total in-flight flits = 60 (60 measured)
latency change    = 0.00126756
throughput change = 0.00122811
Class 0:
Packet latency average = 32.5013
	minimum = 7
	maximum = 413
Network latency average = 27.118
	minimum = 7
	maximum = 265
Slowest packet = 124381
Flit latency average = 27.1565
	minimum = 7
	maximum = 265
Slowest flit = 126516
Fragmentation average = 0
	minimum = 0
	maximum = 0
Injected packet rate average = 0.0997396
	minimum = 0.0918333 (at node 1)
	maximum = 0.11 (at node 2)
Accepted packet rate average = 0.0996875
	minimum = 0.0916667 (at node 4)
	maximum = 0.1095 (at node 8)
Injected flit rate average = 0.0997396
	minimum = 0.0918333 (at node 1)
	maximum = 0.11 (at node 2)
Accepted flit rate average= 0.0996875
	minimum = 0.0916667 (at node 4)
	maximum = 0.1095 (at node 8)
Injected packet length average = 1
Accepted packet length average = 1
Total in-flight flits = 44 (44 measured)
latency change    = 0.0341266
throughput change = 0.00451411
Draining all recorded packets ...
Draining remaining packets ...
Time taken is 9362 cycles
Class 0:
Packet latency average = 26.3621
	minimum = 7
	maximum = 287
Network latency average = 24.6732
	minimum = 7
	maximum = 234
Slowest packet = 133545
Flit latency average = 24.6732
	minimum = 7
	maximum = 234
Slowest flit = 133545
Fragmentation average = 0
	minimum = 0
	maximum = 0
Injected packet rate average = 0.098125
	minimum = 0.08 (at node 15)
	maximum = 0.117 (at node 5)
Accepted packet rate average = 0.0954375
	minimum = 0.079 (at node 12)
	maximum = 0.117 (at node 5)
Injected flit rate average = 0.098125
	minimum = 0.08 (at node 15)
	maximum = 0.117 (at node 5)
Accepted flit rate average= 0.0954375
	minimum = 0.079 (at node 12)
	maximum = 0.117 (at node 5)
Injected packet length average = 1
Accepted packet length average = 1
Total in-flight flits = 44 (0 measured)
latency change    = 1
throughput change = 1
Class 0:
Packet latency average = 34.1931
	minimum = 7
	maximum = 325
Network latency average = 26.6681
	minimum = 7
	maximum = 234
Slowest packet = 133545
Flit latency average = 26.6681
	minimum = 7
	maximum = 234
Slowest flit = 133545
Fragmentation average = 0
	minimum = 0
	maximum = 0
Injected packet rate average = 0.0997187
	minimum = 0.091 (at node 4)
	maximum = 0.112 (at node 5)
Accepted packet rate average = 0.0984063
	minimum = 0.0875 (at node 12)
	maximum = 0.112 (at node 5)
Injected flit rate average = 0.0997187
	minimum = 0.091 (at node 4)
	maximum = 0.112 (at node 5)
Accepted flit rate average= 0.0984063
	minimum = 0.0875 (at node 12)
	maximum = 0.112 (at node 5)
Injected packet length average = 1
Accepted packet length average = 1
Total in-flight flits = 43 (0 measured)
latency change    = 0.229021
throughput change = 0.0301683
Class 0:
Packet latency average = 54.5477
	minimum = 7
	maximum = 496
Network latency average = 29.1383
	minimum = 7
	maximum = 241
Slowest packet = 135605
Flit latency average = 29.1383
	minimum = 7
	maximum = 241
Slowest flit = 136769
Fragmentation average = 0
	minimum = 0
	maximum = 0
Injected packet rate average = 0.102313
	minimum = 0.085 (at node 9)
	maximum = 0.12 (at node 10)
Accepted packet rate average = 0.102125
	minimum = 0.085 (at node 0)
	maximum = 0.12 (at node 3)
Injected flit rate average = 0.102313
	minimum = 0.085 (at node 9)
	maximum = 0.12 (at node 10)
Accepted flit rate average= 0.102125
	minimum = 0.085 (at node 0)
	maximum = 0.12 (at node 3)
Injected packet length average = 1
Accepted packet length average = 1
Total in-flight flits = 47 (0 measured)
latency change    = 0.373153
throughput change = 0.0364137
Warmed up ...Time used is 3000 cycles
Class 0:
Packet latency average = 53.2448
	minimum = 7
	maximum = 518
Network latency average = 27.007
	minimum = 7
	maximum = 217
Slowest packet = 137397
Flit latency average = 27.9259
	minimum = 7
	maximum = 217
Slowest flit = 138450
Fragmentation average = 0
	minimum = 0
	maximum = 0
Injected packet rate average = 0.101125
	minimum = 0.088 (at node 4)
	maximum = 0.129 (at node 5)
Accepted packet rate average = 0.10125
	minimum = 0.088 (at node 1)
	maximum = 0.131 (at node 5)
Injected flit rate average = 0.101125
	minimum = 0.088 (at node 4)
	maximum = 0.129 (at node 5)
Accepted flit rate average= 0.10125
	minimum = 0.088 (at node 1)
	maximum = 0.131 (at node 5)
Injected packet length average = 1
Accepted packet length average = 1
Total in-flight flits = 44 (44 measured)
latency change    = 0.0244715
throughput change = 0.00864198
Class 0:
Packet latency average = 53.2393
	minimum = 7
	maximum = 539
Network latency average = 27.4406
	minimum = 7
	maximum = 217
Slowest packet = 137397
Flit latency average = 27.8956
	minimum = 7
	maximum = 217
Slowest flit = 138450
Fragmentation average = 0
	minimum = 0
	maximum = 0
Injected packet rate average = 0.100687
	minimum = 0.0915 (at node 1)
	maximum = 0.1225 (at node 5)
Accepted packet rate average = 0.100844
	minimum = 0.0915 (at node 1)
	maximum = 0.1225 (at node 5)
Injected flit rate average = 0.100687
	minimum = 0.0915 (at node 1)
	maximum = 0.1225 (at node 5)
Accepted flit rate average= 0.100844
	minimum = 0.0915 (at node 1)
	maximum = 0.1225 (at node 5)
Injected packet length average = 1
Accepted packet length average = 1
Total in-flight flits = 41 (41 measured)
latency change    = 0.000102313
throughput change = 0.00402851
Class 0:
Packet latency average = 51.2971
	minimum = 7
	maximum = 539
Network latency average = 27.8886
	minimum = 7
	maximum = 217
Slowest packet = 137397
Flit latency average = 28.1899
	minimum = 7
	maximum = 217
Slowest flit = 138450
Fragmentation average = 0
	minimum = 0
	maximum = 0
Injected packet rate average = 0.100146
	minimum = 0.0926667 (at node 4)
	maximum = 0.114 (at node 5)
Accepted packet rate average = 0.100062
	minimum = 0.0926667 (at node 1)
	maximum = 0.114333 (at node 5)
Injected flit rate average = 0.100146
	minimum = 0.0926667 (at node 4)
	maximum = 0.114 (at node 5)
Accepted flit rate average= 0.100062
	minimum = 0.0926667 (at node 1)
	maximum = 0.114333 (at node 5)
Injected packet length average = 1
Accepted packet length average = 1
Total in-flight flits = 51 (51 measured)
latency change    = 0.037862
throughput change = 0.00780762
Draining all recorded packets ...
Draining remaining packets ...
Time taken is 6450 cycles
Class 0:
Packet latency average = 23.78
	minimum = 7
	maximum = 133
Network latency average = 23.5456
	minimum = 7
	maximum = 130
Slowest packet = 143021
Flit latency average = 23.5456
	minimum = 7
	maximum = 130
Slowest flit = 143021
Fragmentation average = 0
	minimum = 0
	maximum = 0
Injected packet rate average = 0.102938
	minimum = 0.082 (at node 10)
	maximum = 0.122 (at node 13)
Accepted packet rate average = 0.1
	minimum = 0.08 (at node 10)
	maximum = 0.119 (at node 6)
Injected flit rate average = 0.102938
	minimum = 0.082 (at node 10)
	maximum = 0.122 (at node 13)
Accepted flit rate average= 0.1
	minimum = 0.08 (at node 10)
	maximum = 0.119 (at node 6)
Injected packet length average = 1
Accepted packet length average = 1
Total in-flight flits = 47 (0 measured)
latency change    = 1
throughput change = 1
Class 0:
Packet latency average = 27.0119
	minimum = 7
	maximum = 242
Network latency average = 25.6537
	minimum = 7
	maximum = 204
Slowest packet = 145161
Flit latency average = 25.6537
	minimum = 7
	maximum = 204
Slowest flit = 145161
Fragmentation average = 0
	minimum = 0
	maximum = 0
Injected packet rate average = 0.101
	minimum = 0.083 (at node 10)
	maximum = 0.112 (at node 13)
Accepted packet rate average = 0.099625
	minimum = 0.083 (at node 10)
	maximum = 0.1115 (at node 7)
Injected flit rate average = 0.101
	minimum = 0.083 (at node 10)
	maximum = 0.112 (at node 13)
Accepted flit rate average= 0.099625
	minimum = 0.083 (at node 10)
	maximum = 0.1115 (at node 7)
Injected packet length average = 1
Accepted packet length average = 1
Total in-flight flits = 46 (0 measured)
latency change    = 0.119648
throughput change = 0.00376412
Class 0:
Packet latency average = 32.5508
	minimum = 7
	maximum = 248
Network latency average = 28.0785
	minimum = 7
	maximum = 212
Slowest packet = 145830
Flit latency average = 28.0785
	minimum = 7
	maximum = 212
Slowest flit = 146971
Fragmentation average = 0
	minimum = 0
	maximum = 0
Injected packet rate average = 0.0969375
	minimum = 0.081 (at node 14)
	maximum = 0.105 (at node 3)
Accepted packet rate average = 0.097125
	minimum = 0.076 (at node 11)
	maximum = 0.106 (at node 12)
Injected flit rate average = 0.0969375
	minimum = 0.081 (at node 14)
	maximum = 0.105 (at node 3)
Accepted flit rate average= 0.097125
	minimum = 0.076 (at node 11)
	maximum = 0.106 (at node 12)
Injected packet length average = 1
Accepted packet length average = 1
Total in-flight flits = 41 (0 measured)
latency change    = 0.170162
throughput change = 0.02574
Warmed up ...Time used is 3000 cycles
Class 0:
Packet latency average = 30.5696
	minimum = 7
	maximum = 306
Network latency average = 27.6535
	minimum = 7
	maximum = 259
Slowest packet = 148632
Flit latency average = 28.1487
	minimum = 7
	maximum = 259
Slowest flit = 148632
Fragmentation average = 0
	minimum = 0
	maximum = 0
Injected packet rate average = 0.101375
	minimum = 0.088 (at node 3)
	maximum = 0.119 (at node 2)
Accepted packet rate average = 0.100875
	minimum = 0.087 (at node 13)
	maximum = 0.113 (at node 8)
Injected flit rate average = 0.101375
	minimum = 0.088 (at node 3)
	maximum = 0.119 (at node 2)
Accepted flit rate average= 0.100875
	minimum = 0.087 (at node 13)
	maximum = 0.113 (at node 8)
Injected packet length average = 1
Accepted packet length average = 1
Total in-flight flits = 52 (52 measured)
latency change    = 0.0648103
throughput change = 0.0371747
Class 0:
Packet latency average = 41.6559
	minimum = 7
	maximum = 462
Network latency average = 28.2629
	minimum = 7
	maximum = 259
Slowest packet = 148632
Flit latency average = 28.5015
	minimum = 7
	maximum = 259
Slowest flit = 148632
Fragmentation average = 0
	minimum = 0
	maximum = 0
Injected packet rate average = 0.101625
	minimum = 0.0885 (at node 3)
	maximum = 0.114 (at node 8)
Accepted packet rate average = 0.101375
[...]
Accepted packet rate average = 0.0984583
	minimum = 0.0893333 (at node 11)
	maximum = 0.104667 (at node 2)
Injected flit rate average = 0.0988125
	minimum = 0.09 (at node 14)
	maximum = 0.104 (at node 2)
Accepted flit rate average= 0.0984583
	minimum = 0.0893333 (at node 11)
	maximum = 0.104667 (at node 2)
Injected packet length average = 1
Accepted packet length average = 1
Total in-flight flits = 57 (57 measured)
latency change    = 0.0898408
throughput change = 0.0210537
Class 0:
Packet latency average = 52.8277
	minimum = 7
	maximum = 553
Network latency average = 28.1629
	minimum = 7
	maximum = 295
Slowest packet = 1473667
Flit latency average = 28.349
	minimum = 7
	maximum = 295
Slowest flit = 1477106
Fragmentation average = 0
	minimum = 0
	maximum = 0
Injected packet rate average = 0.0994531
	minimum = 0.092 (at node 11)
	maximum = 0.10625 (at node 8)
Accepted packet rate average = 0.0993906
	minimum = 0.0915 (at node 11)
	maximum = 0.10675 (at node 2)
Injected flit rate average = 0.0994531
	minimum = 0.092 (at node 11)
	maximum = 0.10625 (at node 8)
Accepted flit rate average= 0.0993906
	minimum = 0.0915 (at node 11)
	maximum = 0.10675 (at node 2)
Injected packet length average = 1
Accepted packet length average = 1
Total in-flight flits = 44 (44 measured)
latency change    = 0.0663043
throughput change = 0.00938008
Class 0:
Packet latency average = 54.4746
	minimum = 7
	maximum = 799
Network latency average = 28.3692
	minimum = 7
	maximum = 307
Slowest packet = 1473667
Flit latency average = 28.5165
	minimum = 7
	maximum = 307
Slowest flit = 1481106
Fragmentation average = 0
	minimum = 0
	maximum = 0
Injected packet rate average = 0.0997875
	minimum = 0.0898 (at node 3)
	maximum = 0.1082 (at node 6)
Accepted packet rate average = 0.0997375
	minimum = 0.09 (at node 12)
	maximum = 0.1084 (at node 9)
Injected flit rate average = 0.0997875
	minimum = 0.0898 (at node 3)
	maximum = 0.1082 (at node 6)
Accepted flit rate average= 0.0997375
	minimum = 0.09 (at node 12)
	maximum = 0.1084 (at node 9)
Injected packet length average = 1
Accepted packet length average = 1
Total in-flight flits = 44 (44 measured)
latency change    = 0.0302325
throughput change = 0.00347788
Class 0:
Packet latency average = 58.9162
	minimum = 7
	maximum = 896
Network latency average = 28.4426
	minimum = 7
	maximum = 307
Slowest packet = 1473667
Flit latency average = 28.5651
	minimum = 7
	maximum = 307
Slowest flit = 1481106
Fragmentation average = 0
	minimum = 0
	maximum = 0
Injected packet rate average = 0.0997187
	minimum = 0.0908333 (at node 3)
	maximum = 0.106333 (at node 6)
Accepted packet rate average = 0.0996458
	minimum = 0.0908333 (at node 12)
	maximum = 0.106333 (at node 9)
Injected flit rate average = 0.0997187
	minimum = 0.0908333 (at node 3)
	maximum = 0.106333 (at node 6)
Accepted flit rate average= 0.0996458
	minimum = 0.0908333 (at node 12)
	maximum = 0.106333 (at node 9)
Injected packet length average = 1
Accepted packet length average = 1
Total in-flight flits = 47 (47 measured)
latency change    = 0.0753886
throughput change = 0.000919925
Class 0:
Packet latency average = 62.4387
	minimum = 7
	maximum = 970
Network latency average = 28.4436
	minimum = 7
	maximum = 307
Slowest packet = 1473667
Flit latency average = 28.5493
	minimum = 7
	maximum = 307
Slowest flit = 1481106
Fragmentation average = 0
	minimum = 0
	maximum = 0
Injected packet rate average = 0.0991518
	minimum = 0.092 (at node 11)
	maximum = 0.103714 (at node 6)
Accepted packet rate average = 0.0990179
	minimum = 0.0918571 (at node 14)
	maximum = 0.104 (at node 9)
Injected flit rate average = 0.0991518
	minimum = 0.092 (at node 11)
	maximum = 0.103714 (at node 6)
Accepted flit rate average= 0.0990179
	minimum = 0.0918571 (at node 14)
	maximum = 0.104 (at node 9)
Injected packet length average = 1
Accepted packet length average = 1
Total in-flight flits = 54 (54 measured)
latency change    = 0.0564154
throughput change = 0.00634205
Draining all recorded packets ...
Draining remaining packets ...
Time taken is 10829 cycles
Class 0:
Packet latency average = 25.9235
	minimum = 7
	maximum = 213
Network latency average = 24.4022
	minimum = 7
	maximum = 208
Slowest packet = 1486899
Flit latency average = 24.4022
	minimum = 7
	maximum = 208
Slowest flit = 1486899
Fragmentation average = 0
	minimum = 0
	maximum = 0
Injected packet rate average = 0.10075
	minimum = 0.082 (at node 12)
	maximum = 0.115 (at node 8)
Accepted packet rate average = 0.0980625
	minimum = 0.077 (at node 3)
	maximum = 0.114 (at node 2)
Injected flit rate average = 0.10075
	minimum = 0.082 (at node 12)
	maximum = 0.115 (at node 8)
Accepted flit rate average= 0.0980625
	minimum = 0.077 (at node 3)
	maximum = 0.114 (at node 2)
Injected packet length average = 1
Accepted packet length average = 1
Total in-flight flits = 44 (0 measured)
latency change    = 1
throughput change = 1
Class 0:
Packet latency average = 26.4015
	minimum = 7
	maximum = 229
Network latency average = 24.7637
	minimum = 7
	maximum = 208
Slowest packet = 1486899
Flit latency average = 24.7637
	minimum = 7
	maximum = 208
Slowest flit = 1486899
Fragmentation average = 0
	minimum = 0
	maximum = 0
Injected packet rate average = 0.100031
	minimum = 0.0895 (at node 12)
	maximum = 0.116 (at node 8)
Accepted packet rate average = 0.0989375
	minimum = 0.0875 (at node 3)
	maximum = 0.115 (at node 2)
Injected flit rate average = 0.100031
	minimum = 0.0895 (at node 12)
	maximum = 0.116 (at node 8)
Accepted flit rate average= 0.0989375
	minimum = 0.0875 (at node 3)
	maximum = 0.115 (at node 2)
Injected packet length average = 1
Accepted packet length average = 1
Total in-flight flits = 35 (0 measured)
latency change    = 0.0181026
throughput change = 0.00884397
Class 0:
Packet latency average = 22.7433
	minimum = 7
	maximum = 147
Network latency average = 22.7075
	minimum = 7
	maximum = 147
Slowest packet = 1490481
Flit latency average = 22.7075
	minimum = 7
	maximum = 147
Slowest flit = 1490481
Fragmentation average = 0
	minimum = 0
	maximum = 0
Injected packet rate average = 0.0978125
	minimum = 0.08 (at node 9)
	maximum = 0.121 (at node 13)
Accepted packet rate average = 0.097875
	minimum = 0.079 (at node 6)
	maximum = 0.121 (at node 7)
Injected flit rate average = 0.0978125
	minimum = 0.08 (at node 9)
	maximum = 0.121 (at node 13)
Accepted flit rate average= 0.097875
	minimum = 0.079 (at node 6)
	maximum = 0.121 (at node 7)
Injected packet length average = 1
Accepted packet length average = 1
Total in-flight flits = 34 (0 measured)
latency change    = 0.160846
throughput change = 0.0108557
Warmed up ...Time used is 3000 cycles
Class 0:
Packet latency average = 24.5749
	minimum = 7
	maximum = 196
Network latency average = 23.8446
	minimum = 7
	maximum = 196
Slowest packet = 1491838
Flit latency average = 24.0578
	minimum = 7
	maximum = 196
Slowest flit = 1491838
Fragmentation average = 0
	minimum = 0
	maximum = 0
Injected packet rate average = 0.103313
	minimum = 0.089 (at node 7)
	maximum = 0.121 (at node 1)
Accepted packet rate average = 0.102688
	minimum = 0.087 (at node 13)
	maximum = 0.122 (at node 4)
Injected flit rate average = 0.103313
	minimum = 0.089 (at node 7)
	maximum = 0.121 (at node 1)
Accepted flit rate average= 0.102688
	minimum = 0.087 (at node 13)
	maximum = 0.122 (at node 4)
Injected packet length average = 1
Accepted packet length average = 1
Total in-flight flits = 44 (44 measured)
latency change    = 0.0745312
throughput change = 0.0468655
Class 0:
Packet latency average = 26.354
	minimum = 7
	maximum = 196
Network latency average = 25.2834
	minimum = 7
	maximum = 196
Slowest packet = 1491838
Flit latency average = 25.3761
	minimum = 7
	maximum = 196
Slowest flit = 1491838
Fragmentation average = 0
	minimum = 0
	maximum = 0
Injected packet rate average = 0.101875
	minimum = 0.092 (at node 5)
	maximum = 0.115 (at node 1)
Accepted packet rate average = 0.101531
	minimum = 0.091 (at node 5)
	maximum = 0.1145 (at node 4)
Injected flit rate average = 0.101875
	minimum = 0.092 (at node 5)
	maximum = 0.115 (at node 1)
Accepted flit rate average= 0.101531
	minimum = 0.091 (at node 5)
	maximum = 0.1145 (at node 4)
Injected packet length average = 1
Accepted packet length average = 1
Total in-flight flits = 46 (46 measured)
latency change    = 0.0675069
throughput change = 0.0113881
Class 0:
Packet latency average = 27.1603
	minimum = 7
	maximum = 206
Network latency average = 25.7708
	minimum = 7
	maximum = 196
Slowest packet = 1491838
Flit latency average = 25.8293
	minimum = 7
	maximum = 196
Slowest flit = 1491838
Fragmentation average = 0
	minimum = 0
	maximum = 0
Injected packet rate average = 0.101562
	minimum = 0.092 (at node 5)
	maximum = 0.114667 (at node 1)
Accepted packet rate average = 0.101437
	minimum = 0.0916667 (at node 5)
	maximum = 0.115333 (at node 4)
Injected flit rate average = 0.101562
	minimum = 0.092 (at node 5)
	maximum = 0.114667 (at node 1)
Accepted flit rate average= 0.101437
	minimum = 0.0916667 (at node 5)
	maximum = 0.115333 (at node 4)
Injected packet length average = 1
Accepted packet length average = 1
Total in-flight flits = 41 (41 measured)
latency change    = 0.0296876
throughput change = 0.000924214
Class 0:
Packet latency average = 27.6378
	minimum = 7
	maximum = 217
Network latency average = 25.9618
	minimum = 7
	maximum = 196
Slowest packet = 1491838
Flit latency average = 26.0051
	minimum = 7
	maximum = 196
Slowest flit = 1491838
Fragmentation average = 0
	minimum = 0
	maximum = 0
Injected packet rate average = 0.100297
	minimum = 0.0925 (at node 3)
	maximum = 0.10775 (at node 4)
Accepted packet rate average = 0.100344
	minimum = 0.09225 (at node 12)
	maximum = 0.10775 (at node 1)
Injected flit rate average = 0.100297
	minimum = 0.0925 (at node 3)
	maximum = 0.10775 (at node 4)
Accepted flit rate average= 0.100344
	minimum = 0.09225 (at node 12)
	maximum = 0.10775 (at node 1)
Injected packet length average = 1
Accepted packet length average = 1
Total in-flight flits = 32 (32 measured)
latency change    = 0.017276
throughput change = 0.0109
Class 0:
Packet latency average = 27.3045
	minimum = 7
	maximum = 217
Network latency average = 25.7355
	minimum = 7
	maximum = 196
Slowest packet = 1491838
Flit latency average = 25.7712
	minimum = 7
	maximum = 196
Slowest flit = 1491838
Fragmentation average = 0
	minimum = 0
	maximum = 0
Injected packet rate average = 0.10035
	minimum = 0.0922 (at node 3)
	maximum = 0.1064 (at node 1)
Accepted packet rate average = 0.100288
	minimum = 0.0918 (at node 12)
	maximum = 0.1064 (at node 4)
Injected flit rate average = 0.10035
	minimum = 0.0922 (at node 3)
	maximum = 0.1064 (at node 1)
Accepted flit rate average= 0.100288
	minimum = 0.0918 (at node 12)
	maximum = 0.1064 (at node 4)
Injected packet length average = 1
Accepted packet length average = 1
Total in-flight flits = 39 (39 measured)
latency change    = 0.0122036
throughput change = 0.000560887
Draining all recorded packets ...
Draining remaining packets ...
Time taken is 8122 cycles
Class 0:
Packet latency average = 23.0592
	minimum = 7
	maximum = 117
Network latency average = 23.0121
	minimum = 7
	maximum = 117
Slowest packet = 1499305
Flit latency average = 23.0121
	minimum = 7
	maximum = 117
Slowest flit = 1499305
Fragmentation average = 0
	minimum = 0
	maximum = 0
Injected packet rate average = 0.100625
	minimum = 0.082 (at node 7)
	maximum = 0.117 (at node 12)
Accepted packet rate average = 0.098125
	minimum = 0.081 (at node 13)
	maximum = 0.109 (at node 2)
Injected flit rate average = 0.100625
	minimum = 0.082 (at node 7)
	maximum = 0.117 (at node 12)
Accepted flit rate average= 0.098125
	minimum = 0.081 (at node 13)
	maximum = 0.109 (at node 2)
Injected packet length average = 1
Accepted packet length average = 1
Total in-flight flits = 40 (0 measured)
latency change    = 1
throughput change = 1
Class 0:
Packet latency average = 23.422
	minimum = 7
	maximum = 145
Network latency average = 23.1296
	minimum = 7
	maximum = 133
Slowest packet = 1501432
Flit latency average = 23.1296
	minimum = 7
	maximum = 133
Slowest flit = 1501777
Fragmentation average = 0
	minimum = 0
	maximum = 0
Injected packet rate average = 0.0991875
	minimum = 0.0785 (at node 15)
	maximum = 0.11 (at node 8)
Accepted packet rate average = 0.098125
	minimum = 0.0785 (at node 15)
	maximum = 0.1095 (at node 2)
Injected flit rate average = 0.0991875
	minimum = 0.0785 (at node 15)
	maximum = 0.11 (at node 8)
Accepted flit rate average= 0.098125
	minimum = 0.0785 (at node 15)
	maximum = 0.1095 (at node 2)
Injected packet length average = 1
Accepted packet length average = 1
Total in-flight flits = 36 (0 measured)
latency change    = 0.0154871
throughput change = 0
Class 0:
Packet latency average = 38.0931
	minimum = 7
	maximum = 302
Network latency average = 28.4519
	minimum = 7
	maximum = 231
Slowest packet = 1501986
Flit latency average = 28.4519
	minimum = 7
	maximum = 231
Slowest flit = 1501986
Fragmentation average = 0
	minimum = 0
	maximum = 0
Injected packet rate average = 0.100687
	minimum = 0.089 (at node 4)
	maximum = 0.112 (at node 11)
Accepted packet rate average = 0.0993125
	minimum = 0.088 (at node 1)
	maximum = 0.112 (at node 14)
Injected flit rate average = 0.100687
	minimum = 0.089 (at node 4)
	maximum = 0.112 (at node 11)
Accepted flit rate average= 0.0993125
	minimum = 0.088 (at node 1)
	maximum = 0.112 (at node 14)
Injected packet length average = 1
Accepted packet length average = 1
Total in-flight flits = 57 (0 measured)
latency change    = 0.385139
throughput change = 0.0119572
Warmed up ...Time used is 3000 cycles
Class 0:
Packet latency average = 36.0996
	minimum = 7
	maximum = 247
Network latency average = 26.3785
	minimum = 7
	maximum = 242
Slowest packet = 1503697
Flit latency average = 27.7731
	minimum = 7
	maximum = 242
Slowest flit = 1504444
Fragmentation average = 0
	minimum = 0
	maximum = 0
Injected packet rate average = 0.100437
	minimum = 0.079 (at node 2)
	maximum = 0.117 (at node 6)
Accepted packet rate average = 0.100812
	minimum = 0.078 (at node 8)
	maximum = 0.115 (at node 9)
Injected flit rate average = 0.100437
	minimum = 0.079 (at node 2)
	maximum = 0.117 (at node 6)
Accepted flit rate average= 0.100812
	minimum = 0.078 (at node 8)
	maximum = 0.115 (at node 9)
Injected packet length average = 1
Accepted packet length average = 1
Total in-flight flits = 52 (52 measured)
latency change    = 0.0552229
throughput change = 0.0148791
Class 0:
Packet latency average = 33.2527
	minimum = 7
	maximum = 331
Network latency average = 25.8303
	minimum = 7
	maximum = 242
Slowest packet = 1503697
Flit latency average = 26.5423
	minimum = 7
	maximum = 242
Slowest flit = 1504444
Fragmentation average = 0
	minimum = 0
	maximum = 0
Injected packet rate average = 0.099625
	minimum = 0.0805 (at node 2)
	maximum = 0.1095 (at node 9)
Accepted packet rate average = 0.100094
	minimum = 0.081 (at node 8)
	maximum = 0.109 (at node 6)
Injected flit rate average = 0.099625
	minimum = 0.0805 (at node 2)
	maximum = 0.1095 (at node 9)
Accepted flit rate average= 0.100094
	minimum = 0.081 (at node 8)
	maximum = 0.109 (at node 6)
Injected packet length average = 1
Accepted packet length average = 1
Total in-flight flits = 41 (41 measured)
latency change    = 0.0856145
throughput change = 0.00718077
Class 0:
Packet latency average = 30.3761
	minimum = 7
	maximum = 331
Network latency average = 25.2432
	minimum = 7
	maximum = 242
Slowest packet = 1503697
Flit latency average = 25.7269
	minimum = 7
	maximum = 242
Slowest flit = 1504444
Fragmentation average = 0
	minimum = 0
	maximum = 0
Injected packet rate average = 0.0993542
	minimum = 0.0826667 (at node 2)
	maximum = 0.108 (at node 10)
Accepted packet rate average = 0.0996875
	minimum = 0.0826667 (at node 8)
	maximum = 0.108333 (at node 10)
Injected flit rate average = 0.0993542
	minimum = 0.0826667 (at node 2)
	maximum = 0.108 (at node 10)
Accepted flit rate average= 0.0996875
	minimum = 0.0826667 (at node 8)
	maximum = 0.108333 (at node 10)
Injected packet length average = 1
Accepted packet length average = 1
Total in-flight flits = 41 (41 measured)
latency change    = 0.094701
throughput change = 0.00407524
Class 0:
Packet latency average = 30.1475
	minimum = 7
	maximum = 331
Network latency average = 25.5023
	minimum = 7
	maximum = 242
Slowest packet = 1503697
Flit latency average = 25.8619
	minimum = 7
	maximum = 242
Slowest flit = 1504444
Fragmentation average = 0
	minimum = 0
	maximum = 0
Injected packet rate average = 0.0995469
	minimum = 0.08875 (at node 2)
	maximum = 0.10725 (at node 10)
Accepted packet rate average = 0.0999063
	minimum = 0.0895 (at node 8)
	maximum = 0.1075 (at node 10)
Injected flit rate average = 0.0995469
	minimum = 0.08875 (at node 2)
	maximum = 0.10725 (at node 10)
Accepted flit rate average= 0.0999063
	minimum = 0.0895 (at node 8)
	maximum = 0.1075 (at node 10)
Injected packet length average = 1
Accepted packet length average = 1
Total in-flight flits = 33 (33 measured)
latency change    = 0.00757977
throughput change = 0.00218955
Class 0:
Packet latency average = 28.7279
	minimum = 7
	maximum = 331
Network latency average = 24.987
	minimum = 7
	maximum = 242
Slowest packet = 1503697
Flit latency average = 25.2784
	minimum = 7
	maximum = 242
Slowest flit = 1504444
Fragmentation average = 0
	minimum = 0
	maximum = 0
Injected packet rate average = 0.0995375
	minimum = 0.0874 (at node 2)
	maximum = 0.1056 (at node 5)
Accepted packet rate average = 0.0999
	minimum = 0.0882 (at node 8)
	maximum = 0.1054 (at node 5)
Injected flit rate average = 0.0995375
	minimum = 0.0874 (at node 2)
	maximum = 0.1056 (at node 5)
Accepted flit rate average= 0.0999
	minimum = 0.0882 (at node 8)
	maximum = 0.1054 (at node 5)
Injected packet length average = 1
Accepted packet length average = 1
Total in-flight flits = 27 (27 measured)
latency change    = 0.0494165
throughput change = 6.25626e-05
Class 0:
Packet latency average = 28.9856
	minimum = 7
	maximum = 376
Network latency average = 25.2517
	minimum = 7
	maximum = 289
Slowest packet = 1503697
Flit latency average = 25.494
	minimum = 7
	maximum = 289
Slowest flit = 1512319
Fragmentation average = 0
	minimum = 0
	maximum = 0
Injected packet rate average = 0.0993854
	minimum = 0.0911667 (at node 2)
	maximum = 0.1055 (at node 6)
Accepted packet rate average = 0.0994583
	minimum = 0.0908333 (at node 8)
	maximum = 0.105167 (at node 3)
Injected flit rate average = 0.0993854
	minimum = 0.0911667 (at node 2)
	maximum = 0.1055 (at node 6)
Accepted flit rate average= 0.0994583
	minimum = 0.0908333 (at node 8)
	maximum = 0.105167 (at node 3)
Injected packet length average = 1
Accepted packet length average = 1
Total in-flight flits = 50 (50 measured)
latency change    = 0.00888894
throughput change = 0.00444072
Draining all recorded packets ...
Draining remaining packets ...
Time taken is 9286 cycles
====== Overall Traffic Statistics ======
====== Traffic class 0 ======
Packet latency average = 43.3129 (100 samples)
	minimum = 7 (100 samples)
	maximum = 530.13 (100 samples)
Network latency average = 27.2315 (100 samples)
	minimum = 7 (100 samples)
	maximum = 243.45 (100 samples)
Flit latency average = 27.1112 (100 samples)
	minimum = 7 (100 samples)
	maximum = 244.06 (100 samples)
Fragmentation average = 0 (100 samples)
	minimum = 0 (100 samples)
	maximum = 0 (100 samples)
Injected packet rate average = 0.099878 (100 samples)
	minimum = 0.0928613 (100 samples)
	maximum = 0.107112 (100 samples)
Accepted packet rate average = 0.0998587 (100 samples)
	minimum = 0.0928507 (100 samples)
	maximum = 0.107111 (100 samples)
Injected flit rate average = 0.099878 (100 samples)
	minimum = 0.0928613 (100 samples)
	maximum = 0.107112 (100 samples)
Accepted flit rate average = 0.0998587 (100 samples)
	minimum = 0.0928507 (100 samples)
	maximum = 0.107111 (100 samples)
Injected packet size average = 1 (100 samples)
Accepted packet size average = 1 (100 samples)
Hops average = 3.50418 (100 samples)
Total run time 18.181
