BEGIN Configuration File: /tmp/bs_1138183_768411.cfg
topology = mesh;
k = 4;
n = 2;
routing_function = dor;
num_vcs = 4;
vc_buf_size = 4;
wait_for_tail_credit = 1;
vc_allocator = islip;
sw_allocator = islip;
alloc_iters = 1;
credit_delay = 2;
routing_delay = 1;
vc_alloc_delay = 1;
sw_alloc_delay = 1;
input_speedup = 2;
output_speedup = 1;
internal_speedup = 1.0;
traffic = hotspot;
packet_size = 1;
sim_type = latency;
injection_rate = 0.01;
warmup_periods = 3;
sample_period = 1000;
sim_count = 100;
seed = 2;

END Configuration File: /tmp/bs_1138183_768411.cfg
Class 0:
Packet latency average = 19.4925
	minimum = 7
	maximum = 33
Network latency average = 19.4925
	minimum = 7
	maximum = 33
Slowest packet = 103
Flit latency average = 19.4925
	minimum = 7
	maximum = 33
Slowest flit = 103
Fragmentation average = 0
	minimum = 0
	maximum = 0
Injected packet rate average = 0.008625
	minimum = 0.003 (at node 2)
	maximum = 0.015 (at node 13)
Accepted packet rate average = 0.008375
	minimum = 0 (at node 0)
	maximum = 0.134 (at node 11)
Injected flit rate average = 0.008625
	minimum = 0.003 (at node 2)
	maximum = 0.015 (at node 13)
Accepted flit rate average= 0.008375
	minimum = 0 (at node 0)
	maximum = 0.134 (at node 11)
Injected packet length average = 1
Accepted packet length average = 1
Total in-flight flits = 4 (0 measured)
latency change    = 1
throughput change = 1
Class 0:
Packet latency average = 19.5987
	minimum = 7
	maximum = 33
Network latency average = 19.5987
	minimum = 7
	maximum = 33
Slowest packet = 103
Flit latency average = 19.5987
	minimum = 7
	maximum = 33
Slowest flit = 103
Fragmentation average = 0
	minimum = 0
	maximum = 0
Injected packet rate average = 0.009625
	minimum = 0.005 (at node 2)
	maximum = 0.015 (at node 13)
Accepted packet rate average = 0.0095
	minimum = 0 (at node 0)
	maximum = 0.152 (at node 11)
Injected flit rate average = 0.009625
	minimum = 0.005 (at node 2)
	maximum = 0.015 (at node 13)
Accepted flit rate average= 0.0095
	minimum = 0 (at node 0)
	maximum = 0.152 (at node 11)
Injected packet length average = 1
Accepted packet length average = 1
Total in-flight flits = 4 (0 measured)
latency change    = 0.00541602
throughput change = 0.118421
Class 0:
Packet latency average = 18.8176
	minimum = 7
	maximum = 33
Network latency average = 18.8176
	minimum = 7
	maximum = 33
Slowest packet = 372
Flit latency average = 18.8176
	minimum = 7
	maximum = 33
Slowest flit = 372
Fragmentation average = 0
	minimum = 0
	maximum = 0
Injected packet rate average = 0.009125
	minimum = 0.003 (at node 8)
	maximum = 0.018 (at node 3)
Accepted packet rate average = 0.00925
	minimum = 0 (at node 0)
	maximum = 0.148 (at node 11)
Injected flit rate average = 0.009125
	minimum = 0.003 (at node 8)
	maximum = 0.018 (at node 3)
Accepted flit rate average= 0.00925
	minimum = 0 (at node 0)
	maximum = 0.148 (at node 11)
Injected packet length average = 1
Accepted packet length average = 1
Total in-flight flits = 2 (0 measured)
latency change    = 0.04151
throughput change = 0.027027
Warmed up ...Time used is 3000 cycles
Class 0:
Packet latency average = 20.0117
	minimum = 7
	maximum = 32
Network latency average = 20.0117
	minimum = 7
	maximum = 32
Slowest packet = 456
Flit latency average = 19.9769
	minimum = 7
	maximum = 32
Slowest flit = 456
Fragmentation average = 0
	minimum = 0
	maximum = 0
Injected packet rate average = 0.0109375
	minimum = 0.007 (at node 3)
	maximum = 0.017 (at node 12)
Accepted packet rate average = 0.0108125
	minimum = 0 (at node 0)
	maximum = 0.173 (at node 11)
Injected flit rate average = 0.0109375
	minimum = 0.007 (at node 3)
	maximum = 0.017 (at node 12)
Accepted flit rate average= 0.0108125
	minimum = 0 (at node 0)
	maximum = 0.173 (at node 11)
Injected packet length average = 1
Accepted packet length average = 1
Total in-flight flits = 4 (4 measured)
latency change    = 0.0596715
throughput change = 0.144509
Class 0:
Packet latency average = 19.6553
	minimum = 7
	maximum = 33
Network latency average = 19.6553
	minimum = 7
	maximum = 33
Slowest packet = 655
Flit latency average = 19.6389
	minimum = 7
	maximum = 33
Slowest flit = 655
Fragmentation average = 0
	minimum = 0
	maximum = 0
Injected packet rate average = 0.0102188
	minimum = 0.0075 (at node 15)
	maximum = 0.0125 (at node 0)
Accepted packet rate average = 0.010125
	minimum = 0 (at node 0)
	maximum = 0.162 (at node 11)
Injected flit rate average = 0.0102188
	minimum = 0.0075 (at node 15)
	maximum = 0.0125 (at node 0)
Accepted flit rate average= 0.010125
	minimum = 0 (at node 0)
	maximum = 0.162 (at node 11)
Injected packet length average = 1
Accepted packet length average = 1
Total in-flight flits = 5 (5 measured)
latency change    = 0.0181334
throughput change = 0.0679012
Class 0:
Packet latency average = 19.8122
	minimum = 7
	maximum = 33
Network latency average = 19.8122
	minimum = 7
	maximum = 33
Slowest packet = 655
Flit latency average = 19.8008
	minimum = 7
	maximum = 33
Slowest flit = 655
Fragmentation average = 0
	minimum = 0
	maximum = 0
Injected packet rate average = 0.0102917
	minimum = 0.00733333 (at node 2)
	maximum = 0.0126667 (at node 6)
Accepted packet rate average = 0.01025
	minimum = 0 (at node 0)
	maximum = 0.164 (at node 11)
Injected flit rate average = 0.0102917
	minimum = 0.00733333 (at node 2)
	maximum = 0.0126667 (at node 6)
Accepted flit rate average= 0.01025
	minimum = 0 (at node 0)
	maximum = 0.164 (at node 11)
Injected packet length average = 1
Accepted packet length average = 1
Total in-flight flits = 4 (4 measured)
latency change    = 0.00792265
throughput change = 0.0121951
Class 0:
Packet latency average = 19.6802
	minimum = 7
	maximum = 33
Network latency average = 19.6802
	minimum = 7
	maximum = 33
Slowest packet = 655
Flit latency average = 19.6722
	minimum = 7
	maximum = 33
Slowest flit = 655
Fragmentation average = 0
	minimum = 0
	maximum = 0
Injected packet rate average = 0.0104531
	minimum = 0.0075 (at node 2)
	maximum = 0.0125 (at node 5)
Accepted packet rate average = 0.0103906
	minimum = 0 (at node 0)
	maximum = 0.16625 (at node 11)
Injected flit rate average = 0.0104531
	minimum = 0.0075 (at node 2)
	maximum = 0.0125 (at node 5)
Accepted flit rate average= 0.0103906
	minimum = 0 (at node 0)
	maximum = 0.16625 (at node 11)
Injected packet length average = 1
Accepted packet length average = 1
Total in-flight flits = 6 (6 measured)
latency change    = 0.00670742
throughput change = 0.0135338
Class 0:
Packet latency average = 19.7051
	minimum = 7
	maximum = 33
Network latency average = 19.7051
	minimum = 7
	maximum = 33
Slowest packet = 655
Flit latency average = 19.6985
	minimum = 7
	maximum = 33
Slowest flit = 655
Fragmentation average = 0
	minimum = 0
	maximum = 0
Injected packet rate average = 0.0103375
	minimum = 0.0078 (at node 2)
	maximum = 0.0124 (at node 5)
Accepted packet rate average = 0.010325
	minimum = 0 (at node 0)
	maximum = 0.1652 (at node 11)
Injected flit rate average = 0.0103375
	minimum = 0.0078 (at node 2)
	maximum = 0.0124 (at node 5)
Accepted flit rate average= 0.010325
	minimum = 0 (at node 0)
	maximum = 0.1652 (at node 11)
Injected packet length average = 1
Accepted packet length average = 1
Total in-flight flits = 3 (3 measured)
latency change    = 0.00126139
throughput change = 0.00635593
Draining all recorded packets ...
Draining remaining packets ...
Time taken is 8044 cycles
Class 0:
Packet latency average = 19.8062
	minimum = 7
	maximum = 32
Network latency average = 19.8062
	minimum = 7
	maximum = 32
Slowest packet = 1303
Flit latency average = 19.8062
	minimum = 7
	maximum = 32
Slowest flit = 1303
Fragmentation average = 0
	minimum = 0
	maximum = 0
Injected packet rate average = 0.0103125
	minimum = 0.005 (at node 5)
	maximum = 0.015 (at node 15)
Accepted packet rate average = 0.01
	minimum = 0 (at node 0)
	maximum = 0.16 (at node 11)
Injected flit rate average = 0.0103125
	minimum = 0.005 (at node 5)
	maximum = 0.015 (at node 15)
Accepted flit rate average= 0.01
	minimum = 0 (at node 0)
	maximum = 0.16 (at node 11)
Injected packet length average = 1
Accepted packet length average = 1
Total in-flight flits = 5 (0 measured)
latency change    = 1
throughput change = 1
Class 0:
Packet latency average = 19.914
	minimum = 7
	maximum = 34
Network latency average = 19.914
	minimum = 7
	maximum = 34
Slowest packet = 1617
Flit latency average = 19.914
	minimum = 7
	maximum = 34
Slowest flit = 1617
Fragmentation average = 0
	minimum = 0
	maximum = 0
Injected packet rate average = 0.011
	minimum = 0.0075 (at node 9)
	maximum = 0.017 (at node 8)
Accepted packet rate average = 0.0109062
	minimum = 0 (at node 0)
	maximum = 0.1745 (at node 11)
Injected flit rate average = 0.011
	minimum = 0.0075 (at node 9)
	maximum = 0.017 (at node 8)
Accepted flit rate average= 0.0109062
	minimum = 0 (at node 0)
	maximum = 0.1745 (at node 11)
Injected packet length average = 1
Accepted packet length average = 1
Total in-flight flits = 3 (0 measured)
latency change    = 0.00541277
throughput change = 0.0830946
Class 0:
Packet latency average = 20.2126
	minimum = 7
	maximum = 32
Network latency average = 20.2126
	minimum = 7
	maximum = 32
Slowest packet = 1637
Flit latency average = 20.2126
	minimum = 7
	maximum = 32
Slowest flit = 1637
Fragmentation average = 0
	minimum = 0
	maximum = 0
Injected packet rate average = 0.011125
	minimum = 0.005 (at node 1)
	maximum = 0.018 (at node 6)
Accepted packet rate average = 0.010875
	minimum = 0 (at node 0)
	maximum = 0.174 (at node 11)
Injected flit rate average = 0.011125
	minimum = 0.005 (at node 1)
	maximum = 0.018 (at node 6)
Accepted flit rate average= 0.010875
	minimum = 0 (at node 0)
	maximum = 0.174 (at node 11)
Injected packet length average = 1
Accepted packet length average = 1
Total in-flight flits = 7 (0 measured)
latency change    = 0.0147731
throughput change = 0.00287356
Warmed up ...Time used is 3000 cycles
Class 0:
Packet latency average = 19.4795
	minimum = 7
	maximum = 37
Network latency average = 19.4795
	minimum = 7
	maximum = 37
Slowest packet = 1917
Flit latency average = 19.382
	minimum = 7
	maximum = 37
Slowest flit = 1917
Fragmentation average = 0
	minimum = 0
	maximum = 0
Injected packet rate average = 0.0108125
	minimum = 0.005 (at node 9)
	maximum = 0.017 (at node 1)
Accepted packet rate average = 0.011125
	minimum = 0 (at node 0)
	maximum = 0.178 (at node 11)
Injected flit rate average = 0.0108125
	minimum = 0.005 (at node 9)
	maximum = 0.017 (at node 1)
Accepted flit rate average= 0.011125
	minimum = 0 (at node 0)
	maximum = 0.178 (at node 11)
Injected packet length average = 1
Accepted packet length average = 1
Total in-flight flits = 2 (2 measured)
latency change    = 0.037635
throughput change = 0.0224719
Class 0:
Packet latency average = 20.0958
	minimum = 7
	maximum = 37
Network latency average = 20.0958
	minimum = 7
	maximum = 37
Slowest packet = 1917
Flit latency average = 20.0281
	minimum = 7
	maximum = 37
Slowest flit = 1917
Fragmentation average = 0
	minimum = 0
	maximum = 0
Injected packet rate average = 0.00984375
	minimum = 0.0055 (at node 9)
	maximum = 0.014 (at node 0)
Accepted packet rate average = 0.01
	minimum = 0 (at node 0)
	maximum = 0.16 (at node 11)
Injected flit rate average = 0.00984375
	minimum = 0.0055 (at node 9)
	maximum = 0.014 (at node 0)
Accepted flit rate average= 0.01
	minimum = 0 (at node 0)
	maximum = 0.16 (at node 11)
Injected packet length average = 1
Accepted packet length average = 1
Total in-flight flits = 2 (2 measured)
latency change    = 0.0306687
throughput change = 0.1125
Class 0:
Packet latency average = 20.0145
	minimum = 7
	maximum = 37
Network latency average = 20.0145
	minimum = 7
	maximum = 37
Slowest packet = 1917
Flit latency average = 19.9714
	minimum = 7
	maximum = 37
Slowest flit = 1917
Fragmentation average = 0
	minimum = 0
	maximum = 0
Injected packet rate average = 0.010125
	minimum = 0.00766667 (at node 10)
	maximum = 0.0133333 (at node 0)
Accepted packet rate average = 0.0102083
	minimum = 0 (at node 0)
	maximum = 0.163333 (at node 11)
Injected flit rate average = 0.010125
	minimum = 0.00766667 (at node 10)
	maximum = 0.0133333 (at node 0)
Accepted flit rate average= 0.0102083
	minimum = 0 (at node 0)
	maximum = 0.163333 (at node 11)
Injected packet length average = 1
Accepted packet length average = 1
Total in-flight flits = 3 (3 measured)
latency change    = 0.00406475
throughput change = 0.0204082
Class 0:
Packet latency average = 19.8205
	minimum = 7
	maximum = 37
Network latency average = 19.8205
	minimum = 7
	maximum = 37
Slowest packet = 1917
Flit latency average = 19.7897
	minimum = 7
	maximum = 37
Slowest flit = 1917
Fragmentation average = 0
	minimum = 0
	maximum = 0
Injected packet rate average = 0.00996875
	minimum = 0.0075 (at node 10)
	maximum = 0.01225 (at node 2)
Accepted packet rate average = 0.0100313
	minimum = 0 (at node 0)
	maximum = 0.1605 (at node 11)
Injected flit rate average = 0.00996875
	minimum = 0.0075 (at node 10)
	maximum = 0.01225 (at node 2)
Accepted flit rate average= 0.0100313
	minimum = 0 (at node 0)
	maximum = 0.1605 (at node 11)
Injected packet length average = 1
Accepted packet length average = 1
Total in-flight flits = 3 (3 measured)
latency change    = 0.00978888
throughput change = 0.0176532
Class 0:
Packet latency average = 19.892
	minimum = 7
	maximum = 38
Network latency average = 19.892
	minimum = 7
	maximum = 38
Slowest packet = 2611
Flit latency average = 19.8674
	minimum = 7
	maximum = 38
Slowest flit = 2611
Fragmentation average = 0
	minimum = 0
	maximum = 0
Injected packet rate average = 0.0102375
	minimum = 0.008 (at node 10)
	maximum = 0.0126 (at node 1)
Accepted packet rate average = 0.010275
	minimum = 0 (at node 0)
	maximum = 0.1644 (at node 11)
Injected flit rate average = 0.0102375
	minimum = 0.008 (at node 10)
	maximum = 0.0126 (at node 1)
Accepted flit rate average= 0.010275
	minimum = 0 (at node 0)
	maximum = 0.1644 (at node 11)
Injected packet length average = 1
Accepted packet length average = 1
Total in-flight flits = 4 (4 measured)
latency change    = 0.00359702
throughput change = 0.0237226
Draining all recorded packets ...
Draining remaining packets ...
Time taken is 8051 cycles
Class 0:
Packet latency average = 20.4388
	minimum = 7
	maximum = 33
Network latency average = 20.4388
	minimum = 7
	maximum = 33
Slowest packet = 2703
Flit latency average = 20.4388
	minimum = 7
	maximum = 33
Slowest flit = 2703
Fragmentation average = 0
	minimum = 0
	maximum = 0
Injected packet rate average = 0.008875
	minimum = 0.002 (at node 7)
	maximum = 0.015 (at node 8)
Accepted packet rate average = 0.0086875
	minimum = 0 (at node 0)
	maximum = 0.139 (at node 11)
Injected flit rate average = 0.008875
	minimum = 0.002 (at node 7)
	maximum = 0.015 (at node 8)
Accepted flit rate average= 0.0086875
	minimum = 0 (at node 0)
	maximum = 0.139 (at node 11)
Injected packet length average = 1
Accepted packet length average = 1
Total in-flight flits = 3 (0 measured)
latency change    = 1
throughput change = 1
Class 0:
Packet latency average = 20.007
	minimum = 7
	maximum = 34
Network latency average = 20.007
	minimum = 7
	maximum = 34
Slowest packet = 2885
Flit latency average = 20.007
	minimum = 7
	maximum = 34
Slowest flit = 2885
Fragmentation average = 0
	minimum = 0
	maximum = 0
Injected packet rate average = 0.00909375
	minimum = 0.0065 (at node 3)
	maximum = 0.0135 (at node 6)
Accepted packet rate average = 0.0089375
	minimum = 0 (at node 0)
	maximum = 0.143 (at node 11)
Injected flit rate average = 0.00909375
	minimum = 0.0065 (at node 3)
	maximum = 0.0135 (at node 6)
Accepted flit rate average= 0.0089375
	minimum = 0 (at node 0)
	maximum = 0.143 (at node 11)
Injected packet length average = 1
Accepted packet length average = 1
Total in-flight flits = 5 (0 measured)
latency change    = 0.0215852
throughput change = 0.027972
Class 0:
Packet latency average = 20.5037
	minimum = 7
	maximum = 33
Network latency average = 20.5037
	minimum = 7
	maximum = 33
Slowest packet = 2939
Flit latency average = 20.5037
	minimum = 7
	maximum = 33
Slowest flit = 2939
Fragmentation average = 0
	minimum = 0
	maximum = 0
Injected packet rate average = 0.0081875
	minimum = 0.005 (at node 10)
	maximum = 0.013 (at node 12)
Accepted packet rate average = 0.0084375
	minimum = 0 (at node 0)
	maximum = 0.135 (at node 11)
Injected flit rate average = 0.0081875
	minimum = 0.005 (at node 10)
	maximum = 0.013 (at node 12)
Accepted flit rate average= 0.0084375
	minimum = 0 (at node 0)
	maximum = 0.135 (at node 11)
Injected packet length average = 1
Accepted packet length average = 1
Total in-flight flits = 1 (0 measured)
latency change    = 0.0242254
throughput change = 0.0592593
Warmed up ...Time used is 3000 cycles
Class 0:
Packet latency average = 19.2579
	minimum = 7
	maximum = 33
Network latency average = 19.2579
	minimum = 7
	maximum = 33
Slowest packet = 3204
Flit latency average = 19.275
	minimum = 7
	maximum = 33
Slowest flit = 3204
Fragmentation average = 0
	minimum = 0
	maximum = 0
Injected packet rate average = 0.0100625
	minimum = 0.005 (at node 4)
	maximum = 0.019 (at node 12)
Accepted packet rate average = 0.01
	minimum = 0 (at node 0)
	maximum = 0.16 (at node 11)
Injected flit rate average = 0.0100625
	minimum = 0.005 (at node 4)
	maximum = 0.019 (at node 12)
Accepted flit rate average= 0.01
	minimum = 0 (at node 0)
	maximum = 0.16 (at node 11)
Injected packet length average = 1
Accepted packet length average = 1
Total in-flight flits = 2 (2 measured)
latency change    = 0.0646926
throughput change = 0.15625
Class 0:
Packet latency average = 19.3528
	minimum = 7
	maximum = 34
Network latency average = 19.3528
	minimum = 7
	maximum = 34
Slowest packet = 3354
Flit latency average = 19.3605
	minimum = 7
	maximum = 34
Slowest flit = 3354
Fragmentation average = 0
	minimum = 0
	maximum = 0
Injected packet rate average = 0.0107812
	minimum = 0.0075 (at node 4)
	maximum = 0.0155 (at node 12)
Accepted packet rate average = 0.01075
	minimum = 0 (at node 0)
	maximum = 0.172 (at node 11)
Injected flit rate average = 0.0107812
	minimum = 0.0075 (at node 4)
	maximum = 0.0155 (at node 12)
Accepted flit rate average= 0.01075
	minimum = 0 (at node 0)
	maximum = 0.172 (at node 11)
Injected packet length average = 1
Accepted packet length average = 1
Total in-flight flits = 2 (2 measured)
latency change    = 0.00490411
throughput change = 0.0697674
Class 0:
Packet latency average = 19.4251
	minimum = 7
	maximum = 34
Network latency average = 19.4251
	minimum = 7
	maximum = 34
Slowest packet = 3354
Flit latency average = 19.4303
	minimum = 7
	maximum = 34
Slowest flit = 3354
Fragmentation average = 0
	minimum = 0
	maximum = 0
Injected packet rate average = 0.0106458
	minimum = 0.00766667 (at node 9)
	maximum = 0.0133333 (at node 7)
Accepted packet rate average = 0.0104583
	minimum = 0 (at node 0)
	maximum = 0.167333 (at node 11)
Injected flit rate average = 0.0106458
	minimum = 0.00766667 (at node 9)
	maximum = 0.0133333 (at node 7)
Accepted flit rate average= 0.0104583
	minimum = 0 (at node 0)
	maximum = 0.167333 (at node 11)
Injected packet length average = 1
Accepted packet length average = 1
Total in-flight flits = 10 (10 measured)
latency change    = 0.0037261
throughput change = 0.0278884
Class 0:
Packet latency average = 19.5821
	minimum = 7
	maximum = 34
Network latency average = 19.5821
	minimum = 7
	maximum = 34
Slowest packet = 3354
Flit latency average = 19.5857
	minimum = 7
	maximum = 34
Slowest flit = 3354
Fragmentation average = 0
	minimum = 0
	maximum = 0
Injected packet rate average = 0.0105
	minimum = 0.008 (at node 2)
	maximum = 0.0135 (at node 7)
Accepted packet rate average = 0.0104844
	minimum = 0 (at node 0)
	maximum = 0.16775 (at node 11)
Injected flit rate average = 0.0105
	minimum = 0.008 (at node 2)
	maximum = 0.0135 (at node 7)
Accepted flit rate average= 0.0104844
	minimum = 0 (at node 0)
	maximum = 0.16775 (at node 11)
Injected packet length average = 1
Accepted packet length average = 1
Total in-flight flits = 2 (2 measured)
latency change    = 0.00801446
throughput change = 0.00248385
Class 0:
Packet latency average = 19.4631
	minimum = 7
	maximum = 34
Network latency average = 19.4631
	minimum = 7
	maximum = 34
Slowest packet = 3354
Flit latency average = 19.4662
	minimum = 7
	maximum = 34
Slowest flit = 3354
Fragmentation average = 0
	minimum = 0
	maximum = 0
Injected packet rate average = 0.0101625
	minimum = 0.0078 (at node 2)
	maximum = 0.0126 (at node 7)
Accepted packet rate average = 0.0101625
	minimum = 0 (at node 0)
	maximum = 0.1626 (at node 11)
Injected flit rate average = 0.0101625
	minimum = 0.0078 (at node 2)
	maximum = 0.0126 (at node 7)
Accepted flit rate average= 0.0101625
	minimum = 0 (at node 0)
	maximum = 0.1626 (at node 11)
Injected packet length average = 1
Accepted packet length average = 1
Total in-flight flits = 1 (1 measured)
latency change    = 0.00611597
throughput change = 0.0316728
Draining all recorded packets ...
Draining remaining packets ...
Time taken is 8013 cycles
Class 0:
Packet latency average = 19.5946
	minimum = 7
	maximum = 34
Network latency average = 19.5946
	minimum = 7
	maximum = 34
Slowest packet = 3907
Flit latency average = 19.5946
	minimum = 7
	maximum = 34
Slowest flit = 3907
Fragmentation average = 0
	minimum = 0
	maximum = 0
Injected packet rate average = 0.0094375
	minimum = 0.005 (at node 5)
	maximum = 0.014 (at node 15)
Accepted packet rate average = 0.00925
	minimum = 0 (at node 0)
	maximum = 0.148 (at node 11)
Injected flit rate average = 0.0094375
	minimum = 0.005 (at node 5)
	maximum = 0.014 (at node 15)
Accepted flit rate average= 0.00925
	minimum = 0 (at node 0)
	maximum = 0.148 (at node 11)
Injected packet length average = 1
Accepted packet length average = 1
Total in-flight flits = 3 (0 measured)
latency change    = 1
throughput change = 1
Class 0:
Packet latency average = 19.099
	minimum = 7
	maximum = 34
Network latency average = 19.099
	minimum = 7
	maximum = 34
Slowest packet = 3907
Flit latency average = 19.099
	minimum = 7
	maximum = 34
Slowest flit = 3907
Fragmentation average = 0
	minimum = 0
	maximum = 0
Injected packet rate average = 0.0098125
	minimum = 0.0035 (at node 5)
	maximum = 0.013 (at node 15)
Accepted packet rate average = 0.00978125
	minimum = 0 (at node 0)
	maximum = 0.1565 (at node 11)
Injected flit rate average = 0.0098125
	minimum = 0.0035 (at node 5)
	maximum = 0.013 (at node 15)
Accepted flit rate average= 0.00978125
	minimum = 0 (at node 0)
	maximum = 0.1565 (at node 11)
Injected packet length average = 1
Accepted packet length average = 1
Total in-flight flits = 1 (0 measured)
latency change    = 0.0259465
throughput change = 0.0543131
Class 0:
Packet latency average = 19.5839
	minimum = 7
	maximum = 34
Network latency average = 19.5839
	minimum = 7
	maximum = 34
Slowest packet = 4342
Flit latency average = 19.5839
	minimum = 7
	maximum = 34
Slowest flit = 4342
Fragmentation average = 0
	minimum = 0
	maximum = 0
Injected packet rate average = 0.01025
	minimum = 0.004 (at node 9)
	maximum = 0.019 (at node 4)
Accepted packet rate average = 0.0100625
	minimum = 0 (at node 0)
	maximum = 0.161 (at node 11)
Injected flit rate average = 0.01025
	minimum = 0.004 (at node 9)
	maximum = 0.019 (at node 4)
Accepted flit rate average= 0.0100625
	minimum = 0 (at node 0)
	maximum = 0.161 (at node 11)
Injected packet length average = 1
Accepted packet length average = 1
Total in-flight flits = 4 (0 measured)
latency change    = 0.0247556
throughput change = 0.0279503
Warmed up ...Time used is 3000 cycles
Class 0:
Packet latency average = 19.0115
	minimum = 7
	maximum = 32
Network latency average = 19.0115
	minimum = 7
	maximum = 32
Slowest packet = 4359
Flit latency average = 19.0506
	minimum = 7
	maximum = 32
Slowest flit = 4350
Fragmentation average = 0
	minimum = 0
	maximum = 0
Injected packet rate average = 0.011
	minimum = 0.005 (at node 7)
	maximum = 0.016 (at node 3)
Accepted packet rate average = 0.011125
	minimum = 0 (at node 0)
	maximum = 0.178 (at node 11)
Injected flit rate average = 0.011
	minimum = 0.005 (at node 7)
	maximum = 0.016 (at node 3)
Accepted flit rate average= 0.011125
	minimum = 0 (at node 0)
	maximum = 0.178 (at node 11)
Injected packet length average = 1
Accepted packet length average = 1
Total in-flight flits = 2 (2 measured)
latency change    = 0.0301058
throughput change = 0.0955056
Class 0:
Packet latency average = 19.4273
	minimum = 7
	maximum = 33
Network latency average = 19.4273
	minimum = 7
	maximum = 33
Slowest packet = 4549
Flit latency average = 19.4425
	minimum = 7
	maximum = 33
Slowest flit = 4549
Fragmentation average = 0
	minimum = 0
	maximum = 0
Injected packet rate average = 0.0108125
	minimum = 0.0055 (at node 7)
	maximum = 0.0155 (at node 10)
Accepted packet rate average = 0.010875
	minimum = 0 (at node 0)
	maximum = 0.174 (at node 11)
Injected flit rate average = 0.0108125
	minimum = 0.0055 (at node 7)
	maximum = 0.0155 (at node 10)
Accepted flit rate average= 0.010875
	minimum = 0 (at node 0)
	maximum = 0.174 (at node 11)
Injected packet length average = 1
Accepted packet length average = 1
Total in-flight flits = 2 (2 measured)
latency change    = 0.0214045
throughput change = 0.0229885
Class 0:
Packet latency average = 19.4075
	minimum = 7
	maximum = 35
Network latency average = 19.4075
	minimum = 7
	maximum = 35
Slowest packet = 4767
Flit latency average = 19.418
	minimum = 7
	maximum = 35
Slowest flit = 4767
Fragmentation average = 0
	minimum = 0
	maximum = 0
Injected packet rate average = 0.0106875
	minimum = 0.00633333 (at node 7)
	maximum = 0.0133333 (at node 2)
Accepted packet rate average = 0.0106667
	minimum = 0 (at node 0)
	maximum = 0.170667 (at node 11)
Injected flit rate average = 0.0106875
	minimum = 0.00633333 (at node 7)
	maximum = 0.0133333 (at node 2)
Accepted flit rate average= 0.0106667
	minimum = 0 (at node 0)
	maximum = 0.170667 (at node 11)
Injected packet length average = 1
Accepted packet length average = 1
Total in-flight flits = 5 (5 measured)
latency change    = 0.00102256
throughput change = 0.0195312
Class 0:
Packet latency average = 19.6024
	minimum = 7
	maximum = 35
Network latency average = 19.6024
	minimum = 7
	maximum = 35
Slowest packet = 4767
Flit latency average = 19.6091
	minimum = 7
	maximum = 35
Slowest flit = 4767
Fragmentation average = 0
	minimum = 0
	maximum = 0
Injected packet rate average = 0.0106094
	minimum = 0.00725 (at node 7)
	maximum = 0.01275 (at node 10)
Accepted packet rate average = 0.0105938
	minimum = 0 (at node 0)
	maximum = 0.1695 (at node 11)
Injected flit rate average = 0.0106094
	minimum = 0.00725 (at node 7)
	maximum = 0.01275 (at node 10)
Accepted flit rate average= 0.0105938
	minimum = 0 (at node 0)
	maximum = 0.1695 (at node 11)
Injected packet length average = 1
Accepted packet length average = 1
Total in-flight flits = 5 (5 measured)
latency change    = 0.00994235
throughput change = 0.00688299
Draining all recorded packets ...
Draining remaining packets ...
Time taken is 7046 cycles
Class 0:
Packet latency average = 18.2183
	minimum = 7
	maximum = 32
Network latency average = 18.2183
	minimum = 7
	maximum = 32
Slowest packet = 5064
Flit latency average = 18.2183
	minimum = 7
	maximum = 32
Slowest flit = 5064
Fragmentation average = 0
	minimum = 0
	maximum = 0
Injected packet rate average = 0.0090625
	minimum = 0.002 (at node 0)
	maximum = 0.016 (at node 9)
Accepted packet rate average = 0.008875
	minimum = 0 (at node 0)
	maximum = 0.142 (at node 11)
Injected flit rate average = 0.0090625
	minimum = 0.002 (at node 0)
	maximum = 0.016 (at node 9)
Accepted flit rate average= 0.008875
	minimum = 0 (at node 0)
	maximum = 0.142 (at node 11)
Injected packet length average = 1
Accepted packet length average = 1
Total in-flight flits = 3 (0 measured)
latency change    = 1
throughput change = 1
Class 0:
Packet latency average = 18.4587
	minimum = 7
	maximum = 32
Network latency average = 18.4587
	minimum = 7
	maximum = 32
Slowest packet = 5064
Flit latency average = 18.4587
	minimum = 7
	maximum = 32
Slowest flit = 5064
Fragmentation average = 0
	minimum = 0
	maximum = 0
Injected packet rate average = 0.009625
	minimum = 0.003 (at node 0)
	maximum = 0.012 (at node 3)
Accepted packet rate average = 0.00946875
	minimum = 0 (at node 0)
	maximum = 0.1515 (at node 11)
Injected flit rate average = 0.009625
	minimum = 0.003 (at node 0)
	maximum = 0.012 (at node 3)
Accepted flit rate average= 0.00946875
	minimum = 0 (at node 0)
	maximum = 0.1515 (at node 11)
Injected packet length average = 1
Accepted packet length average = 1
Total in-flight flits = 5 (0 measured)
latency change    = 0.0130256
throughput change = 0.0627063
Class 0:
Packet latency average = 18.7407
	minimum = 7
	maximum = 32
Network latency average = 18.7407
	minimum = 7
	maximum = 32
Slowest packet = 5379
Flit latency average = 18.7407
	minimum = 7
	maximum = 32
Slowest flit = 5379
Fragmentation average = 0
	minimum = 0
	maximum = 0
Injected packet rate average = 0.01
	minimum = 0.004 (at node 14)
	maximum = 0.018 (at node 11)
Accepted packet rate average = 0.010125
	minimum = 0 (at node 0)
	maximum = 0.162 (at node 11)
Injected flit rate average = 0.01
	minimum = 0.004 (at node 14)
	maximum = 0.018 (at node 11)
Accepted flit rate average= 0.010125
	minimum = 0 (at node 0)
	maximum = 0.162 (at node 11)
Injected packet length average = 1
Accepted packet length average = 1
Total in-flight flits = 3 (0 measured)
latency change    = 0.0150472
throughput change = 0.0648148
Warmed up ...Time used is 3000 cycles
Class 0:
Packet latency average = 19.2583
	minimum = 7
	maximum = 37
Network latency average = 19.2583
	minimum = 7
	maximum = 37
Slowest packet = 5637
Flit latency average = 19.2792
	minimum = 7
	maximum = 37
Slowest flit = 5637
Fragmentation average = 0
	minimum = 0
	maximum = 0
Injected packet rate average = 0.009625
	minimum = 0.004 (at node 3)
	maximum = 0.016 (at node 7)
Accepted packet rate average = 0.009625
	minimum = 0 (at node 0)
	maximum = 0.154 (at node 11)
Injected flit rate average = 0.009625
	minimum = 0.004 (at node 3)
	maximum = 0.016 (at node 7)
Accepted flit rate average= 0.009625
	minimum = 0 (at node 0)
	maximum = 0.154 (at node 11)
Injected packet length average = 1
Accepted packet length average = 1
Total in-flight flits = 3 (3 measured)
latency change    = 0.0268735
throughput change = 0.0519481
Class 0:
Packet latency average = 19.17
	minimum = 7
	maximum = 37
Network latency average = 19.17
	minimum = 7
	maximum = 37
Slowest packet = 5637
Flit latency average = 19.1815
	minimum = 7
	maximum = 37
Slowest flit = 5637
Fragmentation average = 0
	minimum = 0
	maximum = 0
Injected packet rate average = 0.00953125
	minimum = 0.008 (at node 3)
	maximum = 0.014 (at node 7)
Accepted packet rate average = 0.00946875
	minimum = 0 (at node 0)
	maximum = 0.1515 (at node 11)
Injected flit rate average = 0.00953125
	minimum = 0.008 (at node 3)
	maximum = 0.014 (at node 7)
Accepted flit rate average= 0.00946875
	minimum = 0 (at node 0)
	maximum = 0.1515 (at node 11)
Injected packet length average = 1
Accepted packet length average = 1
Total in-flight flits = 5 (5 measured)
latency change    = 0.00460502
throughput change = 0.0165017
Class 0:
Packet latency average = 19.3608
	minimum = 7
	maximum = 37
Network latency average = 19.3608
	minimum = 7
	maximum = 37
Slowest packet = 5637
Flit latency average = 19.3673
	minimum = 7
	maximum = 37
Slowest flit = 5637
Fragmentation average = 0
	minimum = 0
	maximum = 0
Injected packet rate average = 0.00941667
	minimum = 0.00666667 (at node 12)
	maximum = 0.0136667 (at node 7)
Accepted packet rate average = 0.00941667
	minimum = 0 (at node 0)
	maximum = 0.150667 (at node 11)
Injected flit rate average = 0.00941667
	minimum = 0.00666667 (at node 12)
	maximum = 0.0136667 (at node 7)
Accepted flit rate average= 0.00941667
	minimum = 0 (at node 0)
	maximum = 0.150667 (at node 11)
Injected packet length average = 1
Accepted packet length average = 1
Total in-flight flits = 3 (3 measured)
latency change    = 0.00985506
throughput change = 0.00553097
Class 0:
Packet latency average = 19.4943
	minimum = 7
	maximum = 37
Network latency average = 19.4943
	minimum = 7
	maximum = 37
Slowest packet = 5637
Flit latency average = 19.4984
	minimum = 7
	maximum = 37
Slowest flit = 5637
Fragmentation average = 0
	minimum = 0
	maximum = 0
Injected packet rate average = 0.00957812
	minimum = 0.00725 (at node 12)
	maximum = 0.014 (at node 7)
Accepted packet rate average = 0.0095625
	minimum = 0 (at node 0)
	maximum = 0.153 (at node 11)
Injected flit rate average = 0.00957812
	minimum = 0.00725 (at node 12)
	maximum = 0.014 (at node 7)
Accepted flit rate average= 0.0095625
	minimum = 0 (at node 0)
	maximum = 0.153 (at node 11)
Injected packet length average = 1
Accepted packet length average = 1
Total in-flight flits = 4 (4 measured)
latency change    = 0.00684566
throughput change = 0.0152505
Draining all recorded packets ...
Draining remaining packets ...
Time taken is 7044 cycles
Class 0:
Packet latency average = 19.8538
	minimum = 7
	maximum = 33
Network latency average = 19.8538
	minimum = 7
	maximum = 33
Slowest packet = 6156
Flit latency average = 19.8538
	minimum = 7
	maximum = 33
Slowest flit = 6156
Fragmentation average = 0
	minimum = 0
	maximum = 0
Injected packet rate average = 0.0084375
	minimum = 0.005 (at node 12)
	maximum = 0.012 (at node 3)
Accepted packet rate average = 0.008125
	minimum = 0 (at node 0)
	maximum = 0.13 (at node 11)
Injected flit rate average = 0.0084375
	minimum = 0.005 (at node 12)
	maximum = 0.012 (at node 3)
Accepted flit rate average= 0.008125
	minimum = 0 (at node 0)
	maximum = 0.13 (at node 11)
Injected packet length average = 1
Accepted packet length average = 1
Total in-flight flits = 5 (0 measured)
latency change    = 1
throughput change = 1
Class 0:
Packet latency average = 20
	minimum = 7
	maximum = 37
Network latency average = 20
	minimum = 7
	maximum = 37
Slowest packet = 6305
Flit latency average = 20
	minimum = 7
	maximum = 37
Slowest flit = 6305
Fragmentation average = 0
	minimum = 0
	maximum = 0
Injected packet rate average = 0.00934375
	minimum = 0.0045 (at node 13)
	maximum = 0.0125 (at node 0)
Accepted packet rate average = 0.00925
	minimum = 0 (at node 0)
	maximum = 0.148 (at node 11)
Injected flit rate average = 0.00934375
	minimum = 0.0045 (at node 13)
	maximum = 0.0125 (at node 0)
Accepted flit rate average= 0.00925
	minimum = 0 (at node 0)
	maximum = 0.148 (at node 11)
Injected packet length average = 1
Accepted packet length average = 1
Total in-flight flits = 3 (0 measured)
latency change    = 0.00730769
throughput change = 0.121622
Class 0:
Packet latency average = 19.7226
	minimum = 7
	maximum = 32
Network latency average = 19.7226
	minimum = 7
	maximum = 32
Slowest packet = 6419
Flit latency average = 19.7226
	minimum = 7
	maximum = 32
Slowest flit = 6419
Fragmentation average = 0
	minimum = 0
	maximum = 0
Injected packet rate average = 0.0095625
	minimum = 0.007 (at node 2)
	maximum = 0.014 (at node 7)
Accepted packet rate average = 0.0096875
	minimum = 0 (at node 0)
	maximum = 0.155 (at node 11)
Injected flit rate average = 0.0095625
	minimum = 0.007 (at node 2)
	maximum = 0.014 (at node 7)
Accepted flit rate average= 0.0096875
	minimum = 0 (at node 0)
	maximum = 0.155 (at node 11)
Injected packet length average = 1
Accepted packet length average = 1
Total in-flight flits = 1 (0 measured)
latency change    = 0.0140661
throughput change = 0.0451613
Warmed up ...Time used is 3000 cycles
Class 0:
Packet latency average = 19.0728
	minimum = 7
	maximum = 35
Network latency average = 19.0728
	minimum = 7
	maximum = 35
Slowest packet = 6652
Flit latency average = 19.125
	minimum = 7
	maximum = 35
Slowest flit = 6652
Fragmentation average = 0
	minimum = 0
	maximum = 0
Injected packet rate average = 0.0096875
	minimum = 0.005 (at node 13)
	maximum = 0.014 (at node 9)
Accepted packet rate average = 0.0095
	minimum = 0 (at node 0)
	maximum = 0.152 (at node 11)
Injected flit rate average = 0.0096875
	minimum = 0.005 (at node 13)
	maximum = 0.014 (at node 9)
Accepted flit rate average= 0.0095
	minimum = 0 (at node 0)
	maximum = 0.152 (at node 11)
Injected packet length average = 1
Accepted packet length average = 1
Total in-flight flits = 4 (4 measured)
latency change    = 0.0340659
throughput change = 0.0197368
Class 0:
Packet latency average = 19.5498
	minimum = 7
	maximum = 35
Network latency average = 19.5498
	minimum = 7
	maximum = 35
Slowest packet = 6652
Flit latency average = 19.5753
	minimum = 7
	maximum = 35
Slowest flit = 6652
Fragmentation average = 0
	minimum = 0
	maximum = 0
Injected packet rate average = 0.00925
	minimum = 0.006 (at node 7)
	maximum = 0.0125 (at node 8)
Accepted packet rate average = 0.009125
	minimum = 0 (at node 0)
	maximum = 0.146 (at node 11)
Injected flit rate average = 0.00925
	minimum = 0.006 (at node 7)
	maximum = 0.0125 (at node 8)
Accepted flit rate average= 0.009125
	minimum = 0 (at node 0)
	maximum = 0.146 (at node 11)
Injected packet length average = 1
Accepted packet length average = 1
Total in-flight flits = 5 (5 measured)
latency change    = 0.0243982
throughput change = 0.0410959
Class 0:
Packet latency average = 19.7137
	minimum = 7
	maximum = 35
Network latency average = 19.7137
	minimum = 7
	maximum = 35
Slowest packet = 6652
Flit latency average = 19.7294
	minimum = 7
	maximum = 35
Slowest flit = 6652
Fragmentation average = 0
	minimum = 0
	maximum = 0
Injected packet rate average = 0.00970833
	minimum = 0.00766667 (at node 12)
	maximum = 0.0136667 (at node 4)
Accepted packet rate average = 0.009625
	minimum = 0 (at node 0)
	maximum = 0.154 (at node 11)
Injected flit rate average = 0.00970833
	minimum = 0.00766667 (at node 12)
	maximum = 0.0136667 (at node 4)
Accepted flit rate average= 0.009625
	minimum = 0 (at node 0)
	maximum = 0.154 (at node 11)
Injected packet length average = 1
Accepted packet length average = 1
Total in-flight flits = 5 (5 measured)
latency change    = 0.00831087
throughput change = 0.0519481
Class 0:
Packet latency average = 19.673
	minimum = 7
	maximum = 35
Network latency average = 19.673
	minimum = 7
	maximum = 35
Slowest packet = 6652
Flit latency average = 19.6847
	minimum = 7
	maximum = 35
Slowest flit = 6652
Fragmentation average = 0
	minimum = 0
	maximum = 0
Injected packet rate average = 0.00982813
	minimum = 0.008 (at node 12)
	maximum = 0.012 (at node 4)
Accepted packet rate average = 0.0098125
	minimum = 0 (at node 0)
	maximum = 0.157 (at node 11)
Injected flit rate average = 0.00982813
	minimum = 0.008 (at node 12)
	maximum = 0.012 (at node 4)
Accepted flit rate average= 0.0098125
	minimum = 0 (at node 0)
	maximum = 0.157 (at node 11)
Injected packet length average = 1
Accepted packet length average = 1
Total in-flight flits = 2 (2 measured)
latency change    = 0.00206474
throughput change = 0.0191083
Class 0:
Packet latency average = 19.7165
	minimum = 7
	maximum = 35
Network latency average = 19.7165
	minimum = 7
	maximum = 35
Slowest packet = 6652
Flit latency average = 19.7258
	minimum = 7
	maximum = 35
Slowest flit = 6652
Fragmentation average = 0
	minimum = 0
	maximum = 0
Injected packet rate average = 0.0097875
	minimum = 0.008 (at node 6)
	maximum = 0.0122 (at node 14)
Accepted packet rate average = 0.0098
	minimum = 0 (at node 0)
	maximum = 0.1568 (at node 11)
Injected flit rate average = 0.0097875
	minimum = 0.008 (at node 6)
	maximum = 0.0122 (at node 14)
Accepted flit rate average= 0.0098
	minimum = 0 (at node 0)
	maximum = 0.1568 (at node 11)
Injected packet length average = 1
Accepted packet length average = 1
Total in-flight flits = 0 (0 measured)
latency change    = 0.00220267
throughput change = 0.00127551
Class 0:
Packet latency average = 19.8208
	minimum = 7
	maximum = 35
Network latency average = 19.8208
	minimum = 7
	maximum = 35
Slowest packet = 6652
Flit latency average = 19.8283
	minimum = 7
	maximum = 35
Slowest flit = 6652
Fragmentation average = 0
	minimum = 0
	maximum = 0
Injected packet rate average = 0.00996875
	minimum = 0.0085 (at node 2)
	maximum = 0.0125 (at node 4)
Accepted packet rate average = 0.00994792
	minimum = 0 (at node 0)
	maximum = 0.159167 (at node 11)
Injected flit rate average = 0.00996875
	minimum = 0.0085 (at node 2)
	maximum = 0.0125 (at node 4)
Accepted flit rate average= 0.00994792
	minimum = 0 (at node 0)
	maximum = 0.159167 (at node 11)
Injected packet length average = 1
Accepted packet length average = 1
Total in-flight flits = 3 (3 measured)
latency change    = 0.00526113
throughput change = 0.0148691
Draining all recorded packets ...
Draining remaining packets ...
Time taken is 9042 cycles
Class 0:
Packet latency average = 19.069
	minimum = 7
	maximum = 33
Network latency average = 19.069
	minimum = 7
	maximum = 33
Slowest packet = 7596
Flit latency average = 19.069
	minimum = 7
	maximum = 33
Slowest flit = 7596
Fragmentation average = 0
	minimum = 0
	maximum = 0
Injected packet rate average = 0.0109375
	minimum = 0.006 (at node 13)
	maximum = 0.016 (at node 6)
Accepted packet rate average = 0.010875
	minimum = 0 (at node 0)
	maximum = 0.174 (at node 11)
Injected flit rate average = 0.0109375
	minimum = 0.006 (at node 13)
	maximum = 0.016 (at node 6)
Accepted flit rate average= 0.010875
	minimum = 0 (at node 0)
	maximum = 0.174 (at node 11)
Injected packet length average = 1
Accepted packet length average = 1
Total in-flight flits = 1 (0 measured)
latency change    = 1
throughput change = 1
Class 0:
Packet latency average = 19.4236
	minimum = 7
	maximum = 33
Network latency average = 19.4236
	minimum = 7
	maximum = 33
Slowest packet = 7596
Flit latency average = 19.4236
	minimum = 7
	maximum = 33
Slowest flit = 7596
Fragmentation average = 0
	minimum = 0
	maximum = 0
Injected packet rate average = 0.0109062
	minimum = 0.006 (at node 5)
	maximum = 0.014 (at node 6)
Accepted packet rate average = 0.0108437
	minimum = 0 (at node 0)
	maximum = 0.1735 (at node 11)
Injected flit rate average = 0.0109062
	minimum = 0.006 (at node 5)
	maximum = 0.014 (at node 6)
Accepted flit rate average= 0.0108437
	minimum = 0 (at node 0)
	maximum = 0.1735 (at node 11)
Injected packet length average = 1
Accepted packet length average = 1
Total in-flight flits = 2 (0 measured)
latency change    = 0.0182595
throughput change = 0.00288184
Class 0:
Packet latency average = 20.4178
	minimum = 7
	maximum = 38
Network latency average = 20.4178
	minimum = 7
	maximum = 38
Slowest packet = 7951
Flit latency average = 20.4178
	minimum = 7
	maximum = 38
Slowest flit = 7951
Fragmentation average = 0
	minimum = 0
	maximum = 0
Injected packet rate average = 0.0091875
	minimum = 0.005 (at node 9)
	maximum = 0.013 (at node 5)
Accepted packet rate average = 0.009125
	minimum = 0 (at node 0)
	maximum = 0.146 (at node 11)
Injected flit rate average = 0.0091875
	minimum = 0.005 (at node 9)
	maximum = 0.013 (at node 5)
Accepted flit rate average= 0.009125
	minimum = 0 (at node 0)
	maximum = 0.146 (at node 11)
Injected packet length average = 1
Accepted packet length average = 1
Total in-flight flits = 3 (0 measured)
latency change    = 0.0486917
throughput change = 0.188356
Warmed up ...Time used is 3000 cycles
Class 0:
Packet latency average = 19.8506
	minimum = 7
	maximum = 32
Network latency average = 19.8506
	minimum = 7
	maximum = 32
Slowest packet = 8067
Flit latency average = 19.7962
	minimum = 7
	maximum = 32
Slowest flit = 8067
Fragmentation average = 0
	minimum = 0
	maximum = 0
Injected packet rate average = 0.0100625
	minimum = 0.006 (at node 8)
	maximum = 0.014 (at node 1)
Accepted packet rate average = 0.0098125
	minimum = 0 (at node 0)
	maximum = 0.157 (at node 11)
Injected flit rate average = 0.0100625
	minimum = 0.006 (at node 8)
	maximum = 0.014 (at node 1)
Accepted flit rate average= 0.0098125
	minimum = 0 (at node 0)
	maximum = 0.157 (at node 11)
Injected packet length average = 1
Accepted packet length average = 1
Total in-flight flits = 7 (7 measured)
latency change    = 0.0285713
throughput change = 0.0700637
Class 0:
Packet latency average = 19.6844
	minimum = 7
	maximum = 33
Network latency average = 19.6844
	minimum = 7
	maximum = 33
Slowest packet = 8251
Flit latency average = 19.6594
	minimum = 7
	maximum = 33
Slowest flit = 8251
Fragmentation average = 0
	minimum = 0
	maximum = 0
Injected packet rate average = 0.0102188
	minimum = 0.006 (at node 8)
	maximum = 0.0145 (at node 2)
Accepted packet rate average = 0.0100938
	minimum = 0 (at node 0)
	maximum = 0.1615 (at node 11)
Injected flit rate average = 0.0102188
	minimum = 0.006 (at node 8)
	maximum = 0.0145 (at node 2)
Accepted flit rate average= 0.0100938
	minimum = 0 (at node 0)
	maximum = 0.1615 (at node 11)
Injected packet length average = 1
Accepted packet length average = 1
Total in-flight flits = 7 (7 measured)
latency change    = 0.00844702
throughput change = 0.0278638
Class 0:
Packet latency average = 20.0573
	minimum = 7
	maximum = 33
Network latency average = 20.0573
	minimum = 7
	maximum = 33
Slowest packet = 8251
Flit latency average = 20.0386
	minimum = 7
	maximum = 33
Slowest flit = 8251
Fragmentation average = 0
	minimum = 0
	maximum = 0
Injected packet rate average = 0.0102292
	minimum = 0.008 (at node 11)
	maximum = 0.0143333 (at node 2)
Accepted packet rate average = 0.01025
	minimum = 0 (at node 0)
	maximum = 0.164 (at node 11)
Injected flit rate average = 0.0102292
	minimum = 0.008 (at node 11)
	maximum = 0.0143333 (at node 2)
Accepted flit rate average= 0.01025
	minimum = 0 (at node 0)
	maximum = 0.164 (at node 11)
Injected packet length average = 1
Accepted packet length average = 1
Total in-flight flits = 2 (2 measured)
latency change    = 0.018591
throughput change = 0.0152439
Class 0:
Packet latency average = 20.0363
	minimum = 7
	maximum = 33
Network latency average = 20.0363
	minimum = 7
	maximum = 33
Slowest packet = 8251
Flit latency average = 20.022
	minimum = 7
	maximum = 33
Slowest flit = 8251
Fragmentation average = 0
	minimum = 0
	maximum = 0
Injected packet rate average = 0.00998438
	minimum = 0.00775 (at node 14)
	maximum = 0.016 (at node 2)
Accepted packet rate average = 0.00995313
	minimum = 0 (at node 0)
	maximum = 0.15925 (at node 11)
Injected flit rate average = 0.00998438
	minimum = 0.00775 (at node 14)
	maximum = 0.016 (at node 2)
Accepted flit rate average= 0.00995313
	minimum = 0 (at node 0)
	maximum = 0.15925 (at node 11)
Injected packet length average = 1
Accepted packet length average = 1
Total in-flight flits = 5 (5 measured)
latency change    = 0.00104721
throughput change = 0.0298273
Draining all recorded packets ...
Draining remaining packets ...
Time taken is 7032 cycles
Class 0:
Packet latency average = 19.9503
	minimum = 7
	maximum = 34
Network latency average = 19.9503
	minimum = 7
	maximum = 34
Slowest packet = 8761
Flit latency average = 19.9503
	minimum = 7
	maximum = 34
Slowest flit = 8761
Fragmentation average = 0
	minimum = 0
	maximum = 0
Injected packet rate average = 0.010125
	minimum = 0.005 (at node 5)
	maximum = 0.013 (at node 8)
Accepted packet rate average = 0.0100625
	minimum = 0 (at node 0)
	maximum = 0.161 (at node 11)
Injected flit rate average = 0.010125
	minimum = 0.005 (at node 5)
	maximum = 0.013 (at node 8)
Accepted flit rate average= 0.0100625
	minimum = 0 (at node 0)
	maximum = 0.161 (at node 11)
Injected packet length average = 1
Accepted packet length average = 1
Total in-flight flits = 1 (0 measured)
latency change    = 1
throughput change = 1
Class 0:
Packet latency average = 20.1481
	minimum = 7
	maximum = 36
Network latency average = 20.1481
	minimum = 7
	maximum = 36
Slowest packet = 8862
Flit latency average = 20.1481
	minimum = 7
	maximum = 36
Slowest flit = 8862
Fragmentation average = 0
	minimum = 0
	maximum = 0
Injected packet rate average = 0.0102188
	minimum = 0.005 (at node 7)
	maximum = 0.0125 (at node 4)
Accepted packet rate average = 0.010125
	minimum = 0 (at node 0)
	maximum = 0.162 (at node 11)
Injected flit rate average = 0.0102188
	minimum = 0.005 (at node 7)
	maximum = 0.0125 (at node 4)
Accepted flit rate average= 0.010125
	minimum = 0 (at node 0)
	maximum = 0.162 (at node 11)
Injected packet length average = 1
Accepted packet length average = 1
Total in-flight flits = 3 (0 measured)
latency change    = 0.00981915
throughput change = 0.00617284
Class 0:
Packet latency average = 19.8683
	minimum = 7
	maximum = 33
Network latency average = 19.8683
	minimum = 7
	maximum = 33
Slowest packet = 9158
Flit latency average = 19.8683
	minimum = 7
	maximum = 33
Slowest flit = 9158
Fragmentation average = 0
	minimum = 0
	maximum = 0
Injected packet rate average = 0.010625
	minimum = 0.001 (at node 13)
	maximum = 0.017 (at node 9)
Accepted packet rate average = 0.0104375
	minimum = 0 (at node 0)
	maximum = 0.167 (at node 11)
Injected flit rate average = 0.010625
	minimum = 0.001 (at node 13)
	maximum = 0.017 (at node 9)
Accepted flit rate average= 0.0104375
	minimum = 0 (at node 0)
	maximum = 0.167 (at node 11)
Injected packet length average = 1
Accepted packet length average = 1
Total in-flight flits = 6 (0 measured)
latency change    = 0.014087
throughput change = 0.0299401
Warmed up ...Time used is 3000 cycles
Class 0:
Packet latency average = 19.5241
	minimum = 7
	maximum = 34
Network latency average = 19.5241
	minimum = 7
	maximum = 34
Slowest packet = 9227
Flit latency average = 19.6686
	minimum = 7
	maximum = 34
Slowest flit = 9227
Fragmentation average = 0
	minimum = 0
	maximum = 0
Injected packet rate average = 0.0104375
	minimum = 0.004 (at node 0)
	maximum = 0.016 (at node 8)
Accepted packet rate average = 0.01075
	minimum = 0 (at node 0)
	maximum = 0.172 (at node 11)
Injected flit rate average = 0.0104375
	minimum = 0.004 (at node 0)
	maximum = 0.016 (at node 8)
Accepted flit rate average= 0.01075
	minimum = 0 (at node 0)
	maximum = 0.172 (at node 11)
Injected packet length average = 1
Accepted packet length average = 1
Total in-flight flits = 1 (1 measured)
latency change    = 0.0176278
throughput change = 0.0290698
Class 0:
Packet latency average = 19.6327
	minimum = 7
	maximum = 34
Network latency average = 19.6327
	minimum = 7
	maximum = 34
Slowest packet = 9227
Flit latency average = 19.702
	minimum = 7
	maximum = 34
Slowest flit = 9227
Fragmentation average = 0
	minimum = 0
	maximum = 0
Injected packet rate average = 0.0107812
	minimum = 0.006 (at node 0)
	maximum = 0.0165 (at node 8)
Accepted packet rate average = 0.0109062
	minimum = 0 (at node 0)
	maximum = 0.1745 (at node 11)
Injected flit rate average = 0.0107812
	minimum = 0.006 (at node 0)
	maximum = 0.0165 (at node 8)
Accepted flit rate average= 0.0109062
	minimum = 0 (at node 0)
	maximum = 0.1745 (at node 11)
Injected packet length average = 1
Accepted packet length average = 1
Total in-flight flits = 2 (2 measured)
latency change    = 0.00552939
throughput change = 0.0143266
Class 0:
Packet latency average = 19.4115
	minimum = 7
	maximum = 34
Network latency average = 19.4115
	minimum = 7
	maximum = 34
Slowest packet = 9227
Flit latency average = 19.4617
	minimum = 7
	maximum = 34
Slowest flit = 9227
Fragmentation average = 0
	minimum = 0
	maximum = 0
Injected packet rate average = 0.0104792
	minimum = 0.00633333 (at node 0)
	maximum = 0.0156667 (at node 8)
Accepted packet rate average = 0.0106042
	minimum = 0 (at node 0)
	maximum = 0.169667 (at node 11)
Injected flit rate average = 0.0104792
	minimum = 0.00633333 (at node 0)
	maximum = 0.0156667 (at node 8)
Accepted flit rate average= 0.0106042
	minimum = 0 (at node 0)
	maximum = 0.169667 (at node 11)
Injected packet length average = 1
Accepted packet length average = 1
Total in-flight flits = 0 (0 measured)
latency change    = 0.0113913
throughput change = 0.0284872
Draining all recorded packets ...
Draining remaining packets ...
Time taken is 6022 cycles
Class 0:
Packet latency average = 19.6711
	minimum = 7
	maximum = 33
Network latency average = 19.6711
	minimum = 7
	maximum = 33
Slowest packet = 9774
Flit latency average = 19.6711
	minimum = 7
	maximum = 33
Slowest flit = 9774
Fragmentation average = 0
	minimum = 0
	maximum = 0
Injected packet rate average = 0.0095625
	minimum = 0.004 (at node 12)
	maximum = 0.02 (at node 13)
Accepted packet rate average = 0.0095
	minimum = 0 (at node 0)
	maximum = 0.152 (at node 11)
Injected flit rate average = 0.0095625
	minimum = 0.004 (at node 12)
	maximum = 0.02 (at node 13)
Accepted flit rate average= 0.0095
	minimum = 0 (at node 0)
	maximum = 0.152 (at node 11)
Injected packet length average = 1
Accepted packet length average = 1
Total in-flight flits = 1 (0 measured)
latency change    = 1
throughput change = 1
Class 0:
Packet latency average = 19.5298
	minimum = 7
	maximum = 33
Network latency average = 19.5298
	minimum = 7
	maximum = 33
Slowest packet = 9774
Flit latency average = 19.5298
	minimum = 7
	maximum = 33
Slowest flit = 9774
Fragmentation average = 0
	minimum = 0
	maximum = 0
Injected packet rate average = 0.0095
	minimum = 0.005 (at node 12)
	maximum = 0.016 (at node 13)
Accepted packet rate average = 0.0094375
	minimum = 0 (at node 0)
	maximum = 0.151 (at node 11)
Injected flit rate average = 0.0095
	minimum = 0.005 (at node 12)
	maximum = 0.016 (at node 13)
Accepted flit rate average= 0.0094375
	minimum = 0 (at node 0)
	maximum = 0.151 (at node 11)
Injected packet length average = 1
Accepted packet length average = 1
Total in-flight flits = 2 (0 measured)
latency change    = 0.0072326
throughput change = 0.00662252
Class 0:
Packet latency average = 19.1233
	minimum = 7
	maximum = 33
Network latency average = 19.1233
	minimum = 7
	maximum = 33
Slowest packet = 9997
Flit latency average = 19.1233
	minimum = 7
	maximum = 33
Slowest flit = 9997
Fragmentation average = 0
	minimum = 0
	maximum = 0
Injected packet rate average = 0.009375
	minimum = 0.004 (at node 5)
	maximum = 0.017 (at node 15)
Accepted packet rate average = 0.009125
	minimum = 0 (at node 0)
	maximum = 0.146 (at node 11)
Injected flit rate average = 0.009375
	minimum = 0.004 (at node 5)
	maximum = 0.017 (at node 15)
Accepted flit rate average= 0.009125
	minimum = 0 (at node 0)
	maximum = 0.146 (at node 11)
Injected packet length average = 1
Accepted packet length average = 1
Total in-flight flits = 6 (0 measured)
latency change    = 0.0212575
throughput change = 0.0342466
Warmed up ...Time used is 3000 cycles
Class 0:
Packet latency average = 18.6905
	minimum = 7
	maximum = 35
Network latency average = 18.6905
	minimum = 7
	maximum = 35
Slowest packet = 10279
Flit latency average = 18.8506
	minimum = 7
	maximum = 35
Slowest flit = 10279
Fragmentation average = 0
	minimum = 0
	maximum = 0
Injected packet rate average = 0.01075
	minimum = 0.004 (at node 12)
	maximum = 0.02 (at node 6)
Accepted packet rate average = 0.010875
	minimum = 0 (at node 0)
	maximum = 0.174 (at node 11)
Injected flit rate average = 0.01075
	minimum = 0.004 (at node 12)
	maximum = 0.02 (at node 6)
Accepted flit rate average= 0.010875
	minimum = 0 (at node 0)
	maximum = 0.174 (at node 11)
Injected packet length average = 1
Accepted packet length average = 1
Total in-flight flits = 4 (4 measured)
latency change    = 0.0231568
throughput change = 0.16092
Class 0:
Packet latency average = 18.8824
	minimum = 7
	maximum = 35
Network latency average = 18.8824
	minimum = 7
	maximum = 35
Slowest packet = 10279
Flit latency average = 18.9635
	minimum = 7
	maximum = 35
Slowest flit = 10279
Fragmentation average = 0
	minimum = 0
	maximum = 0
Injected packet rate average = 0.0101875
	minimum = 0.0065 (at node 12)
	maximum = 0.015 (at node 6)
Accepted packet rate average = 0.0102813
	minimum = 0 (at node 0)
	maximum = 0.1645 (at node 11)
Injected flit rate average = 0.0101875
	minimum = 0.0065 (at node 12)
	maximum = 0.015 (at node 6)
Accepted flit rate average= 0.0102813
	minimum = 0 (at node 0)
	maximum = 0.1645 (at node 11)
Injected packet length average = 1
Accepted packet length average = 1
Total in-flight flits = 3 (3 measured)
latency change    = 0.0101617
throughput change = 0.0577508
Class 0:
Packet latency average = 19.3194
	minimum = 7
	maximum = 35
Network latency average = 19.3194
	minimum = 7
	maximum = 35
Slowest packet = 10279
Flit latency average = 19.3691
	minimum = 7
	maximum = 35
Slowest flit = 10279
Fragmentation average = 0
	minimum = 0
	maximum = 0
Injected packet rate average = 0.0100208
	minimum = 0.007 (at node 3)
	maximum = 0.0133333 (at node 6)
Accepted packet rate average = 0.0101042
	minimum = 0 (at node 0)
	maximum = 0.161667 (at node 11)
Injected flit rate average = 0.0100208
	minimum = 0.007 (at node 3)
	maximum = 0.0133333 (at node 6)
Accepted flit rate average= 0.0101042
	minimum = 0 (at node 0)
	maximum = 0.161667 (at node 11)
Injected packet length average = 1
Accepted packet length average = 1
Total in-flight flits = 2 (2 measured)
latency change    = 0.022623
throughput change = 0.0175258
Class 0:
Packet latency average = 19.4514
	minimum = 7
	maximum = 36
Network latency average = 19.4514
	minimum = 7
	maximum = 36
Slowest packet = 10634
Flit latency average = 19.4864
	minimum = 7
	maximum = 36
Slowest flit = 10634
Fragmentation average = 0
	minimum = 0
	maximum = 0
Injected packet rate average = 0.0103438
	minimum = 0.00725 (at node 3)
	maximum = 0.01425 (at node 11)
Accepted packet rate average = 0.010375
	minimum = 0 (at node 0)
	maximum = 0.166 (at node 11)
Injected flit rate average = 0.0103438
	minimum = 0.00725 (at node 3)
	maximum = 0.01425 (at node 11)
Accepted flit rate average= 0.010375
	minimum = 0 (at node 0)
	maximum = 0.166 (at node 11)
Injected packet length average = 1
Accepted packet length average = 1
Total in-flight flits = 4 (4 measured)
latency change    = 0.0067837
throughput change = 0.0261044
Class 0:
Packet latency average = 19.5018
	minimum = 7
	maximum = 36
Network latency average = 19.5018
	minimum = 7
	maximum = 36
Slowest packet = 10634
Flit latency average = 19.5296
	minimum = 7
	maximum = 36
Slowest flit = 10634
Fragmentation average = 0
	minimum = 0
	maximum = 0
Injected packet rate average = 0.01035
	minimum = 0.0076 (at node 3)
	maximum = 0.0138 (at node 11)
Accepted packet rate average = 0.0103625
	minimum = 0 (at node 0)
	maximum = 0.1658 (at node 11)
Injected flit rate average = 0.01035
	minimum = 0.0076 (at node 3)
	maximum = 0.0138 (at node 11)
Accepted flit rate average= 0.0103625
	minimum = 0 (at node 0)
	maximum = 0.1658 (at node 11)
Injected packet length average = 1
Accepted packet length average = 1
Total in-flight flits = 5 (5 measured)
latency change    = 0.00258718
throughput change = 0.00120627
Draining all recorded packets ...
Draining remaining packets ...
Time taken is 8043 cycles
Class 0:
Packet latency average = 19.4647
	minimum = 7
	maximum = 33
Network latency average = 19.4647
	minimum = 7
	maximum = 33
Slowest packet = 11013
Flit latency average = 19.4647
	minimum = 7
	maximum = 33
Slowest flit = 11013
Fragmentation average = 0
	minimum = 0
	maximum = 0
Injected packet rate average = 0.010875
	minimum = 0.004 (at node 9)
	maximum = 0.018 (at node 0)
Accepted packet rate average = 0.010625
	minimum = 0 (at node 0)
	maximum = 0.17 (at node 11)
Injected flit rate average = 0.010875
	minimum = 0.004 (at node 9)
	maximum = 0.018 (at node 0)
Accepted flit rate average= 0.010625
	minimum = 0 (at node 0)
	maximum = 0.17 (at node 11)
Injected packet length average = 1
Accepted packet length average = 1
Total in-flight flits = 4 (0 measured)
latency change    = 1
throughput change = 1
Class 0:
Packet latency average = 20.0675
	minimum = 7
	maximum = 33
Network latency average = 20.0675
	minimum = 7
	maximum = 33
Slowest packet = 11013
Flit latency average = 20.0675
	minimum = 7
	maximum = 33
Slowest flit = 11013
Fragmentation average = 0
	minimum = 0
	maximum = 0
Injected packet rate average = 0.010375
	minimum = 0.0065 (at node 3)
	maximum = 0.0135 (at node 0)
Accepted packet rate average = 0.0101875
	minimum = 0 (at node 0)
	maximum = 0.163 (at node 11)
Injected flit rate average = 0.010375
	minimum = 0.0065 (at node 3)
	maximum = 0.0135 (at node 0)
Accepted flit rate average= 0.0101875
	minimum = 0 (at node 0)
	maximum = 0.163 (at node 11)
Injected packet length average = 1
Accepted packet length average = 1
Total in-flight flits = 6 (0 measured)
latency change    = 0.0300376
throughput change = 0.0429448
Class 0:
Packet latency average = 19.4743
	minimum = 7
	maximum = 34
Network latency average = 19.4743
	minimum = 7
	maximum = 34
Slowest packet = 11423
Flit latency average = 19.4743
	minimum = 7
	maximum = 34
Slowest flit = 11423
Fragmentation average = 0
	minimum = 0
	maximum = 0
Injected packet rate average = 0.0106875
	minimum = 0.003 (at node 12)
	maximum = 0.015 (at node 4)
Accepted packet rate average = 0.0109375
	minimum = 0 (at node 0)
	maximum = 0.175 (at node 11)
Injected flit rate average = 0.0106875
	minimum = 0.003 (at node 12)
	maximum = 0.015 (at node 4)
Accepted flit rate average= 0.0109375
	minimum = 0 (at node 0)
	maximum = 0.175 (at node 11)
Injected packet length average = 1
Accepted packet length average = 1
Total in-flight flits = 2 (0 measured)
latency change    = 0.0304606
throughput change = 0.0685714
Warmed up ...Time used is 3000 cycles
Class 0:
Packet latency average = 19.7431
	minimum = 7
	maximum = 33
Network latency average = 19.7431
	minimum = 7
	maximum = 33
Slowest packet = 11494
Flit latency average = 19.8425
	minimum = 7
	maximum = 33
Slowest flit = 11494
Fragmentation average = 0
	minimum = 0
	maximum = 0
Injected packet rate average = 0.00925
	minimum = 0.002 (at node 3)
	maximum = 0.014 (at node 0)
Accepted packet rate average = 0.009125
	minimum = 0 (at node 0)
	maximum = 0.146 (at node 11)
Injected flit rate average = 0.00925
	minimum = 0.002 (at node 3)
	maximum = 0.014 (at node 0)
Accepted flit rate average= 0.009125
	minimum = 0 (at node 0)
	maximum = 0.146 (at node 11)
Injected packet length average = 1
Accepted packet length average = 1
Total in-flight flits = 4 (4 measured)
latency change    = 0.0136134
throughput change = 0.19863
Class 0:
Packet latency average = 19.6393
	minimum = 7
	maximum = 34
Network latency average = 19.6393
	minimum = 7
	maximum = 34
Slowest packet = 11603
Flit latency average = 19.6873
	minimum = 7
	maximum = 34
Slowest flit = 11603
Fragmentation average = 0
	minimum = 0
	maximum = 0
Injected packet rate average = 0.00953125
	minimum = 0.006 (at node 3)
	maximum = 0.012 (at node 14)
Accepted packet rate average = 0.00959375
	minimum = 0 (at node 0)
	maximum = 0.1535 (at node 11)
Injected flit rate average = 0.00953125
	minimum = 0.006 (at node 3)
	maximum = 0.012 (at node 14)
Accepted flit rate average= 0.00959375
	minimum = 0 (at node 0)
	maximum = 0.1535 (at node 11)
Injected packet length average = 1
Accepted packet length average = 1
Total in-flight flits = 0 (0 measured)
latency change    = 0.00528079
throughput change = 0.0488599
Class 0:
Packet latency average = 19.9331
	minimum = 7
	maximum = 36
Network latency average = 19.9331
	minimum = 7
	maximum = 36
Slowest packet = 11905
Flit latency average = 19.9625
	minimum = 7
	maximum = 36
Slowest flit = 11905
Fragmentation average = 0
	minimum = 0
	maximum = 0
Injected packet rate average = 0.0100417
	minimum = 0.006 (at node 3)
	maximum = 0.0133333 (at node 0)
Accepted packet rate average = 0.01
	minimum = 0 (at node 0)
	maximum = 0.16 (at node 11)
Injected flit rate average = 0.0100417
	minimum = 0.006 (at node 3)
	maximum = 0.0133333 (at node 0)
Accepted flit rate average= 0.01
	minimum = 0 (at node 0)
	maximum = 0.16 (at node 11)
Injected packet length average = 1
Accepted packet length average = 1
Total in-flight flits = 4 (4 measured)
latency change    = 0.0147348
throughput change = 0.040625
Class 0:
Packet latency average = 20.0016
	minimum = 7
	maximum = 36
Network latency average = 20.0016
	minimum = 7
	maximum = 36
Slowest packet = 11905
Flit latency average = 20.0236
	minimum = 7
	maximum = 36
Slowest flit = 11905
Fragmentation average = 0
	minimum = 0
	maximum = 0
Injected packet rate average = 0.00992188
	minimum = 0.007 (at node 5)
	maximum = 0.01325 (at node 0)
Accepted packet rate average = 0.0099375
	minimum = 0 (at node 0)
	maximum = 0.159 (at node 11)
Injected flit rate average = 0.00992188
	minimum = 0.007 (at node 5)
	maximum = 0.01325 (at node 0)
Accepted flit rate average= 0.0099375
	minimum = 0 (at node 0)
	maximum = 0.159 (at node 11)
Injected packet length average = 1
Accepted packet length average = 1
Total in-flight flits = 1 (1 measured)
latency change    = 0.00342587
throughput change = 0.00628931
Draining all recorded packets ...
Draining remaining packets ...
Time taken is 7027 cycles
Class 0:
Packet latency average = 20.6364
	minimum = 7
	maximum = 33
Network latency average = 20.6364
	minimum = 7
	maximum = 33
Slowest packet = 12112
Flit latency average = 20.6364
	minimum = 7
	maximum = 33
Slowest flit = 12112
Fragmentation average = 0
	minimum = 0
	maximum = 0
Injected packet rate average = 0.0098125
	minimum = 0.005 (at node 13)
	maximum = 0.015 (at node 4)
Accepted packet rate average = 0.009625
	minimum = 0 (at node 0)
	maximum = 0.154 (at node 11)
Injected flit rate average = 0.0098125
	minimum = 0.005 (at node 13)
	maximum = 0.015 (at node 4)
Accepted flit rate average= 0.009625
	minimum = 0 (at node 0)
	maximum = 0.154 (at node 11)
Injected packet length average = 1
Accepted packet length average = 1
Total in-flight flits = 3 (0 measured)
latency change    = 1
throughput change = 1
Class 0:
Packet latency average = 20.085
	minimum = 7
	maximum = 34
Network latency average = 20.085
	minimum = 7
	maximum = 34
Slowest packet = 12353
Flit latency average = 20.085
	minimum = 7
	maximum = 34
Slowest flit = 12353
Fragmentation average = 0
	minimum = 0
	maximum = 0
Injected packet rate average = 0.00971875
	minimum = 0.0075 (at node 10)
	maximum = 0.0115 (at node 0)
Accepted packet rate average = 0.0095625
	minimum = 0 (at node 0)
	maximum = 0.153 (at node 11)
Injected flit rate average = 0.00971875
	minimum = 0.0075 (at node 10)
	maximum = 0.0115 (at node 0)
Accepted flit rate average= 0.0095625
	minimum = 0 (at node 0)
	maximum = 0.153 (at node 11)
Injected packet length average = 1
Accepted packet length average = 1
Total in-flight flits = 5 (0 measured)
latency change    = 0.0274532
throughput change = 0.00653595
Class 0:
Packet latency average = 19.6957
	minimum = 7
	maximum = 33
Network latency average = 19.6957
	minimum = 7
	maximum = 33
Slowest packet = 12520
Flit latency average = 19.6957
	minimum = 7
	maximum = 33
Slowest flit = 12520
Fragmentation average = 0
	minimum = 0
	maximum = 0
Injected packet rate average = 0.0099375
	minimum = 0.004 (at node 13)
	maximum = 0.014 (at node 4)
Accepted packet rate average = 0.0100625
	minimum = 0 (at node 0)
	maximum = 0.161 (at node 11)
Injected flit rate average = 0.0099375
	minimum = 0.004 (at node 13)
	maximum = 0.014 (at node 4)
Accepted flit rate average= 0.0100625
	minimum = 0 (at node 0)
	maximum = 0.161 (at node 11)
Injected packet length average = 1
Accepted packet length average = 1
Total in-flight flits = 3 (0 measured)
latency change    = 0.0197666
throughput change = 0.0496894
Warmed up ...Time used is 3000 cycles
Class 0:
Packet latency average = 20.4535
	minimum = 7
	maximum = 33
Network latency average = 20.4535
	minimum = 7
	maximum = 33
Slowest packet = 12571
Flit latency average = 20.4057
	minimum = 7
	maximum = 33
Slowest flit = 12571
Fragmentation average = 0
	minimum = 0
	maximum = 0
Injected packet rate average = 0.0108125
	minimum = 0.006 (at node 3)
	maximum = 0.018 (at node 1)
Accepted packet rate average = 0.0109375
	minimum = 0 (at node 0)
	maximum = 0.175 (at node 11)
Injected flit rate average = 0.0108125
	minimum = 0.006 (at node 3)
	maximum = 0.018 (at node 1)
Accepted flit rate average= 0.0109375
	minimum = 0 (at node 0)
	maximum = 0.175 (at node 11)
Injected packet length average = 1
Accepted packet length average = 1
Total in-flight flits = 1 (1 measured)
latency change    = 0.0370517
throughput change = 0.08
Class 0:
Packet latency average = 20.1914
	minimum = 7
	maximum = 34
Network latency average = 20.1914
	minimum = 7
	maximum = 34
Slowest packet = 12819
Flit latency average = 20.1682
	minimum = 7
	maximum = 34
Slowest flit = 12819
Fragmentation average = 0
	minimum = 0
	maximum = 0
Injected packet rate average = 0.0101875
	minimum = 0.006 (at node 13)
	maximum = 0.0145 (at node 1)
Accepted packet rate average = 0.0102188
	minimum = 0 (at node 0)
	maximum = 0.1635 (at node 11)
Injected flit rate average = 0.0101875
	minimum = 0.006 (at node 13)
	maximum = 0.0145 (at node 1)
Accepted flit rate average= 0.0102188
	minimum = 0 (at node 0)
	maximum = 0.1635 (at node 11)
Injected packet length average = 1
Accepted packet length average = 1
Total in-flight flits = 2 (2 measured)
latency change    = 0.0129823
throughput change = 0.0703364
Class 0:
Packet latency average = 20.1855
	minimum = 7
	maximum = 34
Network latency average = 20.1855
	minimum = 7
	maximum = 34
Slowest packet = 12819
Flit latency average = 20.1703
	minimum = 7
	maximum = 34
Slowest flit = 12819
Fragmentation average = 0
	minimum = 0
	maximum = 0
Injected packet rate average = 0.0104167
	minimum = 0.00666667 (at node 13)
	maximum = 0.0146667 (at node 1)
Accepted packet rate average = 0.0103958
	minimum = 0 (at node 0)
	maximum = 0.166333 (at node 11)
Injected flit rate average = 0.0104167
	minimum = 0.00666667 (at node 13)
	maximum = 0.0146667 (at node 1)
Accepted flit rate average= 0.0103958
	minimum = 0 (at node 0)
	maximum = 0.166333 (at node 11)
Injected packet length average = 1
Accepted packet length average = 1
Total in-flight flits = 4 (4 measured)
latency change    = 0.000291009
throughput change = 0.0170341
Class 0:
Packet latency average = 20.2355
	minimum = 7
	maximum = 34
Network latency average = 20.2355
	minimum = 7
	maximum = 34
Slowest packet = 12819
Flit latency average = 20.2234
	minimum = 7
	maximum = 34
Slowest flit = 12819
Fragmentation average = 0
	minimum = 0
	maximum = 0
Injected packet rate average = 0.01
	minimum = 0.006 (at node 13)
	maximum = 0.0135 (at node 1)
Accepted packet rate average = 0.01
	minimum = 0 (at node 0)
	maximum = 0.16 (at node 11)
Injected flit rate average = 0.01
	minimum = 0.006 (at node 13)
	maximum = 0.0135 (at node 1)
Accepted flit rate average= 0.01
	minimum = 0 (at node 0)
	maximum = 0.16 (at node 11)
Injected packet length average = 1
Accepted packet length average = 1
Total in-flight flits = 3 (3 measured)
latency change    = 0.00247066
throughput change = 0.0395833
Class 0:
Packet latency average = 20.2141
	minimum = 7
	maximum = 36
Network latency average = 20.2141
	minimum = 7
	maximum = 36
Slowest packet = 13211
Flit latency average = 20.2047
	minimum = 7
	maximum = 36
Slowest flit = 13211
Fragmentation average = 0
	minimum = 0
	maximum = 0
Injected packet rate average = 0.0101125
	minimum = 0.0066 (at node 13)
	maximum = 0.0136 (at node 1)
Accepted packet rate average = 0.0101375
	minimum = 0 (at node 0)
	maximum = 0.1622 (at node 11)
Injected flit rate average = 0.0101125
	minimum = 0.0066 (at node 13)
	maximum = 0.0136 (at node 1)
Accepted flit rate average= 0.0101375
	minimum = 0 (at node 0)
	maximum = 0.1622 (at node 11)
Injected packet length average = 1
Accepted packet length average = 1
Total in-flight flits = 1 (1 measured)
latency change    = 0.00105718
throughput change = 0.0135635
Draining all recorded packets ...
Draining remaining packets ...
Time taken is 8054 cycles
Class 0:
Packet latency average = 19.5772
	minimum = 7
	maximum = 32
Network latency average = 19.5772
	minimum = 7
	maximum = 32
Slowest packet = 13380
Flit latency average = 19.5772
	minimum = 7
	maximum = 32
Slowest flit = 13380
Fragmentation average = 0
	minimum = 0
	maximum = 0
Injected packet rate average = 0.009375
	minimum = 0.004 (at node 0)
	maximum = 0.015 (at node 4)
Accepted packet rate average = 0.0093125
	minimum = 0 (at node 0)
	maximum = 0.149 (at node 11)
Injected flit rate average = 0.009375
	minimum = 0.004 (at node 0)
	maximum = 0.015 (at node 4)
Accepted flit rate average= 0.0093125
	minimum = 0 (at node 0)
	maximum = 0.149 (at node 11)
Injected packet length average = 1
Accepted packet length average = 1
Total in-flight flits = 1 (0 measured)
latency change    = 1
throughput change = 1
Class 0:
Packet latency average = 19.5263
	minimum = 7
	maximum = 32
Network latency average = 19.5263
	minimum = 7
	maximum = 32
Slowest packet = 13380
Flit latency average = 19.5263
	minimum = 7
	maximum = 32
Slowest flit = 13380
Fragmentation average = 0
	minimum = 0
	maximum = 0
Injected packet rate average = 0.00959375
	minimum = 0.006 (at node 0)
	maximum = 0.014 (at node 4)
Accepted packet rate average = 0.0095
	minimum = 0 (at node 0)
	maximum = 0.152 (at node 11)
Injected flit rate average = 0.00959375
	minimum = 0.006 (at node 0)
	maximum = 0.014 (at node 4)
Accepted flit rate average= 0.0095
	minimum = 0 (at node 0)
	maximum = 0.152 (at node 11)
Injected packet length average = 1
Accepted packet length average = 1
Total in-flight flits = 3 (0 measured)
latency change    = 0.00260497
throughput change = 0.0197368
Class 0:
Packet latency average = 18.9593
	minimum = 7
	maximum = 38
Network latency average = 18.9593
	minimum = 7
	maximum = 38
Slowest packet = 13729
Flit latency average = 18.9593
	minimum = 7
	maximum = 38
Slowest flit = 13729
Fragmentation average = 0
	minimum = 0
	maximum = 0
Injected packet rate average = 0.0110625
	minimum = 0.005 (at node 2)
	maximum = 0.019 (at node 9)
Accepted packet rate average = 0.01075
	minimum = 0 (at node 0)
	maximum = 0.172 (at node 11)
Injected flit rate average = 0.0110625
	minimum = 0.005 (at node 2)
	maximum = 0.019 (at node 9)
Accepted flit rate average= 0.01075
	minimum = 0 (at node 0)
	maximum = 0.172 (at node 11)
Injected packet length average = 1
Accepted packet length average = 1
Total in-flight flits = 8 (0 measured)
latency change    = 0.0299069
throughput change = 0.116279
Warmed up ...Time used is 3000 cycles
Class 0:
Packet latency average = 18.9577
	minimum = 7
	maximum = 32
Network latency average = 18.9577
	minimum = 7
	maximum = 32
Slowest packet = 13861
Flit latency average = 19.1533
	minimum = 7
	maximum = 32
Slowest flit = 13858
Fragmentation average = 0
	minimum = 0
	maximum = 0
Injected packet rate average = 0.0090625
	minimum = 0.004 (at node 4)
	maximum = 0.013 (at node 14)
Accepted packet rate average = 0.009375
	minimum = 0 (at node 0)
	maximum = 0.15 (at node 11)
Injected flit rate average = 0.0090625
	minimum = 0.004 (at node 4)
	maximum = 0.013 (at node 14)
Accepted flit rate average= 0.009375
	minimum = 0 (at node 0)
	maximum = 0.15 (at node 11)
Injected packet length average = 1
Accepted packet length average = 1
Total in-flight flits = 3 (3 measured)
latency change    = 8.20692e-05
throughput change = 0.146667
Class 0:
Packet latency average = 19.3257
	minimum = 7
	maximum = 37
Network latency average = 19.3257
	minimum = 7
	maximum = 37
Slowest packet = 14115
Flit latency average = 19.4103
	minimum = 7
	maximum = 37
Slowest flit = 14115
Fragmentation average = 0
	minimum = 0
	maximum = 0
Injected packet rate average = 0.009625
	minimum = 0.0055 (at node 6)
	maximum = 0.0125 (at node 7)
Accepted packet rate average = 0.00975
	minimum = 0 (at node 0)
	maximum = 0.156 (at node 11)
Injected flit rate average = 0.009625
	minimum = 0.0055 (at node 6)
	maximum = 0.0125 (at node 7)
Accepted flit rate average= 0.00975
	minimum = 0 (at node 0)
	maximum = 0.156 (at node 11)
Injected packet length average = 1
Accepted packet length average = 1
Total in-flight flits = 4 (4 measured)
latency change    = 0.0190375
throughput change = 0.0384615
Class 0:
Packet latency average = 19.4405
	minimum = 7
	maximum = 37
Network latency average = 19.4405
	minimum = 7
	maximum = 37
Slowest packet = 14115
Flit latency average = 19.4957
	minimum = 7
	maximum = 37
Slowest flit = 14115
Fragmentation average = 0
	minimum = 0
	maximum = 0
Injected packet rate average = 0.0095
	minimum = 0.00566667 (at node 6)
	maximum = 0.012 (at node 1)
Accepted packet rate average = 0.009625
	minimum = 0 (at node 0)
	maximum = 0.154 (at node 11)
Injected flit rate average = 0.0095
	minimum = 0.00566667 (at node 6)
	maximum = 0.012 (at node 1)
Accepted flit rate average= 0.009625
	minimum = 0 (at node 0)
	maximum = 0.154 (at node 11)
Injected packet length average = 1
Accepted packet length average = 1
Total in-flight flits = 2 (2 measured)
latency change    = 0.00590883
throughput change = 0.012987
Class 0:
Packet latency average = 19.6886
	minimum = 7
	maximum = 37
Network latency average = 19.6886
	minimum = 7
	maximum = 37
Slowest packet = 14115
Flit latency average = 19.7268
	minimum = 7
	maximum = 37
Slowest flit = 14115
Fragmentation average = 0
	minimum = 0
	maximum = 0
Injected packet rate average = 0.00954687
	minimum = 0.00625 (at node 6)
	maximum = 0.0135 (at node 13)
Accepted packet rate average = 0.00960937
	minimum = 0 (at node 0)
	maximum = 0.15375 (at node 11)
Injected flit rate average = 0.00954687
	minimum = 0.00625 (at node 6)
	maximum = 0.0135 (at node 13)
Accepted flit rate average= 0.00960937
	minimum = 0 (at node 0)
	maximum = 0.15375 (at node 11)
Injected packet length average = 1
Accepted packet length average = 1
Total in-flight flits = 4 (4 measured)
latency change    = 0.0126014
throughput change = 0.00162602
Draining all recorded packets ...
Draining remaining packets ...
Time taken is 7051 cycles
Class 0:
Packet latency average = 19.8519
	minimum = 7
	maximum = 38
Network latency average = 19.8519
	minimum = 7
	maximum = 38
Slowest packet = 14535
Flit latency average = 19.8519
	minimum = 7
	maximum = 38
Slowest flit = 14535
Fragmentation average = 0
	minimum = 0
	maximum = 0
Injected packet rate average = 0.0103125
	minimum = 0.006 (at node 7)
	maximum = 0.013 (at node 5)
Accepted packet rate average = 0.010125
	minimum = 0 (at node 0)
	maximum = 0.162 (at node 11)
Injected flit rate average = 0.0103125
	minimum = 0.006 (at node 7)
	maximum = 0.013 (at node 5)
Accepted flit rate average= 0.010125
	minimum = 0 (at node 0)
	maximum = 0.162 (at node 11)
Injected packet length average = 1
Accepted packet length average = 1
Total in-flight flits = 3 (0 measured)
latency change    = 1
throughput change = 1
Class 0:
Packet latency average = 19.9125
	minimum = 7
	maximum = 38
Network latency average = 19.9125
	minimum = 7
	maximum = 38
Slowest packet = 14535
Flit latency average = 19.9125
	minimum = 7
	maximum = 38
Slowest flit = 14535
Fragmentation average = 0
	minimum = 0
	maximum = 0
Injected packet rate average = 0.0100625
	minimum = 0.0075 (at node 9)
	maximum = 0.0135 (at node 15)
Accepted packet rate average = 0.01
	minimum = 0 (at node 0)
	maximum = 0.16 (at node 11)
Injected flit rate average = 0.0100625
	minimum = 0.0075 (at node 9)
	maximum = 0.0135 (at node 15)
Accepted flit rate average= 0.01
	minimum = 0 (at node 0)
	maximum = 0.16 (at node 11)
Injected packet length average = 1
Accepted packet length average = 1
Total in-flight flits = 2 (0 measured)
latency change    = 0.00304573
throughput change = 0.0125
Class 0:
Packet latency average = 20.0361
	minimum = 7
	maximum = 32
Network latency average = 20.0361
	minimum = 7
	maximum = 32
Slowest packet = 14799
Flit latency average = 20.0361
	minimum = 7
	maximum = 32
Slowest flit = 14799
Fragmentation average = 0
	minimum = 0
	maximum = 0
Injected packet rate average = 0.0104375
	minimum = 0.007 (at node 3)
	maximum = 0.017 (at node 12)
Accepted packet rate average = 0.010375
	minimum = 0 (at node 0)
	maximum = 0.166 (at node 11)
Injected flit rate average = 0.0104375
	minimum = 0.007 (at node 3)
	maximum = 0.017 (at node 12)
Accepted flit rate average= 0.010375
	minimum = 0 (at node 0)
	maximum = 0.166 (at node 11)
Injected packet length average = 1
Accepted packet length average = 1
Total in-flight flits = 3 (0 measured)
latency change    = 0.00617108
throughput change = 0.0361446
Warmed up ...Time used is 3000 cycles
Class 0:
[...]
	minimum = 7
	maximum = 33
Network latency average = 19.1742
	minimum = 7
	maximum = 33
Slowest packet = 115592
Flit latency average = 19.1742
	minimum = 7
	maximum = 33
Slowest flit = 115592
Fragmentation average = 0
	minimum = 0
	maximum = 0
Injected packet rate average = 0.011125
	minimum = 0.007 (at node 6)
	maximum = 0.018 (at node 7)
Accepted packet rate average = 0.011125
	minimum = 0 (at node 0)
	maximum = 0.178 (at node 11)
Injected flit rate average = 0.011125
	minimum = 0.007 (at node 6)
	maximum = 0.018 (at node 7)
Accepted flit rate average= 0.011125
	minimum = 0 (at node 0)
	maximum = 0.178 (at node 11)
Injected packet length average = 1
Accepted packet length average = 1
Total in-flight flits = 5 (0 measured)
latency change    = 0.0184426
throughput change = 0.0898876
Warmed up ...Time used is 3000 cycles
Class 0:
Packet latency average = 19.8071
	minimum = 7
	maximum = 33
Network latency average = 19.8071
	minimum = 7
	maximum = 33
Slowest packet = 115735
Flit latency average = 19.8828
	minimum = 7
	maximum = 33
Slowest flit = 115735
Fragmentation average = 0
	minimum = 0
	maximum = 0
Injected packet rate average = 0.0088125
	minimum = 0.003 (at node 2)
	maximum = 0.015 (at node 13)
Accepted packet rate average = 0.0090625
	minimum = 0 (at node 0)
	maximum = 0.145 (at node 11)
Injected flit rate average = 0.0088125
	minimum = 0.003 (at node 2)
	maximum = 0.015 (at node 13)
Accepted flit rate average= 0.0090625
	minimum = 0 (at node 0)
	maximum = 0.145 (at node 11)
Injected packet length average = 1
Accepted packet length average = 1
Total in-flight flits = 1 (1 measured)
latency change    = 0.0319574
throughput change = 0.227586
Class 0:
Packet latency average = 19.3694
	minimum = 7
	maximum = 36
Network latency average = 19.3694
	minimum = 7
	maximum = 36
Slowest packet = 115905
Flit latency average = 19.4107
	minimum = 7
	maximum = 36
Slowest flit = 115905
Fragmentation average = 0
	minimum = 0
	maximum = 0
Injected packet rate average = 0.00990625
	minimum = 0.0075 (at node 5)
	maximum = 0.0125 (at node 13)
Accepted packet rate average = 0.00996875
	minimum = 0 (at node 0)
	maximum = 0.1595 (at node 11)
Injected flit rate average = 0.00990625
	minimum = 0.0075 (at node 5)
	maximum = 0.0125 (at node 13)
Accepted flit rate average= 0.00996875
	minimum = 0 (at node 0)
	maximum = 0.1595 (at node 11)
Injected packet length average = 1
Accepted packet length average = 1
Total in-flight flits = 3 (3 measured)
latency change    = 0.0225983
throughput change = 0.0909091
Class 0:
Packet latency average = 19.5538
	minimum = 7
	maximum = 36
Network latency average = 19.5538
	minimum = 7
	maximum = 36
Slowest packet = 115905
Flit latency average = 19.5779
	minimum = 7
	maximum = 36
Slowest flit = 115905
Fragmentation average = 0
	minimum = 0
	maximum = 0
Injected packet rate average = 0.0105
	minimum = 0.009 (at node 7)
	maximum = 0.0123333 (at node 3)
Accepted packet rate average = 0.0105625
	minimum = 0 (at node 0)
	maximum = 0.169 (at node 11)
Injected flit rate average = 0.0105
	minimum = 0.009 (at node 7)
	maximum = 0.0123333 (at node 3)
Accepted flit rate average= 0.0105625
	minimum = 0 (at node 0)
	maximum = 0.169 (at node 11)
Injected packet length average = 1
Accepted packet length average = 1
Total in-flight flits = 2 (2 measured)
latency change    = 0.00942826
throughput change = 0.056213
Class 0:
Packet latency average = 19.6832
	minimum = 7
	maximum = 36
Network latency average = 19.6832
	minimum = 7
	maximum = 36
Slowest packet = 115905
Flit latency average = 19.7004
	minimum = 7
	maximum = 36
Slowest flit = 115905
Fragmentation average = 0
	minimum = 0
	maximum = 0
Injected packet rate average = 0.0105
	minimum = 0.009 (at node 15)
	maximum = 0.0125 (at node 12)
Accepted packet rate average = 0.0104844
	minimum = 0 (at node 0)
	maximum = 0.16775 (at node 11)
Injected flit rate average = 0.0105
	minimum = 0.009 (at node 15)
	maximum = 0.0125 (at node 12)
Accepted flit rate average= 0.0104844
	minimum = 0 (at node 0)
	maximum = 0.16775 (at node 11)
Injected packet length average = 1
Accepted packet length average = 1
Total in-flight flits = 6 (6 measured)
latency change    = 0.00657405
throughput change = 0.00745156
Class 0:
Packet latency average = 19.4903
	minimum = 7
	maximum = 36
Network latency average = 19.4903
	minimum = 7
	maximum = 36
Slowest packet = 115905
Flit latency average = 19.5054
	minimum = 7
	maximum = 36
Slowest flit = 115905
Fragmentation average = 0
	minimum = 0
	maximum = 0
Injected packet rate average = 0.0103875
	minimum = 0.0088 (at node 0)
	maximum = 0.0128 (at node 11)
Accepted packet rate average = 0.0104125
	minimum = 0 (at node 0)
	maximum = 0.1666 (at node 11)
Injected flit rate average = 0.0103875
	minimum = 0.0088 (at node 0)
	maximum = 0.0128 (at node 11)
Accepted flit rate average= 0.0104125
	minimum = 0 (at node 0)
	maximum = 0.1666 (at node 11)
Injected packet length average = 1
Accepted packet length average = 1
Total in-flight flits = 3 (3 measured)
latency change    = 0.00989439
throughput change = 0.00690276
Class 0:
Packet latency average = 19.445
	minimum = 7
	maximum = 36
Network latency average = 19.445
	minimum = 7
	maximum = 36
Slowest packet = 115905
Flit latency average = 19.4577
	minimum = 7
	maximum = 36
Slowest flit = 115905
Fragmentation average = 0
	minimum = 0
	maximum = 0
Injected packet rate average = 0.0104792
	minimum = 0.00883333 (at node 0)
	maximum = 0.0135 (at node 11)
Accepted packet rate average = 0.0104688
	minimum = 0 (at node 0)
	maximum = 0.1675 (at node 11)
Injected flit rate average = 0.0104792
	minimum = 0.00883333 (at node 0)
	maximum = 0.0135 (at node 11)
Accepted flit rate average= 0.0104688
	minimum = 0 (at node 0)
	maximum = 0.1675 (at node 11)
Injected packet length average = 1
Accepted packet length average = 1
Total in-flight flits = 6 (6 measured)
latency change    = 0.00233161
throughput change = 0.00537313
Draining all recorded packets ...
Draining remaining packets ...
Time taken is 9037 cycles
Class 0:
Packet latency average = 19.3293
	minimum = 7
	maximum = 33
Network latency average = 19.3293
	minimum = 7
	maximum = 33
Slowest packet = 116763
Flit latency average = 19.3293
	minimum = 7
	maximum = 33
Slowest flit = 116763
Fragmentation average = 0
	minimum = 0
	maximum = 0
Injected packet rate average = 0.010625
	minimum = 0.007 (at node 8)
	maximum = 0.02 (at node 7)
Accepted packet rate average = 0.0104375
	minimum = 0 (at node 0)
	maximum = 0.167 (at node 11)
Injected flit rate average = 0.010625
	minimum = 0.007 (at node 8)
	maximum = 0.02 (at node 7)
Accepted flit rate average= 0.0104375
	minimum = 0 (at node 0)
	maximum = 0.167 (at node 11)
Injected packet length average = 1
Accepted packet length average = 1
Total in-flight flits = 3 (0 measured)
latency change    = 1
throughput change = 1
Class 0:
Packet latency average = 19.4973
	minimum = 7
	maximum = 33
Network latency average = 19.4973
	minimum = 7
	maximum = 33
Slowest packet = 116763
Flit latency average = 19.4973
	minimum = 7
	maximum = 33
Slowest flit = 116763
Fragmentation average = 0
	minimum = 0
	maximum = 0
Injected packet rate average = 0.0116562
	minimum = 0.009 (at node 2)
	maximum = 0.019 (at node 7)
Accepted packet rate average = 0.0115
	minimum = 0 (at node 0)
	maximum = 0.184 (at node 11)
Injected flit rate average = 0.0116562
	minimum = 0.009 (at node 2)
	maximum = 0.019 (at node 7)
Accepted flit rate average= 0.0115
	minimum = 0 (at node 0)
	maximum = 0.184 (at node 11)
Injected packet length average = 1
Accepted packet length average = 1
Total in-flight flits = 5 (0 measured)
latency change    = 0.00861357
throughput change = 0.0923913
Class 0:
Packet latency average = 19.1267
	minimum = 7
	maximum = 35
Network latency average = 19.1267
	minimum = 7
	maximum = 35
Slowest packet = 117183
Flit latency average = 19.1267
	minimum = 7
	maximum = 35
Slowest flit = 117183
Fragmentation average = 0
	minimum = 0
	maximum = 0
Injected packet rate average = 0.00925
	minimum = 0.006 (at node 8)
	maximum = 0.014 (at node 11)
Accepted packet rate average = 0.009375
	minimum = 0 (at node 0)
	maximum = 0.15 (at node 11)
Injected flit rate average = 0.00925
	minimum = 0.006 (at node 8)
	maximum = 0.014 (at node 11)
Accepted flit rate average= 0.009375
	minimum = 0 (at node 0)
	maximum = 0.15 (at node 11)
Injected packet length average = 1
Accepted packet length average = 1
Total in-flight flits = 3 (0 measured)
latency change    = 0.0193769
throughput change = 0.226667
Warmed up ...Time used is 3000 cycles
Class 0:
Packet latency average = 20.0179
	minimum = 7
	maximum = 36
Network latency average = 20.0179
	minimum = 7
	maximum = 36
Slowest packet = 117328
Flit latency average = 20.0526
	minimum = 7
	maximum = 36
Slowest flit = 117328
Fragmentation average = 0
	minimum = 0
	maximum = 0
Injected packet rate average = 0.0105625
	minimum = 0.006 (at node 3)
	maximum = 0.015 (at node 0)
Accepted packet rate average = 0.0106875
	minimum = 0 (at node 0)
	maximum = 0.171 (at node 11)
Injected flit rate average = 0.0105625
	minimum = 0.006 (at node 3)
	maximum = 0.015 (at node 0)
Accepted flit rate average= 0.0106875
	minimum = 0 (at node 0)
	maximum = 0.171 (at node 11)
Injected packet length average = 1
Accepted packet length average = 1
Total in-flight flits = 1 (1 measured)
latency change    = 0.0445198
throughput change = 0.122807
Class 0:
Packet latency average = 19.7493
	minimum = 7
	maximum = 36
Network latency average = 19.7493
	minimum = 7
	maximum = 36
Slowest packet = 117328
Flit latency average = 19.7684
	minimum = 7
	maximum = 36
Slowest flit = 117328
Fragmentation average = 0
	minimum = 0
	maximum = 0
Injected packet rate average = 0.0110312
	minimum = 0.006 (at node 3)
	maximum = 0.0135 (at node 11)
Accepted packet rate average = 0.0110625
	minimum = 0 (at node 0)
	maximum = 0.177 (at node 11)
Injected flit rate average = 0.0110312
	minimum = 0.006 (at node 3)
	maximum = 0.0135 (at node 11)
Accepted flit rate average= 0.0110625
	minimum = 0 (at node 0)
	maximum = 0.177 (at node 11)
Injected packet length average = 1
Accepted packet length average = 1
Total in-flight flits = 2 (2 measured)
latency change    = 0.0135989
throughput change = 0.0338983
Class 0:
Packet latency average = 19.3216
	minimum = 7
	maximum = 36
Network latency average = 19.3216
	minimum = 7
	maximum = 36
Slowest packet = 117328
Flit latency average = 19.3372
	minimum = 7
	maximum = 36
Slowest flit = 117328
Fragmentation average = 0
	minimum = 0
	maximum = 0
Injected packet rate average = 0.0107292
	minimum = 0.00833333 (at node 3)
	maximum = 0.0136667 (at node 11)
Accepted packet rate average = 0.01075
	minimum = 0 (at node 0)
	maximum = 0.172 (at node 11)
Injected flit rate average = 0.0107292
	minimum = 0.00833333 (at node 3)
	maximum = 0.0136667 (at node 11)
Accepted flit rate average= 0.01075
	minimum = 0 (at node 0)
	maximum = 0.172 (at node 11)
Injected packet length average = 1
Accepted packet length average = 1
Total in-flight flits = 2 (2 measured)
latency change    = 0.0221332
throughput change = 0.0290698
Class 0:
Packet latency average = 19.3115
	minimum = 7
	maximum = 36
Network latency average = 19.3115
	minimum = 7
	maximum = 36
Slowest packet = 117328
Flit latency average = 19.3232
	minimum = 7
	maximum = 36
Slowest flit = 117328
Fragmentation average = 0
	minimum = 0
	maximum = 0
Injected packet rate average = 0.0108125
	minimum = 0.008 (at node 4)
	maximum = 0.0135 (at node 11)
Accepted packet rate average = 0.0107812
	minimum = 0 (at node 0)
	maximum = 0.1725 (at node 11)
Injected flit rate average = 0.0108125
	minimum = 0.008 (at node 4)
	maximum = 0.0135 (at node 11)
Accepted flit rate average= 0.0107812
	minimum = 0 (at node 0)
	maximum = 0.1725 (at node 11)
Injected packet length average = 1
Accepted packet length average = 1
Total in-flight flits = 5 (5 measured)
latency change    = 0.00052498
throughput change = 0.00289855
Draining all recorded packets ...
Draining remaining packets ...
Time taken is 7036 cycles
Class 0:
Packet latency average = 20.4074
	minimum = 7
	maximum = 42
Network latency average = 20.4074
	minimum = 7
	maximum = 42
Slowest packet = 118051
Flit latency average = 20.4074
	minimum = 7
	maximum = 42
Slowest flit = 118051
Fragmentation average = 0
	minimum = 0
	maximum = 0
Injected packet rate average = 0.0103125
	minimum = 0.005 (at node 3)
	maximum = 0.015 (at node 8)
Accepted packet rate average = 0.010125
	minimum = 0 (at node 0)
	maximum = 0.162 (at node 11)
Injected flit rate average = 0.0103125
	minimum = 0.005 (at node 3)
	maximum = 0.015 (at node 8)
Accepted flit rate average= 0.010125
	minimum = 0 (at node 0)
	maximum = 0.162 (at node 11)
Injected packet length average = 1
Accepted packet length average = 1
Total in-flight flits = 3 (0 measured)
latency change    = 1
throughput change = 1
Class 0:
Packet latency average = 20.0423
	minimum = 7
	maximum = 42
Network latency average = 20.0423
	minimum = 7
	maximum = 42
Slowest packet = 118051
Flit latency average = 20.0423
	minimum = 7
	maximum = 42
Slowest flit = 118051
Fragmentation average = 0
	minimum = 0
	maximum = 0
Injected packet rate average = 0.00965625
	minimum = 0.0045 (at node 3)
	maximum = 0.0135 (at node 0)
Accepted packet rate average = 0.00959375
	minimum = 0 (at node 0)
	maximum = 0.1535 (at node 11)
Injected flit rate average = 0.00965625
	minimum = 0.0045 (at node 3)
	maximum = 0.0135 (at node 0)
Accepted flit rate average= 0.00959375
	minimum = 0 (at node 0)
	maximum = 0.1535 (at node 11)
Injected packet length average = 1
Accepted packet length average = 1
Total in-flight flits = 2 (0 measured)
latency change    = 0.0182145
throughput change = 0.0553746
Class 0:
Packet latency average = 20
	minimum = 7
	maximum = 33
Network latency average = 20
	minimum = 7
	maximum = 33
Slowest packet = 118284
Flit latency average = 20
	minimum = 7
	maximum = 33
Slowest flit = 118284
Fragmentation average = 0
	minimum = 0
	maximum = 0
Injected packet rate average = 0.009875
	minimum = 0.006 (at node 4)
	maximum = 0.013 (at node 1)
Accepted packet rate average = 0.0099375
	minimum = 0 (at node 0)
	maximum = 0.159 (at node 11)
Injected flit rate average = 0.009875
	minimum = 0.006 (at node 4)
	maximum = 0.013 (at node 1)
Accepted flit rate average= 0.0099375
	minimum = 0 (at node 0)
	maximum = 0.159 (at node 11)
Injected packet length average = 1
Accepted packet length average = 1
Total in-flight flits = 1 (0 measured)
latency change    = 0.00211726
throughput change = 0.0345912
Warmed up ...Time used is 3000 cycles
Class 0:
Packet latency average = 19.4251
	minimum = 7
	maximum = 33
Network latency average = 19.4251
	minimum = 7
	maximum = 33
Slowest packet = 118493
Flit latency average = 19.381
	minimum = 7
	maximum = 33
Slowest flit = 118493
Fragmentation average = 0
	minimum = 0
	maximum = 0
Injected packet rate average = 0.010625
	minimum = 0.006 (at node 15)
	maximum = 0.018 (at node 13)
Accepted packet rate average = 0.0105
	minimum = 0 (at node 0)
	maximum = 0.168 (at node 11)
Injected flit rate average = 0.010625
	minimum = 0.006 (at node 15)
	maximum = 0.018 (at node 13)
Accepted flit rate average= 0.0105
	minimum = 0 (at node 0)
	maximum = 0.168 (at node 11)
Injected packet length average = 1
Accepted packet length average = 1
Total in-flight flits = 3 (3 measured)
latency change    = 0.0295931
throughput change = 0.0535714
Class 0:
Packet latency average = 19.978
	minimum = 7
	maximum = 33
Network latency average = 19.978
	minimum = 7
	maximum = 33
Slowest packet = 118493
Flit latency average = 19.953
	minimum = 7
	maximum = 33
Slowest flit = 118493
Fragmentation average = 0
	minimum = 0
	maximum = 0
Injected packet rate average = 0.010125
	minimum = 0.0055 (at node 15)
	maximum = 0.016 (at node 13)
Accepted packet rate average = 0.00996875
	minimum = 0 (at node 0)
	maximum = 0.1595 (at node 11)
Injected flit rate average = 0.010125
	minimum = 0.0055 (at node 15)
	maximum = 0.016 (at node 13)
Accepted flit rate average= 0.00996875
	minimum = 0 (at node 0)
	maximum = 0.1595 (at node 11)
Injected packet length average = 1
Accepted packet length average = 1
Total in-flight flits = 6 (6 measured)
latency change    = 0.0276723
throughput change = 0.0532915
Class 0:
Packet latency average = 19.8264
	minimum = 7
	maximum = 33
Network latency average = 19.8264
	minimum = 7
	maximum = 33
Slowest packet = 118493
Flit latency average = 19.8103
	minimum = 7
	maximum = 33
Slowest flit = 118493
Fragmentation average = 0
	minimum = 0
	maximum = 0
Injected packet rate average = 0.0101875
	minimum = 0.007 (at node 6)
	maximum = 0.014 (at node 9)
Accepted packet rate average = 0.0101042
	minimum = 0 (at node 0)
	maximum = 0.161667 (at node 11)
Injected flit rate average = 0.0101875
	minimum = 0.007 (at node 6)
	maximum = 0.014 (at node 9)
Accepted flit rate average= 0.0101042
	minimum = 0 (at node 0)
	maximum = 0.161667 (at node 11)
Injected packet length average = 1
Accepted packet length average = 1
Total in-flight flits = 5 (5 measured)
latency change    = 0.00764338
throughput change = 0.0134021
Class 0:
Packet latency average = 19.962
	minimum = 7
	maximum = 34
Network latency average = 19.962
	minimum = 7
	maximum = 34
Slowest packet = 119044
Flit latency average = 19.9494
	minimum = 7
	maximum = 34
Slowest flit = 119044
Fragmentation average = 0
	minimum = 0
	maximum = 0
Injected packet rate average = 0.00992188
	minimum = 0.0065 (at node 15)
	maximum = 0.0135 (at node 9)
Accepted packet rate average = 0.00989063
	minimum = 0 (at node 0)
	maximum = 0.15825 (at node 11)
Injected flit rate average = 0.00992188
	minimum = 0.0065 (at node 15)
	maximum = 0.0135 (at node 9)
Accepted flit rate average= 0.00989063
	minimum = 0 (at node 0)
	maximum = 0.15825 (at node 11)
Injected packet length average = 1
Accepted packet length average = 1
Total in-flight flits = 3 (3 measured)
latency change    = 0.00679185
throughput change = 0.0215903
Class 0:
Packet latency average = 19.8357
	minimum = 7
	maximum = 34
Network latency average = 19.8357
	minimum = 7
	maximum = 34
Slowest packet = 119044
Flit latency average = 19.8255
	minimum = 7
	maximum = 34
Slowest flit = 119044
Fragmentation average = 0
	minimum = 0
	maximum = 0
Injected packet rate average = 0.0095875
	minimum = 0.0064 (at node 15)
	maximum = 0.0122 (at node 9)
Accepted packet rate average = 0.0096
	minimum = 0 (at node 0)
	maximum = 0.1536 (at node 11)
Injected flit rate average = 0.0095875
	minimum = 0.0064 (at node 15)
	maximum = 0.0122 (at node 9)
Accepted flit rate average= 0.0096
	minimum = 0 (at node 0)
	maximum = 0.1536 (at node 11)
Injected packet length average = 1
Accepted packet length average = 1
Total in-flight flits = 0 (0 measured)
latency change    = 0.00636739
throughput change = 0.0302734
Draining all recorded packets ...
Draining remaining packets ...
Time taken is 8001 cycles
====== Overall Traffic Statistics ======
====== Traffic class 0 ======
Packet latency average = 19.6853 (100 samples)
	minimum = 7 (100 samples)
	maximum = 35.12 (100 samples)
Network latency average = 19.6853 (100 samples)
	minimum = 7 (100 samples)
	maximum = 35.12 (100 samples)
Flit latency average = 19.6979 (100 samples)
	minimum = 7 (100 samples)
	maximum = 35.19 (100 samples)
Fragmentation average = 0 (100 samples)
	minimum = 0 (100 samples)
	maximum = 0 (100 samples)
Injected packet rate average = 0.0100535 (100 samples)
	minimum = 0.00735529 (100 samples)
	maximum = 0.0130627 (100 samples)
Accepted packet rate average = 0.0100587 (100 samples)
	minimum = 0 (100 samples)
	maximum = 0.160939 (100 samples)
Injected flit rate average = 0.0100535 (100 samples)
	minimum = 0.00735529 (100 samples)
	maximum = 0.0130627 (100 samples)
Accepted flit rate average = 0.0100587 (100 samples)
	minimum = 0 (100 samples)
	maximum = 0.160939 (100 samples)
Injected packet size average = 1 (100 samples)
Accepted packet size average = 1 (100 samples)
Hops average = 3.50374 (100 samples)
Total run time 4.48138
