BEGIN Configuration File: /tmp/tmpsmlixc1y.cfg
topology = mesh;
k = 4;
n = 2;
routing_function = min_adapt;
num_vcs = 4;
vc_buf_size = 4;
wait_for_tail_credit = 1;
vc_allocator = islip;
sw_allocator = islip;
alloc_iters = 1;
credit_delay = 2;
routing_delay = 1;
vc_alloc_delay = 1;
sw_alloc_delay = 1;
input_speedup = 2;
output_speedup = 1;
internal_speedup = 1.0;
traffic = uniform;
packet_size = 1;
sim_type = latency;
injection_rate = 0.02;
warmup_periods = 3;
sample_period = 1000;
sim_count = 100;
seed = 1;

END Configuration File: /tmp/tmpsmlixc1y.cfg
Class 0:
Packet latency average = 20.5929
	minimum = 7
	maximum = 39
Network latency average = 20.5929
	minimum = 7
	maximum = 39
Slowest packet = 254
Flit latency average = 20.5929
	minimum = 7
	maximum = 39
Slowest flit = 254
Fragmentation average = 0
	minimum = 0
	maximum = 0
Injected packet rate average = 0.019875
	minimum = 0.012 (at node 8)
	maximum = 0.031 (at node 0)
Accepted packet rate average = 0.0195
	minimum = 0.014 (at node 6)
	maximum = 0.025 (at node 9)
Injected flit rate average = 0.019875
	minimum = 0.012 (at node 8)
	maximum = 0.031 (at node 0)
Accepted flit rate average= 0.0195
	minimum = 0.014 (at node 6)
	maximum = 0.025 (at node 9)
Injected packet length average = 1
Accepted packet length average = 1
Total in-flight flits = 6 (0 measured)
latency change    = 1
throughput change = 1
Class 0:
Packet latency average = 19.9828
	minimum = 7
	maximum = 50
Network latency average = 19.9828
	minimum = 7
	maximum = 50
Slowest packet = 579
Flit latency average = 19.9828
	minimum = 7
	maximum = 50
Slowest flit = 579
Fragmentation average = 0
	minimum = 0
	maximum = 0
Injected packet rate average = 0.0201563
	minimum = 0.0155 (at node 2)
	maximum = 0.025 (at node 0)
Accepted packet rate average = 0.0199375
	minimum = 0.014 (at node 6)
	maximum = 0.0245 (at node 15)
Injected flit rate average = 0.0201563
	minimum = 0.0155 (at node 2)
	maximum = 0.025 (at node 0)
Accepted flit rate average= 0.0199375
	minimum = 0.014 (at node 6)
	maximum = 0.0245 (at node 15)
Injected packet length average = 1
Accepted packet length average = 1
Total in-flight flits = 7 (0 measured)
latency change    = 0.0305358
throughput change = 0.0219436
Class 0:
Packet latency average = 19.3813
	minimum = 7
	maximum = 52
Network latency average = 19.3813
	minimum = 7
	maximum = 52
Slowest packet = 857
Flit latency average = 19.3813
	minimum = 7
	maximum = 52
Slowest flit = 857
Fragmentation average = 0
	minimum = 0
	maximum = 0
Injected packet rate average = 0.0198125
	minimum = 0.01 (at node 0)
	maximum = 0.027 (at node 14)
Accepted packet rate average = 0.02
	minimum = 0.012 (at node 6)
	maximum = 0.027 (at node 4)
Injected flit rate average = 0.0198125
	minimum = 0.01 (at node 0)
	maximum = 0.027 (at node 14)
Accepted flit rate average= 0.02
	minimum = 0.012 (at node 6)
	maximum = 0.027 (at node 4)
Injected packet length average = 1
Accepted packet length average = 1
Total in-flight flits = 4 (0 measured)
latency change    = 0.0310356
throughput change = 0.003125
Warmed up ...Time used is 3000 cycles
Class 0:
Packet latency average = 20.09
	minimum = 7
	maximum = 42
Network latency average = 20.09
	minimum = 7
	maximum = 42
Slowest packet = 970
Flit latency average = 20.146
	minimum = 7
	maximum = 42
Slowest flit = 970
Fragmentation average = 0
	minimum = 0
	maximum = 0
Injected packet rate average = 0.0196875
	minimum = 0.015 (at node 0)
	maximum = 0.031 (at node 5)
Accepted packet rate average = 0.0196875
	minimum = 0.011 (at node 6)
	maximum = 0.027 (at node 2)
Injected flit rate average = 0.0196875
	minimum = 0.015 (at node 0)
	maximum = 0.031 (at node 5)
Accepted flit rate average= 0.0196875
	minimum = 0.011 (at node 6)
	maximum = 0.027 (at node 2)
Injected packet length average = 1
Accepted packet length average = 1
Total in-flight flits = 4 (4 measured)
latency change    = 0.0352803
throughput change = 0.015873
Class 0:
Packet latency average = 19.7837
	minimum = 7
	maximum = 48
Network latency average = 19.7837
	minimum = 7
	maximum = 48
Slowest packet = 1413
Flit latency average = 19.8131
	minimum = 7
	maximum = 48
Slowest flit = 1413
Fragmentation average = 0
	minimum = 0
	maximum = 0
Injected packet rate average = 0.0201875
	minimum = 0.0155 (at node 9)
	maximum = 0.025 (at node 5)
Accepted packet rate average = 0.0200625
	minimum = 0.0125 (at node 7)
	maximum = 0.024 (at node 2)
Injected flit rate average = 0.0201875
	minimum = 0.0155 (at node 9)
	maximum = 0.025 (at node 5)
Accepted flit rate average= 0.0200625
	minimum = 0.0125 (at node 7)
	maximum = 0.024 (at node 2)
Injected packet length average = 1
Accepted packet length average = 1
Total in-flight flits = 8 (8 measured)
latency change    = 0.0154841
throughput change = 0.0186916
Class 0:
Packet latency average = 19.8689
	minimum = 7
	maximum = 48
Network latency average = 19.8689
	minimum = 7
	maximum = 48
Slowest packet = 1413
Flit latency average = 19.8881
	minimum = 7
	maximum = 48
Slowest flit = 1413
Fragmentation average = 0
	minimum = 0
	maximum = 0
Injected packet rate average = 0.0203125
	minimum = 0.0176667 (at node 11)
	maximum = 0.0236667 (at node 3)
Accepted packet rate average = 0.0201042
	minimum = 0.0166667 (at node 7)
	maximum = 0.023 (at node 2)
Injected flit rate average = 0.0203125
	minimum = 0.0176667 (at node 11)
	maximum = 0.0236667 (at node 3)
Accepted flit rate average= 0.0201042
	minimum = 0.0166667 (at node 7)
	maximum = 0.023 (at node 2)
Injected packet length average = 1
Accepted packet length average = 1
Total in-flight flits = 14 (14 measured)
latency change    = 0.00428748
throughput change = 0.00207254
Draining all recorded packets ...
Draining remaining packets ...
Time taken is 6052 cycles
Class 0:
Packet latency average = 19.288
	minimum = 7
	maximum = 42
Network latency average = 19.288
	minimum = 7
	maximum = 42
Slowest packet = 2044
Flit latency average = 19.288
	minimum = 7
	maximum = 42
Slowest flit = 2044
Fragmentation average = 0
	minimum = 0
	maximum = 0
Injected packet rate average = 0.0195
	minimum = 0.012 (at node 14)
	maximum = 0.028 (at node 10)
Accepted packet rate average = 0.0193125
	minimum = 0.014 (at node 12)
	maximum = 0.025 (at node 1)
Injected flit rate average = 0.0195
	minimum = 0.012 (at node 14)
	maximum = 0.028 (at node 10)
Accepted flit rate average= 0.0193125
	minimum = 0.014 (at node 12)
	maximum = 0.025 (at node 1)
Injected packet length average = 1
Accepted packet length average = 1
Total in-flight flits = 3 (0 measured)
latency change    = 1
throughput change = 1
Class 0:
Packet latency average = 19.5103
	minimum = 7
	maximum = 45
Network latency average = 19.5103
	minimum = 7
	maximum = 45
Slowest packet = 2345
Flit latency average = 19.5103
	minimum = 7
	maximum = 45
Slowest flit = 2345
Fragmentation average = 0
	minimum = 0
	maximum = 0
Injected packet rate average = 0.019875
	minimum = 0.016 (at node 3)
	maximum = 0.0255 (at node 10)
Accepted packet rate average = 0.0197188
	minimum = 0.0135 (at node 9)
	maximum = 0.025 (at node 13)
Injected flit rate average = 0.019875
	minimum = 0.016 (at node 3)
	maximum = 0.0255 (at node 10)
Accepted flit rate average= 0.0197188
	minimum = 0.0135 (at node 9)
	maximum = 0.025 (at node 13)
Injected packet length average = 1
Accepted packet length average = 1
Total in-flight flits = 5 (0 measured)
latency change    = 0.0113927
throughput change = 0.0206022
Class 0:
Packet latency average = 20.1624
	minimum = 7
	maximum = 44
Network latency average = 20.1624
	minimum = 7
	maximum = 44
Slowest packet = 2833
Flit latency average = 20.1624
	minimum = 7
	maximum = 44
Slowest flit = 2833
Fragmentation average = 0
	minimum = 0
	maximum = 0
Injected packet rate average = 0.019625
	minimum = 0.016 (at node 14)
	maximum = 0.025 (at node 7)
Accepted packet rate average = 0.019625
	minimum = 0.013 (at node 0)
	maximum = 0.027 (at node 6)
Injected flit rate average = 0.019625
	minimum = 0.016 (at node 14)
	maximum = 0.025 (at node 7)
Accepted flit rate average= 0.019625
	minimum = 0.013 (at node 0)
	maximum = 0.027 (at node 6)
Injected packet length average = 1
Accepted packet length average = 1
Total in-flight flits = 5 (0 measured)
latency change    = 0.0323433
throughput change = 0.00477707
Warmed up ...Time used is 3000 cycles
Class 0:
Packet latency average = 19.9672
	minimum = 7
	maximum = 42
Network latency average = 19.9672
	minimum = 7
	maximum = 42
Slowest packet = 3018
Flit latency average = 20.0548
	minimum = 7
	maximum = 42
Slowest flit = 3018
Fragmentation average = 0
	minimum = 0
	maximum = 0
Injected packet rate average = 0.019375
	minimum = 0.012 (at node 3)
	maximum = 0.026 (at node 1)
Accepted packet rate average = 0.019375
	minimum = 0.013 (at node 2)
	maximum = 0.029 (at node 13)
Injected flit rate average = 0.019375
	minimum = 0.012 (at node 3)
	maximum = 0.026 (at node 1)
Accepted flit rate average= 0.019375
	minimum = 0.013 (at node 2)
	maximum = 0.029 (at node 13)
Injected packet length average = 1
Accepted packet length average = 1
Total in-flight flits = 5 (5 measured)
latency change    = 0.00977639
throughput change = 0.0129032
Class 0:
Packet latency average = 19.8929
	minimum = 7
	maximum = 42
Network latency average = 19.8929
	minimum = 7
	maximum = 42
Slowest packet = 3018
Flit latency average = 19.9379
	minimum = 7
	maximum = 42
Slowest flit = 3018
Fragmentation average = 0
	minimum = 0
	maximum = 0
Injected packet rate average = 0.0190625
	minimum = 0.015 (at node 15)
	maximum = 0.0245 (at node 14)
Accepted packet rate average = 0.019125
	minimum = 0.014 (at node 6)
	maximum = 0.025 (at node 4)
Injected flit rate average = 0.0190625
	minimum = 0.015 (at node 15)
	maximum = 0.0245 (at node 14)
Accepted flit rate average= 0.019125
	minimum = 0.014 (at node 6)
	maximum = 0.025 (at node 4)
Injected packet length average = 1
Accepted packet length average = 1
Total in-flight flits = 3 (3 measured)
latency change    = 0.00373485
throughput change = 0.0130719
Class 0:
Packet latency average = 19.7816
	minimum = 7
	maximum = 44
Network latency average = 19.7816
	minimum = 7
	maximum = 44
Slowest packet = 3535
Flit latency average = 19.8129
	minimum = 7
	maximum = 44
Slowest flit = 3535
Fragmentation average = 0
	minimum = 0
	maximum = 0
Injected packet rate average = 0.0186458
	minimum = 0.0156667 (at node 10)
	maximum = 0.0253333 (at node 9)
Accepted packet rate average = 0.0187083
	minimum = 0.0146667 (at node 7)
	maximum = 0.0216667 (at node 0)
Injected flit rate average = 0.0186458
	minimum = 0.0156667 (at node 10)
	maximum = 0.0253333 (at node 9)
Accepted flit rate average= 0.0187083
	minimum = 0.0146667 (at node 7)
	maximum = 0.0216667 (at node 0)
Injected packet length average = 1
Accepted packet length average = 1
Total in-flight flits = 2 (2 measured)
latency change    = 0.00562547
throughput change = 0.0222717
Draining all recorded packets ...
Draining remaining packets ...
Time taken is 6030 cycles
Class 0:
Packet latency average = 19.7373
	minimum = 7
	maximum = 40
Network latency average = 19.7373
	minimum = 7
	maximum = 40
Slowest packet = 4093
Flit latency average = 19.7373
	minimum = 7
	maximum = 40
Slowest flit = 4093
Fragmentation average = 0
	minimum = 0
	maximum = 0
Injected packet rate average = 0.02025
	minimum = 0.01 (at node 13)
	maximum = 0.026 (at node 12)
Accepted packet rate average = 0.01975
	minimum = 0.012 (at node 10)
	maximum = 0.027 (at node 2)
Injected flit rate average = 0.02025
	minimum = 0.01 (at node 13)
	maximum = 0.026 (at node 12)
Accepted flit rate average= 0.01975
	minimum = 0.012 (at node 10)
	maximum = 0.027 (at node 2)
Injected packet length average = 1
Accepted packet length average = 1
Total in-flight flits = 8 (0 measured)
latency change    = 1
throughput change = 1
Class 0:
Packet latency average = 19.8013
	minimum = 7
	maximum = 43
Network latency average = 19.8013
	minimum = 7
	maximum = 43
Slowest packet = 4183
Flit latency average = 19.8013
	minimum = 7
	maximum = 43
Slowest flit = 4183
Fragmentation average = 0
	minimum = 0
	maximum = 0
Injected packet rate average = 0.01875
	minimum = 0.016 (at node 2)
	maximum = 0.0225 (at node 12)
Accepted packet rate average = 0.0185625
	minimum = 0.0135 (at node 10)
	maximum = 0.023 (at node 4)
Injected flit rate average = 0.01875
	minimum = 0.016 (at node 2)
	maximum = 0.0225 (at node 12)
Accepted flit rate average= 0.0185625
	minimum = 0.0135 (at node 10)
	maximum = 0.023 (at node 4)
Injected packet length average = 1
Accepted packet length average = 1
Total in-flight flits = 6 (0 measured)
latency change    = 0.00323236
throughput change = 0.0639731
Class 0:
Packet latency average = 19.6447
	minimum = 7
	maximum = 39
Network latency average = 19.6447
	minimum = 7
	maximum = 39
Slowest packet = 4493
Flit latency average = 19.6447
	minimum = 7
	maximum = 39
Slowest flit = 4493
Fragmentation average = 0
	minimum = 0
	maximum = 0
Injected packet rate average = 0.0196875
	minimum = 0.009 (at node 3)
	maximum = 0.028 (at node 12)
Accepted packet rate average = 0.019875
	minimum = 0.014 (at node 10)
	maximum = 0.026 (at node 7)
Injected flit rate average = 0.0196875
	minimum = 0.009 (at node 3)
	maximum = 0.028 (at node 12)
Accepted flit rate average= 0.019875
	minimum = 0.014 (at node 10)
	maximum = 0.026 (at node 7)
Injected packet length average = 1
Accepted packet length average = 1
Total in-flight flits = 3 (0 measured)
latency change    = 0.00797635
throughput change = 0.0660377
Warmed up ...Time used is 3000 cycles
Class 0:
Packet latency average = 19.981
	minimum = 7
	maximum = 41
Network latency average = 19.981
	minimum = 7
	maximum = 41
Slowest packet = 4873
Flit latency average = 20
	minimum = 7
	maximum = 41
Slowest flit = 4873
Fragmentation average = 0
	minimum = 0
	maximum = 0
Injected packet rate average = 0.0200625
	minimum = 0.014 (at node 10)
	maximum = 0.027 (at node 15)
Accepted packet rate average = 0.019875
	minimum = 0.01 (at node 1)
	maximum = 0.026 (at node 15)
Injected flit rate average = 0.0200625
	minimum = 0.014 (at node 10)
	maximum = 0.027 (at node 15)
Accepted flit rate average= 0.019875
	minimum = 0.01 (at node 1)
	maximum = 0.026 (at node 15)
Injected packet length average = 1
Accepted packet length average = 1
Total in-flight flits = 6 (6 measured)
latency change    = 0.0168309
throughput change = 0
Class 0:
Packet latency average = 20.0065
	minimum = 7
	maximum = 47
Network latency average = 20.0065
	minimum = 7
	maximum = 47
Slowest packet = 5130
Flit latency average = 20.0161
	minimum = 7
	maximum = 47
Slowest flit = 5130
Fragmentation average = 0
	minimum = 0
	maximum = 0
Injected packet rate average = 0.0196875
	minimum = 0.015 (at node 0)
	maximum = 0.028 (at node 15)
Accepted packet rate average = 0.0194375
	minimum = 0.0155 (at node 1)
	maximum = 0.0275 (at node 13)
Injected flit rate average = 0.0196875
	minimum = 0.015 (at node 0)
	maximum = 0.028 (at node 15)
Accepted flit rate average= 0.0194375
	minimum = 0.0155 (at node 1)
	maximum = 0.0275 (at node 13)
Injected packet length average = 1
Accepted packet length average = 1
Total in-flight flits = 11 (11 measured)
latency change    = 0.00127507
throughput change = 0.022508
Class 0:
Packet latency average = 19.9761
	minimum = 7
	maximum = 47
Network latency average = 19.9761
	minimum = 7
	maximum = 47
Slowest packet = 5130
Flit latency average = 19.9827
	minimum = 7
	maximum = 47
Slowest flit = 5130
Fragmentation average = 0
	minimum = 0
	maximum = 0
Injected packet rate average = 0.0193333
	minimum = 0.015 (at node 8)
	maximum = 0.025 (at node 15)
Accepted packet rate average = 0.0192292
	minimum = 0.0156667 (at node 10)
	maximum = 0.0246667 (at node 13)
Injected flit rate average = 0.0193333
	minimum = 0.015 (at node 8)
	maximum = 0.025 (at node 15)
Accepted flit rate average= 0.0192292
	minimum = 0.0156667 (at node 10)
	maximum = 0.0246667 (at node 13)
Injected packet length average = 1
Accepted packet length average = 1
Total in-flight flits = 8 (8 measured)
latency change    = 0.00152057
throughput change = 0.0108342
Draining all recorded packets ...
Draining remaining packets ...
Time taken is 6053 cycles
Class 0:
Packet latency average = 20.0091
	minimum = 7
	maximum = 46
Network latency average = 20.0091
	minimum = 7
	maximum = 46
Slowest packet = 5904
Flit latency average = 20.0091
	minimum = 7
	maximum = 46
Slowest flit = 5904
Fragmentation average = 0
	minimum = 0
	maximum = 0
Injected packet rate average = 0.020625
	minimum = 0.015 (at node 2)
	maximum = 0.028 (at node 14)
Accepted packet rate average = 0.0205
	minimum = 0.012 (at node 5)
	maximum = 0.028 (at node 3)
Injected flit rate average = 0.020625
	minimum = 0.015 (at node 2)
	maximum = 0.028 (at node 14)
Accepted flit rate average= 0.0205
	minimum = 0.012 (at node 5)
	maximum = 0.028 (at node 3)
Injected packet length average = 1
Accepted packet length average = 1
Total in-flight flits = 2 (0 measured)
latency change    = 1
throughput change = 1
Class 0:
Packet latency average = 19.8527
	minimum = 7
	maximum = 46
Network latency average = 19.8527
	minimum = 7
	maximum = 46
Slowest packet = 5904
Flit latency average = 19.8527
	minimum = 7
	maximum = 46
Slowest flit = 5904
Fragmentation average = 0
	minimum = 0
	maximum = 0
Injected packet rate average = 0.02025
	minimum = 0.0155 (at node 3)
	maximum = 0.026 (at node 7)
Accepted packet rate average = 0.0201563
	minimum = 0.0155 (at node 14)
	maximum = 0.026 (at node 15)
Injected flit rate average = 0.02025
	minimum = 0.0155 (at node 3)
	maximum = 0.026 (at node 7)
Accepted flit rate average= 0.0201563
	minimum = 0.0155 (at node 14)
	maximum = 0.026 (at node 15)
Injected packet length average = 1
Accepted packet length average = 1
Total in-flight flits = 3 (0 measured)
latency change    = 0.00787969
throughput change = 0.0170543
Class 0:
Packet latency average = 19.9118
	minimum = 7
	maximum = 37
Network latency average = 19.9118
	minimum = 7
	maximum = 37
Slowest packet = 6348
Flit latency average = 19.9118
	minimum = 7
	maximum = 37
Slowest flit = 6348
Fragmentation average = 0
	minimum = 0
	maximum = 0
Injected packet rate average = 0.0195
	minimum = 0.014 (at node 6)
	maximum = 0.026 (at node 11)
Accepted packet rate average = 0.019125
	minimum = 0.012 (at node 12)
	maximum = 0.026 (at node 5)
Injected flit rate average = 0.0195
	minimum = 0.014 (at node 6)
	maximum = 0.026 (at node 11)
Accepted flit rate average= 0.019125
	minimum = 0.012 (at node 12)
	maximum = 0.026 (at node 5)
Injected packet length average = 1
Accepted packet length average = 1
Total in-flight flits = 9 (0 measured)
latency change    = 0.00296566
throughput change = 0.0539216
Warmed up ...Time used is 3000 cycles
Class 0:
Packet latency average = 19.6273
	minimum = 7
	maximum = 64
Network latency average = 19.6273
	minimum = 7
	maximum = 64
Slowest packet = 6774
Flit latency average = 19.7581
	minimum = 7
	maximum = 64
Slowest flit = 6774
Fragmentation average = 0
	minimum = 0
	maximum = 0
Injected packet rate average = 0.0210625
	minimum = 0.013 (at node 14)
	maximum = 0.028 (at node 9)
Accepted packet rate average = 0.0211875
	minimum = 0.013 (at node 7)
	maximum = 0.036 (at node 10)
Injected flit rate average = 0.0210625
	minimum = 0.013 (at node 14)
	maximum = 0.028 (at node 9)
Accepted flit rate average= 0.0211875
	minimum = 0.013 (at node 7)
	maximum = 0.036 (at node 10)
Injected packet length average = 1
Accepted packet length average = 1
Total in-flight flits = 7 (7 measured)
latency change    = 0.0144947
throughput change = 0.0973451
Class 0:
Packet latency average = 19.7889
	minimum = 7
	maximum = 64
Network latency average = 19.7889
	minimum = 7
	maximum = 64
Slowest packet = 6774
Flit latency average = 19.8523
	minimum = 7
	maximum = 64
Slowest flit = 6774
Fragmentation average = 0
	minimum = 0
	maximum = 0
Injected packet rate average = 0.0210313
	minimum = 0.013 (at node 14)
	maximum = 0.027 (at node 2)
Accepted packet rate average = 0.0211563
	minimum = 0.014 (at node 7)
	maximum = 0.03 (at node 10)
Injected flit rate average = 0.0210313
	minimum = 0.013 (at node 14)
	maximum = 0.027 (at node 2)
Accepted flit rate average= 0.0211563
	minimum = 0.014 (at node 7)
	maximum = 0.03 (at node 10)
Injected packet length average = 1
Accepted packet length average = 1
Total in-flight flits = 5 (5 measured)
latency change    = 0.00816868
throughput change = 0.0014771
Class 0:
Packet latency average = 19.6806
	minimum = 7
	maximum = 64
Network latency average = 19.6806
	minimum = 7
	maximum = 64
Slowest packet = 6774
Flit latency average = 19.7239
	minimum = 7
	maximum = 64
Slowest flit = 6774
Fragmentation average = 0
	minimum = 0
	maximum = 0
Injected packet rate average = 0.021125
	minimum = 0.016 (at node 14)
	maximum = 0.0276667 (at node 2)
Accepted packet rate average = 0.021125
	minimum = 0.0156667 (at node 12)
	maximum = 0.029 (at node 10)
Injected flit rate average = 0.021125
	minimum = 0.016 (at node 14)
	maximum = 0.0276667 (at node 2)
Accepted flit rate average= 0.021125
	minimum = 0.0156667 (at node 12)
	maximum = 0.029 (at node 10)
Injected packet length average = 1
Accepted packet length average = 1
Total in-flight flits = 9 (9 measured)
latency change    = 0.00550416
throughput change = 0.00147929
Class 0:
Packet latency average = 19.7428
	minimum = 7
	maximum = 64
Network latency average = 19.7428
	minimum = 7
	maximum = 64
Slowest packet = 6774
Flit latency average = 19.7747
	minimum = 7
	maximum = 64
Slowest flit = 6774
Fragmentation average = 0
	minimum = 0
	maximum = 0
Injected packet rate average = 0.0211875
	minimum = 0.0185 (at node 3)
	maximum = 0.02475 (at node 2)
Accepted packet rate average = 0.0212188
	minimum = 0.01725 (at node 15)
	maximum = 0.029 (at node 10)
Injected flit rate average = 0.0211875
	minimum = 0.0185 (at node 3)
	maximum = 0.02475 (at node 2)
Accepted flit rate average= 0.0212188
	minimum = 0.01725 (at node 15)
	maximum = 0.029 (at node 10)
Injected packet length average = 1
Accepted packet length average = 1
Total in-flight flits = 7 (7 measured)
latency change    = 0.00314927
throughput change = 0.00441826
Draining all recorded packets ...
Draining remaining packets ...
Time taken is 7040 cycles
Class 0:
Packet latency average = 20.1595
	minimum = 7
	maximum = 40
Network latency average = 20.1595
	minimum = 7
	maximum = 40
Slowest packet = 8010
Flit latency average = 20.1595
	minimum = 7
	maximum = 40
Slowest flit = 8010
Fragmentation average = 0
	minimum = 0
	maximum = 0
Injected packet rate average = 0.019375
	minimum = 0.01 (at node 12)
	maximum = 0.034 (at node 10)
Accepted packet rate average = 0.0188125
	minimum = 0.012 (at node 7)
	maximum = 0.027 (at node 3)
Injected flit rate average = 0.019375
	minimum = 0.01 (at node 12)
	maximum = 0.034 (at node 10)
Accepted flit rate average= 0.0188125
	minimum = 0.012 (at node 7)
	maximum = 0.027 (at node 3)
Injected packet length average = 1
Accepted packet length average = 1
Total in-flight flits = 9 (0 measured)
latency change    = 1
throughput change = 1
Class 0:
Packet latency average = 20.003
	minimum = 7
	maximum = 40
Network latency average = 20.003
	minimum = 7
	maximum = 40
Slowest packet = 8010
Flit latency average = 20.003
	minimum = 7
	maximum = 40
Slowest flit = 8010
Fragmentation average = 0
	minimum = 0
	maximum = 0
Injected packet rate average = 0.0207813
	minimum = 0.014 (at node 12)
	maximum = 0.028 (at node 3)
Accepted packet rate average = 0.0205938
	minimum = 0.0165 (at node 5)
	maximum = 0.0255 (at node 9)
Injected flit rate average = 0.0207813
	minimum = 0.014 (at node 12)
	maximum = 0.028 (at node 3)
Accepted flit rate average= 0.0205938
	minimum = 0.0165 (at node 5)
	maximum = 0.0255 (at node 9)
Injected packet length average = 1
Accepted packet length average = 1
Total in-flight flits = 6 (0 measured)
latency change    = 0.00782049
throughput change = 0.0864947
Class 0:
Packet latency average = 19.841
	minimum = 7
	maximum = 48
Network latency average = 19.841
	minimum = 7
	maximum = 48
Slowest packet = 8938
Flit latency average = 19.841
	minimum = 7
	maximum = 48
Slowest flit = 8938
Fragmentation average = 0
	minimum = 0
	maximum = 0
Injected packet rate average = 0.0205625
	minimum = 0.015 (at node 6)
	maximum = 0.028 (at node 11)
Accepted packet rate average = 0.0204375
	minimum = 0.012 (at node 1)
	maximum = 0.028 (at node 15)
Injected flit rate average = 0.0205625
	minimum = 0.015 (at node 6)
	maximum = 0.028 (at node 11)
Accepted flit rate average= 0.0204375
	minimum = 0.012 (at node 1)
	maximum = 0.028 (at node 15)
Injected packet length average = 1
Accepted packet length average = 1
Total in-flight flits = 8 (0 measured)
latency change    = 0.00816776
throughput change = 0.00764526
Warmed up ...Time used is 3000 cycles
Class 0:
Packet latency average = 19.5648
	minimum = 7
	maximum = 44
Network latency average = 19.5648
	minimum = 7
	maximum = 44
Slowest packet = 9151
Flit latency average = 19.5469
	minimum = 7
	maximum = 44
Slowest flit = 9151
Fragmentation average = 0
	minimum = 0
	maximum = 0
Injected packet rate average = 0.019125
	minimum = 0.011 (at node 5)
	maximum = 0.028 (at node 14)
Accepted packet rate average = 0.0193125
	minimum = 0.01 (at node 15)
	maximum = 0.029 (at node 6)
Injected flit rate average = 0.019125
	minimum = 0.011 (at node 5)
	maximum = 0.028 (at node 14)
Accepted flit rate average= 0.0193125
	minimum = 0.01 (at node 15)
	maximum = 0.029 (at node 6)
Injected packet length average = 1
Accepted packet length average = 1
Total in-flight flits = 5 (5 measured)
latency change    = 0.0141169
throughput change = 0.0582524
Class 0:
Packet latency average = 20.1154
	minimum = 7
	maximum = 48
Network latency average = 20.1154
	minimum = 7
	maximum = 48
Slowest packet = 9431
Flit latency average = 20.1003
	minimum = 7
	maximum = 48
Slowest flit = 9431
Fragmentation average = 0
	minimum = 0
	maximum = 0
Injected packet rate average = 0.0205938
	minimum = 0.0145 (at node 5)
	maximum = 0.0275 (at node 8)
Accepted packet rate average = 0.0205625
	minimum = 0.015 (at node 13)
	maximum = 0.027 (at node 5)
Injected flit rate average = 0.0205938
	minimum = 0.0145 (at node 5)
	maximum = 0.0275 (at node 8)
Accepted flit rate average= 0.0205625
	minimum = 0.015 (at node 13)
	maximum = 0.027 (at node 5)
Injected packet length average = 1
Accepted packet length average = 1
Total in-flight flits = 9 (9 measured)
latency change    = 0.0273721
throughput change = 0.0607903
Class 0:
Packet latency average = 19.9872
	minimum = 7
	maximum = 48
Network latency average = 19.9872
	minimum = 7
	maximum = 48
Slowest packet = 9431
Flit latency average = 19.9784
	minimum = 7
	maximum = 48
Slowest flit = 9431
Fragmentation average = 0
	minimum = 0
	maximum = 0
Injected packet rate average = 0.0213542
	minimum = 0.0166667 (at node 5)
	maximum = 0.0276667 (at node 8)
Accepted packet rate average = 0.02125
	minimum = 0.0153333 (at node 13)
	maximum = 0.0263333 (at node 7)
Injected flit rate average = 0.0213542
	minimum = 0.0166667 (at node 5)
	maximum = 0.0276667 (at node 8)
Accepted flit rate average= 0.02125
	minimum = 0.0153333 (at node 13)
	maximum = 0.0263333 (at node 7)
Injected packet length average = 1
Accepted packet length average = 1
Total in-flight flits = 13 (13 measured)
latency change    = 0.00641564
throughput change = 0.0323529
Class 0:
Packet latency average = 19.9215
	minimum = 7
	maximum = 48
Network latency average = 19.9215
	minimum = 7
	maximum = 48
Slowest packet = 9431
Flit latency average = 19.9152
	minimum = 7
	maximum = 48
Slowest flit = 9431
Fragmentation average = 0
	minimum = 0
	maximum = 0
Injected packet rate average = 0.0208281
	minimum = 0.01625 (at node 5)
	maximum = 0.02475 (at node 14)
Accepted packet rate average = 0.0208125
	minimum = 0.01675 (at node 4)
	maximum = 0.025 (at node 8)
Injected flit rate average = 0.0208281
	minimum = 0.01625 (at node 5)
	maximum = 0.02475 (at node 14)
Accepted flit rate average= 0.0208125
	minimum = 0.01675 (at node 4)
	maximum = 0.025 (at node 8)
Injected packet length average = 1
Accepted packet length average = 1
Total in-flight flits = 9 (9 measured)
latency change    = 0.00329815
throughput change = 0.021021
Class 0:
Packet latency average = 19.9218
	minimum = 7
	maximum = 48
Network latency average = 19.9218
	minimum = 7
	maximum = 48
Slowest packet = 9431
Flit latency average = 19.9167
	minimum = 7
	maximum = 48
Slowest flit = 9431
Fragmentation average = 0
	minimum = 0
	maximum = 0
Injected packet rate average = 0.02035
	minimum = 0.016 (at node 5)
	maximum = 0.024 (at node 14)
Accepted packet rate average = 0.0204
	minimum = 0.016 (at node 15)
	maximum = 0.0242 (at node 6)
Injected flit rate average = 0.02035
	minimum = 0.016 (at node 5)
	maximum = 0.024 (at node 14)
Accepted flit rate average= 0.0204
	minimum = 0.016 (at node 15)
	maximum = 0.0242 (at node 6)
Injected packet length average = 1
Accepted packet length average = 1
Total in-flight flits = 4 (4 measured)
latency change    = 1.74622e-05
throughput change = 0.0202206
Draining all recorded packets ...
Draining remaining packets ...
Time taken is 8032 cycles
Class 0:
Packet latency average = 20.3314
	minimum = 7
	maximum = 45
Network latency average = 20.3314
	minimum = 7
	maximum = 45
Slowest packet = 10738
Flit latency average = 20.3314
	minimum = 7
	maximum = 45
Slowest flit = 10738
Fragmentation average = 0
	minimum = 0
	maximum = 0
Injected packet rate average = 0.0216875
	minimum = 0.016 (at node 6)
	maximum = 0.03 (at node 1)
Accepted packet rate average = 0.0215
	minimum = 0.014 (at node 7)
	maximum = 0.031 (at node 4)
Injected flit rate average = 0.0216875
	minimum = 0.016 (at node 6)
	maximum = 0.03 (at node 1)
Accepted flit rate average= 0.0215
	minimum = 0.014 (at node 7)
	maximum = 0.031 (at node 4)
Injected packet length average = 1
Accepted packet length average = 1
Total in-flight flits = 3 (0 measured)
latency change    = 1
throughput change = 1
Class 0:
Packet latency average = 20.2419
	minimum = 7
	maximum = 45
Network latency average = 20.2419
	minimum = 7
	maximum = 45
Slowest packet = 10738
Flit latency average = 20.2419
	minimum = 7
	maximum = 45
Slowest flit = 10738
Fragmentation average = 0
	minimum = 0
	maximum = 0
Injected packet rate average = 0.0205313
	minimum = 0.016 (at node 6)
	maximum = 0.0245 (at node 8)
Accepted packet rate average = 0.0202813
	minimum = 0.0135 (at node 7)
	maximum = 0.0255 (at node 11)
Injected flit rate average = 0.0205313
	minimum = 0.016 (at node 6)
	maximum = 0.0245 (at node 8)
Accepted flit rate average= 0.0202813
	minimum = 0.0135 (at node 7)
	maximum = 0.0255 (at node 11)
Injected packet length average = 1
Accepted packet length average = 1
Total in-flight flits = 8 (0 measured)
latency change    = 0.00442076
throughput change = 0.0600924
Class 0:
Packet latency average = 19.7239
	minimum = 7
	maximum = 41
Network latency average = 19.7239
	minimum = 7
	maximum = 41
Slowest packet = 11339
Flit latency average = 19.7239
	minimum = 7
	maximum = 41
Slowest flit = 11339
Fragmentation average = 0
	minimum = 0
	maximum = 0
Injected packet rate average = 0.0203125
	minimum = 0.012 (at node 11)
	maximum = 0.032 (at node 8)
Accepted packet rate average = 0.020375
	minimum = 0.012 (at node 2)
	maximum = 0.025 (at node 1)
Injected flit rate average = 0.0203125
	minimum = 0.012 (at node 11)
	maximum = 0.032 (at node 8)
Accepted flit rate average= 0.020375
	minimum = 0.012 (at node 2)
	maximum = 0.025 (at node 1)
Injected packet length average = 1
Accepted packet length average = 1
Total in-flight flits = 7 (0 measured)
latency change    = 0.0262617
throughput change = 0.00460123
Warmed up ...Time used is 3000 cycles
Class 0:
Packet latency average = 19.9709
	minimum = 7
	maximum = 45
Network latency average = 19.9709
	minimum = 7
	maximum = 45
Slowest packet = 11627
Flit latency average = 20.0158
	minimum = 7
	maximum = 45
Slowest flit = 11627
Fragmentation average = 0
	minimum = 0
	maximum = 0
Injected packet rate average = 0.019875
	minimum = 0.011 (at node 12)
	maximum = 0.028 (at node 0)
Accepted packet rate average = 0.01975
	minimum = 0.013 (at node 5)
	maximum = 0.029 (at node 12)
Injected flit rate average = 0.019875
	minimum = 0.011 (at node 12)
	maximum = 0.028 (at node 0)
Accepted flit rate average= 0.01975
	minimum = 0.013 (at node 5)
	maximum = 0.029 (at node 12)
Injected packet length average = 1
Accepted packet length average = 1
Total in-flight flits = 9 (9 measured)
latency change    = 0.0123654
throughput change = 0.0316456
Class 0:
Packet latency average = 19.5927
	minimum = 7
	maximum = 45
Network latency average = 19.5927
	minimum = 7
	maximum = 45
Slowest packet = 11627
Flit latency average = 19.6203
	minimum = 7
	maximum = 45
Slowest flit = 11627
Fragmentation average = 0
	minimum = 0
	maximum = 0
Injected packet rate average = 0.0191875
	minimum = 0.0155 (at node 12)
	maximum = 0.0255 (at node 10)
Accepted packet rate average = 0.0190937
	minimum = 0.0135 (at node 11)
	maximum = 0.0245 (at node 7)
Injected flit rate average = 0.0191875
	minimum = 0.0155 (at node 12)
	maximum = 0.0255 (at node 10)
Accepted flit rate average= 0.0190937
	minimum = 0.0135 (at node 11)
	maximum = 0.0245 (at node 7)
Injected packet length average = 1
Accepted packet length average = 1
Total in-flight flits = 10 (10 measured)
latency change    = 0.019301
throughput change = 0.0343699
Class 0:
Packet latency average = 19.784
	minimum = 7
	maximum = 49
Network latency average = 19.784
	minimum = 7
	maximum = 49
Slowest packet = 12262
Flit latency average = 19.8004
	minimum = 7
	maximum = 49
Slowest flit = 12262
Fragmentation average = 0
	minimum = 0
	maximum = 0
Injected packet rate average = 0.0195625
	minimum = 0.0146667 (at node 12)
	maximum = 0.0236667 (at node 0)
Accepted packet rate average = 0.019625
	minimum = 0.0136667 (at node 0)
	maximum = 0.025 (at node 7)
Injected flit rate average = 0.0195625
	minimum = 0.0146667 (at node 12)
	maximum = 0.0236667 (at node 0)
Accepted flit rate average= 0.019625
	minimum = 0.0136667 (at node 0)
	maximum = 0.025 (at node 7)
Injected packet length average = 1
Accepted packet length average = 1
Total in-flight flits = 4 (4 measured)
latency change    = 0.00966652
throughput change = 0.0270701
Draining all recorded packets ...
Draining remaining packets ...
Time taken is 6055 cycles
Class 0:
Packet latency average = 20.7938
	minimum = 7
	maximum = 45
Network latency average = 20.7938
	minimum = 7
	maximum = 45
Slowest packet = 12784
Flit latency average = 20.7938
	minimum = 7
	maximum = 45
Slowest flit = 12784
Fragmentation average = 0
	minimum = 0
	maximum = 0
Injected packet rate average = 0.018375
	minimum = 0.01 (at node 7)
	maximum = 0.025 (at node 0)
Accepted packet rate average = 0.0181875
	minimum = 0.008 (at node 5)
	maximum = 0.029 (at node 6)
Injected flit rate average = 0.018375
	minimum = 0.01 (at node 7)
	maximum = 0.025 (at node 0)
Accepted flit rate average= 0.0181875
	minimum = 0.008 (at node 5)
	maximum = 0.029 (at node 6)
Injected packet length average = 1
Accepted packet length average = 1
Total in-flight flits = 3 (0 measured)
latency change    = 1
throughput change = 1
Class 0:
Packet latency average = 20.5565
	minimum = 7
	maximum = 47
Network latency average = 20.5565
	minimum = 7
	maximum = 47
Slowest packet = 12975
Flit latency average = 20.5565
	minimum = 7
	maximum = 47
Slowest flit = 12975
Fragmentation average = 0
	minimum = 0
	maximum = 0
Injected packet rate average = 0.019
	minimum = 0.011 (at node 7)
	maximum = 0.0235 (at node 2)
Accepted packet rate average = 0.0188125
	minimum = 0.012 (at node 13)
	maximum = 0.026 (at node 4)
Injected flit rate average = 0.019
	minimum = 0.011 (at node 7)
	maximum = 0.0235 (at node 2)
Accepted flit rate average= 0.0188125
	minimum = 0.012 (at node 13)
	maximum = 0.026 (at node 4)
Injected packet length average = 1
Accepted packet length average = 1
Total in-flight flits = 6 (0 measured)
latency change    = 0.0115456
throughput change = 0.0332226
Class 0:
Packet latency average = 19.8957
	minimum = 7
	maximum = 37
Network latency average = 19.8957
	minimum = 7
	maximum = 37
Slowest packet = 13224
Flit latency average = 19.8957
	minimum = 7
	maximum = 37
Slowest flit = 13224
Fragmentation average = 0
	minimum = 0
	maximum = 0
Injected packet rate average = 0.0205625
	minimum = 0.015 (at node 7)
	maximum = 0.029 (at node 4)
Accepted packet rate average = 0.020375
	minimum = 0.012 (at node 9)
	maximum = 0.032 (at node 8)
Injected flit rate average = 0.0205625
	minimum = 0.015 (at node 7)
	maximum = 0.029 (at node 4)
Accepted flit rate average= 0.020375
	minimum = 0.012 (at node 9)
	maximum = 0.032 (at node 8)
Injected packet length average = 1
Accepted packet length average = 1
Total in-flight flits = 9 (0 measured)
latency change    = 0.0332118
throughput change = 0.0766871
Warmed up ...Time used is 3000 cycles
Class 0:
Packet latency average = 20.0588
	minimum = 7
	maximum = 42
Network latency average = 20.0588
	minimum = 7
	maximum = 42
Slowest packet = 13565
Flit latency average = 20.1778
	minimum = 7
	maximum = 42
Slowest flit = 13565
Fragmentation average = 0
	minimum = 0
	maximum = 0
Injected packet rate average = 0.01925
	minimum = 0.013 (at node 0)
	maximum = 0.027 (at node 2)
Accepted packet rate average = 0.0196875
	minimum = 0.013 (at node 8)
	maximum = 0.03 (at node 1)
Injected flit rate average = 0.01925
	minimum = 0.013 (at node 0)
	maximum = 0.027 (at node 2)
Accepted flit rate average= 0.0196875
	minimum = 0.013 (at node 8)
	maximum = 0.03 (at node 1)
Injected packet length average = 1
Accepted packet length average = 1
Total in-flight flits = 2 (2 measured)
latency change    = 0.00813198
throughput change = 0.0349206
Class 0:
Packet latency average = 19.9752
	minimum = 7
	maximum = 42
Network latency average = 19.9752
	minimum = 7
	maximum = 42
Slowest packet = 13565
Flit latency average = 20.0336
	minimum = 7
	maximum = 42
Slowest flit = 13565
Fragmentation average = 0
	minimum = 0
	maximum = 0
Injected packet rate average = 0.0205
	minimum = 0.0155 (at node 0)
	maximum = 0.0245 (at node 2)
Accepted packet rate average = 0.0204375
	minimum = 0.0165 (at node 8)
	maximum = 0.026 (at node 12)
Injected flit rate average = 0.0205
	minimum = 0.0155 (at node 0)
	maximum = 0.0245 (at node 2)
Accepted flit rate average= 0.0204375
	minimum = 0.0165 (at node 8)
	maximum = 0.026 (at node 12)
Injected packet length average = 1
Accepted packet length average = 1
Total in-flight flits = 11 (11 measured)
latency change    = 0.00418668
throughput change = 0.0366972
Class 0:
Packet latency average = 20.0773
	minimum = 7
	maximum = 51
Network latency average = 20.0773
	minimum = 7
	maximum = 51
Slowest packet = 14248
Flit latency average = 20.1154
	minimum = 7
	maximum = 51
Slowest flit = 14248
Fragmentation average = 0
	minimum = 0
	maximum = 0
Injected packet rate average = 0.0203958
	minimum = 0.0176667 (at node 5)
	maximum = 0.024 (at node 4)
Accepted packet rate average = 0.0203958
	minimum = 0.0146667 (at node 13)
	maximum = 0.0253333 (at node 12)
Injected flit rate average = 0.0203958
	minimum = 0.0176667 (at node 5)
	maximum = 0.024 (at node 4)
Accepted flit rate average= 0.0203958
	minimum = 0.0146667 (at node 13)
	maximum = 0.0253333 (at node 12)
Injected packet length average = 1
Accepted packet length average = 1
Total in-flight flits = 9 (9 measured)
latency change    = 0.00508662
throughput change = 0.0020429
Draining all recorded packets ...
Draining remaining packets ...
Time taken is 6044 cycles
Class 0:
Packet latency average = 20.2684
	minimum = 7
	maximum = 41
Network latency average = 20.2684
	minimum = 7
	maximum = 41
Slowest packet = 14554
Flit latency average = 20.2684
	minimum = 7
	maximum = 41
Slowest flit = 14554
Fragmentation average = 0
	minimum = 0
	maximum = 0
Injected packet rate average = 0.0200625
	minimum = 0.013 (at node 7)
	maximum = 0.03 (at node 13)
Accepted packet rate average = 0.0195625
	minimum = 0.013 (at node 7)
	maximum = 0.027 (at node 6)
Injected flit rate average = 0.0200625
	minimum = 0.013 (at node 7)
	maximum = 0.03 (at node 13)
Accepted flit rate average= 0.0195625
	minimum = 0.013 (at node 7)
	maximum = 0.027 (at node 6)
Injected packet length average = 1
Accepted packet length average = 1
Total in-flight flits = 8 (0 measured)
latency change    = 1
throughput change = 1
Class 0:
Packet latency average = 20.0997
	minimum = 7
	maximum = 42
Network latency average = 20.0997
	minimum = 7
	maximum = 42
Slowest packet = 14778
Flit latency average = 20.0997
	minimum = 7
	maximum = 42
Slowest flit = 14778
Fragmentation average = 0
	minimum = 0
	maximum = 0
Injected packet rate average = 0.0194062
	minimum = 0.014 (at node 9)
	maximum = 0.025 (at node 13)
Accepted packet rate average = 0.019125
	minimum = 0.0135 (at node 13)
	maximum = 0.025 (at node 4)
Injected flit rate average = 0.0194062
	minimum = 0.014 (at node 9)
	maximum = 0.025 (at node 13)
Accepted flit rate average= 0.019125
	minimum = 0.0135 (at node 13)
	maximum = 0.025 (at node 4)
Injected packet length average = 1
Accepted packet length average = 1
Total in-flight flits = 9 (0 measured)
latency change    = 0.00839304
throughput change = 0.0228758
Class 0:
Packet latency average = 19.9
	minimum = 7
	maximum = 44
Network latency average = 19.9
	minimum = 7
	maximum = 44
Slowest packet = 15183
Flit latency average = 19.9
	minimum = 7
	maximum = 44
Slowest flit = 15183
Fragmentation average = 0
	minimum = 0
	maximum = 0
Injected packet rate average = 0.0198125
	minimum = 0.013 (at node 6)
	maximum = 0.029 (at node 3)
Accepted packet rate average = 0.02
	minimum = 0.012 (at node 2)
	maximum = 0.027 (at node 12)
Injected flit rate average = 0.0198125
	minimum = 0.013 (at node 6)
	maximum = 0.029 (at node 3)
Accepted flit rate average= 0.02
	minimum = 0.012 (at node 2)
	maximum = 0.027 (at node 12)
Injected packet length average = 1
Accepted packet length average = 1
Total in-flight flits = 6 (0 measured)
latency change    = 0.0100338
throughput change = 0.04375
Warmed up ...Time used is 3000 cycles
Class 0:
Packet latency average = 20.3118
	minimum = 7
	maximum = 41
Network latency average = 20.3118
	minimum = 7
	maximum = 41
Slowest packet = 15498
Flit latency average = 20.3439
	minimum = 7
	maximum = 41
Slowest flit = 15498
Fragmentation average = 0
	minimum = 0
	maximum = 0
Injected packet rate average = 0.017875
	minimum = 0.014 (at node 15)
	maximum = 0.022 (at node 14)
Accepted packet rate average = 0.0178125
	minimum = 0.009 (at node 2)
	maximum = 0.024 (at node 15)
Injected flit rate average = 0.017875
	minimum = 0.014 (at node 15)
	maximum = 0.022 (at node 14)
Accepted flit rate average= 0.0178125
	minimum = 0.009 (at node 2)
	maximum = 0.024 (at node 15)
Injected packet length average = 1
Accepted packet length average = 1
Total in-flight flits = 7 (7 measured)
latency change    = 0.0202753
throughput change = 0.122807
Class 0:
Packet latency average = 19.8774
	minimum = 7
	maximum = 43
Network latency average = 19.8774
	minimum = 7
	maximum = 43
Slowest packet = 15847
Flit latency average = 19.8962
	minimum = 7
	maximum = 43
Slowest flit = 15847
Fragmentation average = 0
	minimum = 0
	maximum = 0
Injected packet rate average = 0.0195
	minimum = 0.0155 (at node 15)
	maximum = 0.0245 (at node 4)
Accepted packet rate average = 0.0195625
	minimum = 0.013 (at node 3)
	maximum = 0.0235 (at node 6)
Injected flit rate average = 0.0195
	minimum = 0.0155 (at node 15)
	maximum = 0.0245 (at node 4)
Accepted flit rate average= 0.0195625
	minimum = 0.013 (at node 3)
	maximum = 0.0235 (at node 6)
Injected packet length average = 1
Accepted packet length average = 1
Total in-flight flits = 4 (4 measured)
latency change    = 0.0218544
throughput change = 0.0894569
Class 0:
Packet latency average = 19.6984
	minimum = 7
	maximum = 43
Network latency average = 19.6984
	minimum = 7
	maximum = 43
Slowest packet = 15847
Flit latency average = 19.7118
	minimum = 7
	maximum = 43
Slowest flit = 15847
Fragmentation average = 0
	minimum = 0
	maximum = 0
Injected packet rate average = 0.0199583
	minimum = 0.0166667 (at node 13)
	maximum = 0.0253333 (at node 4)
Accepted packet rate average = 0.0200208
	minimum = 0.0143333 (at node 3)
	maximum = 0.0243333 (at node 6)
Injected flit rate average = 0.0199583
	minimum = 0.0166667 (at node 13)
	maximum = 0.0253333 (at node 4)
Accepted flit rate average= 0.0200208
	minimum = 0.0143333 (at node 3)
	maximum = 0.0243333 (at node 6)
Injected packet length average = 1
Accepted packet length average = 1
Total in-flight flits = 3 (3 measured)
latency change    = 0.00908651
throughput change = 0.0228928
Class 0:
Packet latency average = 19.4988
	minimum = 7
	maximum = 45
Network latency average = 19.4988
	minimum = 7
	maximum = 45
Slowest packet = 16588
Flit latency average = 19.5096
	minimum = 7
	maximum = 45
Slowest flit = 16588
Fragmentation average = 0
	minimum = 0
	maximum = 0
Injected packet rate average = 0.0203281
	minimum = 0.01675 (at node 12)
	maximum = 0.02425 (at node 4)
Accepted packet rate average = 0.0203281
	minimum = 0.0165 (at node 0)
	maximum = 0.02375 (at node 9)
Injected flit rate average = 0.0203281
	minimum = 0.01675 (at node 12)
	maximum = 0.02425 (at node 4)
Accepted flit rate average= 0.0203281
	minimum = 0.0165 (at node 0)
	maximum = 0.02375 (at node 9)
Injected packet length average = 1
Accepted packet length average = 1
Total in-flight flits = 6 (6 measured)
latency change    = 0.0102359
throughput change = 0.0151166
Class 0:
Packet latency average = 19.5128
	minimum = 7
	maximum = 45
Network latency average = 19.5128
	minimum = 7
	maximum = 45
Slowest packet = 16588
Flit latency average = 19.5214
	minimum = 7
	maximum = 45
Slowest flit = 16588
Fragmentation average = 0
	minimum = 0
	maximum = 0
Injected packet rate average = 0.0202125
	minimum = 0.017 (at node 1)
	maximum = 0.0234 (at node 7)
Accepted packet rate average = 0.0201375
	minimum = 0.0162 (at node 8)
	maximum = 0.0234 (at node 9)
Injected flit rate average = 0.0202125
	minimum = 0.017 (at node 1)
	maximum = 0.0234 (at node 7)
Accepted flit rate average= 0.0201375
	minimum = 0.0162 (at node 8)
	maximum = 0.0234 (at node 9)
Injected packet length average = 1
Accepted packet length average = 1
Total in-flight flits = 12 (12 measured)
latency change    = 0.000713937
throughput change = 0.00946617
Draining all recorded packets ...
Draining remaining packets ...
Time taken is 8058 cycles
Class 0:
Packet latency average = 19.7375
	minimum = 7
	maximum = 40
Network latency average = 19.7375
	minimum = 7
	maximum = 40
Slowest packet = 17224
Flit latency average = 19.7375
	minimum = 7
	maximum = 40
Slowest flit = 17224
Fragmentation average = 0
	minimum = 0
	maximum = 0
Injected packet rate average = 0.0195
	minimum = 0.011 (at node 10)
	maximum = 0.03 (at node 12)
Accepted packet rate average = 0.0188125
	minimum = 0.013 (at node 8)
	maximum = 0.026 (at node 3)
Injected flit rate average = 0.0195
	minimum = 0.011 (at node 10)
	maximum = 0.03 (at node 12)
Accepted flit rate average= 0.0188125
	minimum = 0.013 (at node 8)
	maximum = 0.026 (at node 3)
Injected packet length average = 1
Accepted packet length average = 1
Total in-flight flits = 11 (0 measured)
latency change    = 1
throughput change = 1
Class 0:
Packet latency average = 20.0972
	minimum = 7
	maximum = 44
Network latency average = 20.0972
	minimum = 7
	maximum = 44
Slowest packet = 17564
Flit latency average = 20.0972
	minimum = 7
	maximum = 44
Slowest flit = 17564
Fragmentation average = 0
	minimum = 0
	maximum = 0
Injected packet rate average = 0.0194375
	minimum = 0.013 (at node 10)
	maximum = 0.024 (at node 12)
Accepted packet rate average = 0.0192812
	minimum = 0.0145 (at node 10)
	maximum = 0.025 (at node 6)
Injected flit rate average = 0.0194375
	minimum = 0.013 (at node 10)
	maximum = 0.024 (at node 12)
Accepted flit rate average= 0.0192812
	minimum = 0.0145 (at node 10)
	maximum = 0.025 (at node 6)
Injected packet length average = 1
Accepted packet length average = 1
Total in-flight flits = 5 (0 measured)
latency change    = 0.0178981
throughput change = 0.0243112
Class 0:
Packet latency average = 20.216
	minimum = 7
	maximum = 46
Network latency average = 20.216
	minimum = 7
	maximum = 46
Slowest packet = 17671
Flit latency average = 20.216
	minimum = 7
	maximum = 46
Slowest flit = 17671
Fragmentation average = 0
	minimum = 0
	maximum = 0
Injected packet rate average = 0.02125
	minimum = 0.013 (at node 6)
	maximum = 0.031 (at node 13)
Accepted packet rate average = 0.021125
	minimum = 0.014 (at node 12)
	maximum = 0.031 (at node 3)
Injected flit rate average = 0.02125
	minimum = 0.013 (at node 6)
	maximum = 0.031 (at node 13)
Accepted flit rate average= 0.021125
	minimum = 0.014 (at node 12)
	maximum = 0.031 (at node 3)
Injected packet length average = 1
Accepted packet length average = 1
Total in-flight flits = 7 (0 measured)
latency change    = 0.00587316
throughput change = 0.0872781
Warmed up ...Time used is 3000 cycles
Class 0:
Packet latency average = 20.186
	minimum = 7
	maximum = 50
Network latency average = 20.186
	minimum = 7
	maximum = 50
Slowest packet = 18199
Flit latency average = 20.3194
	minimum = 7
	maximum = 50
Slowest flit = 18199
Fragmentation average = 0
	minimum = 0
	maximum = 0
Injected packet rate average = 0.02075
	minimum = 0.015 (at node 14)
	maximum = 0.027 (at node 13)
Accepted packet rate average = 0.0209375
	minimum = 0.01 (at node 5)
	maximum = 0.029 (at node 7)
Injected flit rate average = 0.02075
	minimum = 0.015 (at node 14)
	maximum = 0.027 (at node 13)
Accepted flit rate average= 0.0209375
	minimum = 0.01 (at node 5)
	maximum = 0.029 (at node 7)
Injected packet length average = 1
Accepted packet length average = 1
Total in-flight flits = 4 (4 measured)
latency change    = 0.00148622
throughput change = 0.00895522
Class 0:
Packet latency average = 20.1458
	minimum = 7
	maximum = 55
Network latency average = 20.1458
	minimum = 7
	maximum = 55
Slowest packet = 18601
Flit latency average = 20.2155
	minimum = 7
	maximum = 55
Slowest flit = 18601
Fragmentation average = 0
	minimum = 0
	maximum = 0
Injected packet rate average = 0.0200313
	minimum = 0.016 (at node 14)
	maximum = 0.024 (at node 3)
Accepted packet rate average = 0.0201563
	minimum = 0.013 (at node 5)
	maximum = 0.0265 (at node 3)
Injected flit rate average = 0.0200313
	minimum = 0.016 (at node 14)
	maximum = 0.024 (at node 3)
Accepted flit rate average= 0.0201563
	minimum = 0.013 (at node 5)
	maximum = 0.0265 (at node 3)
Injected packet length average = 1
Accepted packet length average = 1
Total in-flight flits = 3 (3 measured)
latency change    = 0.00199583
throughput change = 0.0387597
Class 0:
Packet latency average = 19.8942
	minimum = 7
	maximum = 55
Network latency average = 19.8942
	minimum = 7
	maximum = 55
Slowest packet = 18601
Flit latency average = 19.9423
	minimum = 7
	maximum = 55
Slowest flit = 18601
Fragmentation average = 0
	minimum = 0
	maximum = 0
Injected packet rate average = 0.02025
	minimum = 0.0163333 (at node 14)
	maximum = 0.0236667 (at node 7)
Accepted packet rate average = 0.0202292
	minimum = 0.015 (at node 5)
	maximum = 0.025 (at node 3)
Injected flit rate average = 0.02025
	minimum = 0.0163333 (at node 14)
	maximum = 0.0236667 (at node 7)
Accepted flit rate average= 0.0202292
	minimum = 0.015 (at node 5)
	maximum = 0.025 (at node 3)
Injected packet length average = 1
Accepted packet length average = 1
Total in-flight flits = 8 (8 measured)
latency change    = 0.0126458
throughput change = 0.00360453
Draining all recorded packets ...
Draining remaining packets ...
Time taken is 6059 cycles
Class 0:
Packet latency average = 20.0401
	minimum = 7
	maximum = 43
Network latency average = 20.0401
	minimum = 7
	maximum = 43
Slowest packet = 19011
Flit latency average = 20.0401
	minimum = 7
	maximum = 43
Slowest flit = 19011
Fragmentation average = 0
	minimum = 0
	maximum = 0
Injected packet rate average = 0.0178125
	minimum = 0.013 (at node 4)
	maximum = 0.026 (at node 1)
Accepted packet rate average = 0.017125
	minimum = 0.009 (at node 10)
	maximum = 0.024 (at node 9)
Injected flit rate average = 0.0178125
	minimum = 0.013 (at node 4)
	maximum = 0.026 (at node 1)
Accepted flit rate average= 0.017125
	minimum = 0.009 (at node 10)
	maximum = 0.024 (at node 9)
Injected packet length average = 1
Accepted packet length average = 1
Total in-flight flits = 11 (0 measured)
latency change    = 1
throughput change = 1
Class 0:
Packet latency average = 19.9427
	minimum = 7
	maximum = 52
Network latency average = 19.9427
	minimum = 7
	maximum = 52
Slowest packet = 19496
Flit latency average = 19.9427
	minimum = 7
	maximum = 52
Slowest flit = 19496
Fragmentation average = 0
	minimum = 0
	maximum = 0
Injected packet rate average = 0.01975
	minimum = 0.0145 (at node 6)
	maximum = 0.0255 (at node 1)
Accepted packet rate average = 0.019625
	minimum = 0.0135 (at node 3)
	maximum = 0.026 (at node 7)
Injected flit rate average = 0.01975
	minimum = 0.0145 (at node 6)
	maximum = 0.0255 (at node 1)
Accepted flit rate average= 0.019625
	minimum = 0.0135 (at node 3)
	maximum = 0.026 (at node 7)
Injected packet length average = 1
Accepted packet length average = 1
Total in-flight flits = 4 (0 measured)
latency change    = 0.00488755
throughput change = 0.127389
Class 0:
Packet latency average = 20.398
	minimum = 7
	maximum = 42
Network latency average = 20.398
	minimum = 7
	maximum = 42
Slowest packet = 19743
Flit latency average = 20.398
	minimum = 7
	maximum = 42
Slowest flit = 19743
Fragmentation average = 0
	minimum = 0
	maximum = 0
Injected packet rate average = 0.018625
	minimum = 0.014 (at node 3)
	maximum = 0.027 (at node 8)
Accepted packet rate average = 0.0186875
	minimum = 0.011 (at node 0)
	maximum = 0.027 (at node 15)
Injected flit rate average = 0.018625
	minimum = 0.014 (at node 3)
	maximum = 0.027 (at node 8)
Accepted flit rate average= 0.0186875
	minimum = 0.011 (at node 0)
	maximum = 0.027 (at node 15)
Injected packet length average = 1
Accepted packet length average = 1
Total in-flight flits = 3 (0 measured)
latency change    = 0.0223217
throughput change = 0.0501672
Warmed up ...Time used is 3000 cycles
Class 0:
Packet latency average = 19.6358
	minimum = 7
	maximum = 37
Network latency average = 19.6358
	minimum = 7
	maximum = 37
Slowest packet = 19896
Flit latency average = 19.6881
	minimum = 7
	maximum = 37
Slowest flit = 19896
Fragmentation average = 0
	minimum = 0
	maximum = 0
Injected packet rate average = 0.0208125
	minimum = 0.015 (at node 9)
	maximum = 0.028 (at node 2)
Accepted packet rate average = 0.0204375
	minimum = 0.014 (at node 14)
	maximum = 0.026 (at node 9)
Injected flit rate average = 0.0208125
	minimum = 0.015 (at node 9)
	maximum = 0.028 (at node 2)
Accepted flit rate average= 0.0204375
	minimum = 0.014 (at node 14)
	maximum = 0.026 (at node 9)
Injected packet length average = 1
Accepted packet length average = 1
Total in-flight flits = 9 (9 measured)
latency change    = 0.0388164
throughput change = 0.0856269
Class 0:
Packet latency average = 19.81
	minimum = 7
	maximum = 43
Network latency average = 19.81
	minimum = 7
	maximum = 43
Slowest packet = 20272
Flit latency average = 19.8359
	minimum = 7
	maximum = 43
Slowest flit = 20272
Fragmentation average = 0
	minimum = 0
	maximum = 0
Injected packet rate average = 0.0200313
	minimum = 0.016 (at node 0)
	maximum = 0.0255 (at node 4)
Accepted packet rate average = 0.02
	minimum = 0.016 (at node 12)
	maximum = 0.0245 (at node 4)
Injected flit rate average = 0.0200313
	minimum = 0.016 (at node 0)
	maximum = 0.0255 (at node 4)
Accepted flit rate average= 0.02
	minimum = 0.016 (at node 12)
	maximum = 0.0245 (at node 4)
Injected packet length average = 1
Accepted packet length average = 1
Total in-flight flits = 4 (4 measured)
latency change    = 0.00879577
throughput change = 0.021875
Class 0:
Packet latency average = 19.9383
	minimum = 7
	maximum = 47
Network latency average = 19.9383
	minimum = 7
	maximum = 47
Slowest packet = 20802
Flit latency average = 19.9552
	minimum = 7
	maximum = 47
Slowest flit = 20802
Fragmentation average = 0
	minimum = 0
	maximum = 0
Injected packet rate average = 0.0200625
	minimum = 0.017 (at node 0)
	maximum = 0.0243333 (at node 6)
Accepted packet rate average = 0.02
	minimum = 0.0163333 (at node 10)
	maximum = 0.0253333 (at node 5)
Injected flit rate average = 0.0200625
	minimum = 0.017 (at node 0)
	maximum = 0.0243333 (at node 6)
Accepted flit rate average= 0.02
	minimum = 0.0163333 (at node 10)
	maximum = 0.0253333 (at node 5)
Injected packet length average = 1
Accepted packet length average = 1
Total in-flight flits = 6 (6 measured)
latency change    = 0.00643493
throughput change = 0
Class 0:
Packet latency average = 20.1005
	minimum = 7
	maximum = 47
Network latency average = 20.1005
	minimum = 7
	maximum = 47
Slowest packet = 20802
Flit latency average = 20.1126
	minimum = 7
	maximum = 47
Slowest flit = 20802
Fragmentation average = 0
	minimum = 0
	maximum = 0
Injected packet rate average = 0.0202969
	minimum = 0.0175 (at node 0)
	maximum = 0.02425 (at node 12)
Accepted packet rate average = 0.0202656
	minimum = 0.01675 (at node 10)
	maximum = 0.02575 (at node 5)
Injected flit rate average = 0.0202969
	minimum = 0.0175 (at node 0)
	maximum = 0.02425 (at node 12)
Accepted flit rate average= 0.0202656
	minimum = 0.01675 (at node 10)
	maximum = 0.02575 (at node 5)
Injected packet length average = 1
Accepted packet length average = 1
Total in-flight flits = 5 (5 measured)
latency change    = 0.00806522
throughput change = 0.0131072
Draining all recorded packets ...
Draining remaining packets ...
Time taken is 7049 cycles
Class 0:
Packet latency average = 19.0707
	minimum = 7
	maximum = 46
Network latency average = 19.0707
	minimum = 7
	maximum = 46
Slowest packet = 21387
Flit latency average = 19.0707
	minimum = 7
	maximum = 46
Slowest flit = 21387
Fragmentation average = 0
	minimum = 0
	maximum = 0
Injected packet rate average = 0.019125
	minimum = 0.011 (at node 10)
	maximum = 0.024 (at node 6)
Accepted packet rate average = 0.0185625
	minimum = 0.009 (at node 3)
	maximum = 0.026 (at node 7)
Injected flit rate average = 0.019125
	minimum = 0.011 (at node 10)
	maximum = 0.024 (at node 6)
Accepted flit rate average= 0.0185625
	minimum = 0.009 (at node 3)
	maximum = 0.026 (at node 7)
Injected packet length average = 1
Accepted packet length average = 1
Total in-flight flits = 9 (0 measured)
latency change    = 1
throughput change = 1
Class 0:
Packet latency average = 19.4326
	minimum = 7
	maximum = 47
Network latency average = 19.4326
	minimum = 7
	maximum = 47
Slowest packet = 21759
Flit latency average = 19.4326
	minimum = 7
	maximum = 47
Slowest flit = 21759
Fragmentation average = 0
	minimum = 0
	maximum = 0
Injected packet rate average = 0.0192812
	minimum = 0.012 (at node 10)
	maximum = 0.0255 (at node 8)
Accepted packet rate average = 0.019
	minimum = 0.013 (at node 3)
	maximum = 0.0235 (at node 14)
Injected flit rate average = 0.0192812
	minimum = 0.012 (at node 10)
	maximum = 0.0255 (at node 8)
Accepted flit rate average= 0.019
	minimum = 0.013 (at node 3)
	maximum = 0.0235 (at node 14)
Injected packet length average = 1
Accepted packet length average = 1
Total in-flight flits = 9 (0 measured)
latency change    = 0.0186213
throughput change = 0.0230263
Class 0:
Packet latency average = 19.4127
	minimum = 7
	maximum = 44
Network latency average = 19.4127
	minimum = 7
	maximum = 44
Slowest packet = 22126
Flit latency average = 19.4127
	minimum = 7
	maximum = 44
Slowest flit = 22126
Fragmentation average = 0
	minimum = 0
	maximum = 0
Injected packet rate average = 0.0206875
	minimum = 0.011 (at node 8)
	maximum = 0.027 (at node 4)
Accepted packet rate average = 0.02075
	minimum = 0.011 (at node 4)
	maximum = 0.027 (at node 12)
Injected flit rate average = 0.0206875
	minimum = 0.011 (at node 8)
	maximum = 0.027 (at node 4)
Accepted flit rate average= 0.02075
	minimum = 0.011 (at node 4)
	maximum = 0.027 (at node 12)
Injected packet length average = 1
Accepted packet length average = 1
Total in-flight flits = 8 (0 measured)
latency change    = 0.00102589
throughput change = 0.0843373
Warmed up ...Time used is 3000 cycles
Class 0:
Packet latency average = 19.7211
	minimum = 7
	maximum = 45
Network latency average = 19.7211
	minimum = 7
	maximum = 45
Slowest packet = 22197
Flit latency average = 19.8
	minimum = 7
	maximum = 45
Slowest flit = 22197
Fragmentation average = 0
	minimum = 0
	maximum = 0
Injected packet rate average = 0.021625
	minimum = 0.016 (at node 1)
	maximum = 0.031 (at node 4)
Accepted packet rate average = 0.0215625
	minimum = 0.014 (at node 8)
	maximum = 0.028 (at node 15)
Injected flit rate average = 0.021625
	minimum = 0.016 (at node 1)
	maximum = 0.031 (at node 4)
Accepted flit rate average= 0.0215625
	minimum = 0.014 (at node 8)
	maximum = 0.028 (at node 15)
Injected packet length average = 1
Accepted packet length average = 1
Total in-flight flits = 9 (9 measured)
latency change    = 0.015639
throughput change = 0.0376812
Class 0:
Packet latency average = 19.6184
	minimum = 7
	maximum = 45
Network latency average = 19.6184
	minimum = 7
	maximum = 45
Slowest packet = 22197
Flit latency average = 19.6615
	minimum = 7
	maximum = 45
Slowest flit = 22197
Fragmentation average = 0
	minimum = 0
	maximum = 0
Injected packet rate average = 0.0201875
	minimum = 0.017 (at node 8)
	maximum = 0.0265 (at node 4)
Accepted packet rate average = 0.0203125
	minimum = 0.0145 (at node 12)
	maximum = 0.026 (at node 1)
Injected flit rate average = 0.0201875
	minimum = 0.017 (at node 8)
	maximum = 0.0265 (at node 4)
Accepted flit rate average= 0.0203125
	minimum = 0.0145 (at node 12)
	maximum = 0.026 (at node 1)
Injected packet length average = 1
Accepted packet length average = 1
Total in-flight flits = 4 (4 measured)
latency change    = 0.00523428
throughput change = 0.0615385
Class 0:
Packet latency average = 19.5806
	minimum = 7
	maximum = 45
Network latency average = 19.5806
	minimum = 7
	maximum = 45
Slowest packet = 22197
Flit latency average = 19.6102
	minimum = 7
	maximum = 45
Slowest flit = 22197
Fragmentation average = 0
	minimum = 0
	maximum = 0
Injected packet rate average = 0.0198958
	minimum = 0.0166667 (at node 1)
	maximum = 0.025 (at node 3)
Accepted packet rate average = 0.0199375
	minimum = 0.016 (at node 8)
	maximum = 0.0236667 (at node 1)
Injected flit rate average = 0.0198958
	minimum = 0.0166667 (at node 1)
	maximum = 0.025 (at node 3)
Accepted flit rate average= 0.0199375
	minimum = 0.016 (at node 8)
	maximum = 0.0236667 (at node 1)
Injected packet length average = 1
Accepted packet length average = 1
Total in-flight flits = 6 (6 measured)
latency change    = 0.00192889
throughput change = 0.0188088
Class 0:
Packet latency average = 19.6123
	minimum = 7
	maximum = 45
Network latency average = 19.6123
	minimum = 7
	maximum = 45
Slowest packet = 22197
Flit latency average = 19.6344
	minimum = 7
	maximum = 45
Slowest flit = 22197
Fragmentation average = 0
	minimum = 0
	maximum = 0
Injected packet rate average = 0.0199375
	minimum = 0.017 (at node 1)
	maximum = 0.025 (at node 3)
Accepted packet rate average = 0.019875
	minimum = 0.0165 (at node 8)
	maximum = 0.0235 (at node 3)
Injected flit rate average = 0.0199375
	minimum = 0.017 (at node 1)
	maximum = 0.025 (at node 3)
Accepted flit rate average= 0.019875
	minimum = 0.0165 (at node 8)
	maximum = 0.0235 (at node 3)
Injected packet length average = 1
Accepted packet length average = 1
Total in-flight flits = 12 (12 measured)
latency change    = 0.00161789
throughput change = 0.00314465
Class 0:
Packet latency average = 19.6075
	minimum = 7
	maximum = 45
Network latency average = 19.6075
	minimum = 7
	maximum = 45
Slowest packet = 22197
Flit latency average = 19.6252
	minimum = 7
	maximum = 45
Slowest flit = 22197
Fragmentation average = 0
	minimum = 0
	maximum = 0
Injected packet rate average = 0.0198
	minimum = 0.0178 (at node 1)
	maximum = 0.0238 (at node 3)
Accepted packet rate average = 0.0198125
	minimum = 0.0172 (at node 5)
	maximum = 0.0226 (at node 3)
Injected flit rate average = 0.0198
	minimum = 0.0178 (at node 1)
	maximum = 0.0238 (at node 3)
Accepted flit rate average= 0.0198125
	minimum = 0.0172 (at node 5)
	maximum = 0.0226 (at node 3)
Injected packet length average = 1
Accepted packet length average = 1
Total in-flight flits = 7 (7 measured)
latency change    = 0.000247824
throughput change = 0.00315457
Draining all recorded packets ...
Draining remaining packets ...
Time taken is 8032 cycles
Class 0:
Packet latency average = 19.6976
	minimum = 7
	maximum = 45
Network latency average = 19.6976
	minimum = 7
	maximum = 45
Slowest packet = 23968
Flit latency average = 19.6976
	minimum = 7
	maximum = 45
Slowest flit = 23968
Fragmentation average = 0
	minimum = 0
	maximum = 0
Injected packet rate average = 0.02125
	minimum = 0.016 (at node 1)
	maximum = 0.034 (at node 12)
Accepted packet rate average = 0.020875
	minimum = 0.016 (at node 12)
	maximum = 0.03 (at node 7)
Injected flit rate average = 0.02125
	minimum = 0.016 (at node 1)
	maximum = 0.034 (at node 12)
Accepted flit rate average= 0.020875
	minimum = 0.016 (at node 12)
	maximum = 0.03 (at node 7)
Injected packet length average = 1
Accepted packet length average = 1
Total in-flight flits = 6 (0 measured)
latency change    = 1
throughput change = 1
Class 0:
Packet latency average = 20.0655
	minimum = 7
	maximum = 45
Network latency average = 20.0655
	minimum = 7
	maximum = 45
Slowest packet = 23968
Flit latency average = 20.0655
	minimum = 7
	maximum = 45
Slowest flit = 23968
Fragmentation average = 0
	minimum = 0
	maximum = 0
Injected packet rate average = 0.020125
	minimum = 0.015 (at node 14)
	maximum = 0.0265 (at node 12)
Accepted packet rate average = 0.0200313
	minimum = 0.016 (at node 8)
	maximum = 0.026 (at node 7)
Injected flit rate average = 0.020125
	minimum = 0.015 (at node 14)
	maximum = 0.0265 (at node 12)
Accepted flit rate average= 0.0200313
	minimum = 0.016 (at node 8)
	maximum = 0.026 (at node 7)
Injected packet length average = 1
Accepted packet length average = 1
Total in-flight flits = 3 (0 measured)
latency change    = 0.0183358
throughput change = 0.0421217
Class 0:
Packet latency average = 19.6657
	minimum = 7
	maximum = 42
Network latency average = 19.6657
	minimum = 7
	maximum = 42
Slowest packet = 24456
Flit latency average = 19.6657
	minimum = 7
	maximum = 42
Slowest flit = 24456
Fragmentation average = 0
	minimum = 0
	maximum = 0
Injected packet rate average = 0.021
	minimum = 0.012 (at node 13)
	maximum = 0.027 (at node 10)
Accepted packet rate average = 0.02075
	minimum = 0.016 (at node 4)
	maximum = 0.027 (at node 10)
Injected flit rate average = 0.021
	minimum = 0.012 (at node 13)
	maximum = 0.027 (at node 10)
Accepted flit rate average= 0.02075
	minimum = 0.016 (at node 4)
	maximum = 0.027 (at node 10)
Injected packet length average = 1
Accepted packet length average = 1
Total in-flight flits = 7 (0 measured)
latency change    = 0.0203329
throughput change = 0.0346386
Warmed up ...Time used is 3000 cycles
Class 0:
Packet latency average = 20.0619
	minimum = 7
	maximum = 40
Network latency average = 20.0619
	minimum = 7
	maximum = 40
Slowest packet = 24725
Flit latency average = 20.1818
	minimum = 7
	maximum = 40
Slowest flit = 24725
Fragmentation average = 0
	minimum = 0
	maximum = 0
Injected packet rate average = 0.0206875
	minimum = 0.015 (at node 7)
	maximum = 0.026 (at node 2)
Accepted packet rate average = 0.020625
	minimum = 0.015 (at node 9)
	maximum = 0.03 (at node 5)
Injected flit rate average = 0.0206875
	minimum = 0.015 (at node 7)
	maximum = 0.026 (at node 2)
Accepted flit rate average= 0.020625
	minimum = 0.015 (at node 9)
	maximum = 0.03 (at node 5)
Injected packet length average = 1
Accepted packet length average = 1
Total in-flight flits = 8 (8 measured)
latency change    = 0.0197517
throughput change = 0.00606061
Class 0:
Packet latency average = 20.0615
	minimum = 7
	maximum = 48
Network latency average = 20.0615
	minimum = 7
	maximum = 48
Slowest packet = 25070
Flit latency average = 20.1232
	minimum = 7
	maximum = 48
Slowest flit = 25070
Fragmentation average = 0
	minimum = 0
	maximum = 0
Injected packet rate average = 0.0200313
	minimum = 0.0145 (at node 7)
	maximum = 0.024 (at node 12)
Accepted packet rate average = 0.0200313
	minimum = 0.0165 (at node 13)
	maximum = 0.024 (at node 5)
Injected flit rate average = 0.0200313
	minimum = 0.0145 (at node 7)
	maximum = 0.024 (at node 12)
Accepted flit rate average= 0.0200313
	minimum = 0.0165 (at node 13)
	maximum = 0.024 (at node 5)
Injected packet length average = 1
Accepted packet length average = 1
Total in-flight flits = 7 (7 measured)
latency change    = 2.02033e-05
throughput change = 0.0296412
Class 0:
Packet latency average = 20.0301
	minimum = 7
	maximum = 48
Network latency average = 20.0301
	minimum = 7
	maximum = 48
Slowest packet = 25070
Flit latency average = 20.0726
	minimum = 7
	maximum = 48
Slowest flit = 25070
Fragmentation average = 0
	minimum = 0
	maximum = 0
Injected packet rate average = 0.0194167
	minimum = 0.017 (at node 3)
	maximum = 0.0233333 (at node 12)
Accepted packet rate average = 0.0195
	minimum = 0.017 (at node 9)
	maximum = 0.0233333 (at node 2)
Injected flit rate average = 0.0194167
	minimum = 0.017 (at node 3)
	maximum = 0.0233333 (at node 12)
Accepted flit rate average= 0.0195
	minimum = 0.017 (at node 9)
	maximum = 0.0233333 (at node 2)
Injected packet length average = 1
Accepted packet length average = 1
Total in-flight flits = 3 (3 measured)
latency change    = 0.00156635
throughput change = 0.0272436
Draining all recorded packets ...
Draining remaining packets ...
Time taken is 6036 cycles
Class 0:
Packet latency average = 19.6667
	minimum = 7
	maximum = 41
Network latency average = 19.6667
	minimum = 7
	maximum = 41
Slowest packet = 25709
Flit latency average = 19.6667
	minimum = 7
	maximum = 41
Slowest flit = 25709
Fragmentation average = 0
	minimum = 0
	maximum = 0
Injected packet rate average = 0.0199375
	minimum = 0.013 (at node 9)
	maximum = 0.027 (at node 7)
Accepted packet rate average = 0.0196875
	minimum = 0.014 (at node 3)
	maximum = 0.027 (at node 4)
Injected flit rate average = 0.0199375
	minimum = 0.013 (at node 9)
	maximum = 0.027 (at node 7)
Accepted flit rate average= 0.0196875
	minimum = 0.014 (at node 3)
	maximum = 0.027 (at node 4)
Injected packet length average = 1
Accepted packet length average = 1
Total in-flight flits = 4 (0 measured)
latency change    = 1
throughput change = 1
Class 0:
Packet latency average = 19.5954
	minimum = 7
	maximum = 42
Network latency average = 19.5954
	minimum = 7
	maximum = 42
Slowest packet = 26203
Flit latency average = 19.5954
	minimum = 7
	maximum = 42
Slowest flit = 26203
Fragmentation average = 0
	minimum = 0
	maximum = 0
Injected packet rate average = 0.0195938
	minimum = 0.012 (at node 10)
	maximum = 0.024 (at node 6)
Accepted packet rate average = 0.0191562
	minimum = 0.015 (at node 12)
	maximum = 0.0225 (at node 15)
Injected flit rate average = 0.0195938
	minimum = 0.012 (at node 10)
	maximum = 0.024 (at node 6)
Accepted flit rate average= 0.0191562
	minimum = 0.015 (at node 12)
	maximum = 0.0225 (at node 15)
Injected packet length average = 1
Accepted packet length average = 1
Total in-flight flits = 14 (0 measured)
latency change    = 0.00363525
throughput change = 0.0277325
Class 0:
Packet latency average = 20.2128
	minimum = 7
	maximum = 52
Network latency average = 20.2128
	minimum = 7
	maximum = 52
Slowest packet = 26262
Flit latency average = 20.2128
	minimum = 7
	maximum = 52
Slowest flit = 26262
Fragmentation average = 0
	minimum = 0
	maximum = 0
Injected packet rate average = 0.02025
	minimum = 0.009 (at node 5)
	maximum = 0.029 (at node 6)
Accepted packet rate average = 0.0205625
	minimum = 0.014 (at node 7)
	maximum = 0.032 (at node 10)
Injected flit rate average = 0.02025
	minimum = 0.009 (at node 5)
	maximum = 0.029 (at node 6)
Accepted flit rate average= 0.0205625
	minimum = 0.014 (at node 7)
	maximum = 0.032 (at node 10)
Injected packet length average = 1
Accepted packet length average = 1
Total in-flight flits = 9 (0 measured)
latency change    = 0.0305418
throughput change = 0.0683891
Warmed up ...Time used is 3000 cycles
Class 0:
Packet latency average = 19.5765
	minimum = 7
	maximum = 42
Network latency average = 19.5765
	minimum = 7
	maximum = 42
Slowest packet = 26771
Flit latency average = 19.5823
	minimum = 7
	maximum = 42
Slowest flit = 26771
Fragmentation average = 0
	minimum = 0
	maximum = 0
Injected packet rate average = 0.019375
	minimum = 0.011 (at node 6)
	maximum = 0.029 (at node 4)
Accepted packet rate average = 0.01975
	minimum = 0.008 (at node 0)
	maximum = 0.027 (at node 15)
Injected flit rate average = 0.019375
	minimum = 0.011 (at node 6)
	maximum = 0.029 (at node 4)
Accepted flit rate average= 0.01975
	minimum = 0.008 (at node 0)
	maximum = 0.027 (at node 15)
Injected packet length average = 1
Accepted packet length average = 1
Total in-flight flits = 3 (3 measured)
latency change    = 0.032499
throughput change = 0.0411392
Class 0:
Packet latency average = 19.6584
	minimum = 7
	maximum = 42
Network latency average = 19.6584
	minimum = 7
	maximum = 42
Slowest packet = 26771
Flit latency average = 19.66
	minimum = 7
	maximum = 42
Slowest flit = 26771
Fragmentation average = 0
	minimum = 0
	maximum = 0
Injected packet rate average = 0.0204375
	minimum = 0.0175 (at node 2)
	maximum = 0.0285 (at node 1)
Accepted packet rate average = 0.0204063
	minimum = 0.0135 (at node 2)
	maximum = 0.0275 (at node 14)
Injected flit rate average = 0.0204375
	minimum = 0.0175 (at node 2)
	maximum = 0.0285 (at node 1)
Accepted flit rate average= 0.0204063
	minimum = 0.0135 (at node 2)
	maximum = 0.0275 (at node 14)
Injected packet length average = 1
Accepted packet length average = 1
Total in-flight flits = 10 (10 measured)
latency change    = 0.004163
throughput change = 0.0321593
Class 0:
Packet latency average = 20.0686
	minimum = 7
	maximum = 50
Network latency average = 20.0686
	minimum = 7
	maximum = 50
Slowest packet = 27416
Flit latency average = 20.0658
	minimum = 7
	maximum = 50
Slowest flit = 27416
Fragmentation average = 0
	minimum = 0
	maximum = 0
Injected packet rate average = 0.0198542
	minimum = 0.016 (at node 2)
	maximum = 0.024 (at node 1)
Accepted packet rate average = 0.0199375
	minimum = 0.0146667 (at node 2)
	maximum = 0.025 (at node 5)
Injected flit rate average = 0.0198542
	minimum = 0.016 (at node 2)
	maximum = 0.024 (at node 1)
Accepted flit rate average= 0.0199375
	minimum = 0.0146667 (at node 2)
	maximum = 0.025 (at node 5)
Injected packet length average = 1
Accepted packet length average = 1
Total in-flight flits = 5 (5 measured)
latency change    = 0.0204389
throughput change = 0.023511
Draining all recorded packets ...
Draining remaining packets ...
Time taken is 6030 cycles
Class 0:
Packet latency average = 19.8683
	minimum = 7
	maximum = 58
Network latency average = 19.8683
	minimum = 7
	maximum = 58
Slowest packet = 27670
Flit latency average = 19.8683
	minimum = 7
	maximum = 58
Slowest flit = 27670
Fragmentation average = 0
	minimum = 0
	maximum = 0
Injected packet rate average = 0.020125
	minimum = 0.014 (at node 15)
	maximum = 0.027 (at node 6)
Accepted packet rate average = 0.0199375
	minimum = 0.015 (at node 0)
	maximum = 0.024 (at node 13)
Injected flit rate average = 0.020125
	minimum = 0.014 (at node 15)
	maximum = 0.027 (at node 6)
Accepted flit rate average= 0.0199375
	minimum = 0.015 (at node 0)
	maximum = 0.024 (at node 13)
Injected packet length average = 1
Accepted packet length average = 1
Total in-flight flits = 3 (0 measured)
latency change    = 1
throughput change = 1
Class 0:
Packet latency average = 19.7365
	minimum = 7
	maximum = 58
Network latency average = 19.7365
	minimum = 7
	maximum = 58
Slowest packet = 27670
Flit latency average = 19.7365
	minimum = 7
	maximum = 58
Slowest flit = 27670
Fragmentation average = 0
	minimum = 0
	maximum = 0
Injected packet rate average = 0.01975
	minimum = 0.016 (at node 8)
	maximum = 0.025 (at node 1)
Accepted packet rate average = 0.0196875
	minimum = 0.016 (at node 0)
	maximum = 0.023 (at node 9)
Injected flit rate average = 0.01975
	minimum = 0.016 (at node 8)
	maximum = 0.025 (at node 1)
Accepted flit rate average= 0.0196875
	minimum = 0.016 (at node 0)
	maximum = 0.023 (at node 9)
Injected packet length average = 1
Accepted packet length average = 1
Total in-flight flits = 2 (0 measured)
latency change    = 0.00667953
throughput change = 0.0126984
Class 0:
Packet latency average = 20.0912
	minimum = 7
	maximum = 45
Network latency average = 20.0912
	minimum = 7
	maximum = 45
Slowest packet = 28214
Flit latency average = 20.0912
	minimum = 7
	maximum = 45
Slowest flit = 28214
Fragmentation average = 0
	minimum = 0
	maximum = 0
Injected packet rate average = 0.020375
	minimum = 0.011 (at node 10)
	maximum = 0.03 (at node 4)
Accepted packet rate average = 0.019875
	minimum = 0.013 (at node 8)
	maximum = 0.026 (at node 0)
Injected flit rate average = 0.020375
	minimum = 0.011 (at node 10)
	maximum = 0.03 (at node 4)
Accepted flit rate average= 0.019875
	minimum = 0.013 (at node 8)
	maximum = 0.026 (at node 0)
Injected packet length average = 1
Accepted packet length average = 1
Total in-flight flits = 10 (0 measured)
latency change    = 0.0176539
throughput change = 0.00943396
Warmed up ...Time used is 3000 cycles
Class 0:
Packet latency average = 20.2436
	minimum = 7
	maximum = 52
Network latency average = 20.2436
	minimum = 7
	maximum = 52
Slowest packet = 28791
Flit latency average = 20.2826
	minimum = 7
	maximum = 52
Slowest flit = 28791
Fragmentation average = 0
	minimum = 0
	maximum = 0
Injected packet rate average = 0.01975
	minimum = 0.01 (at node 1)
	maximum = 0.028 (at node 8)
Accepted packet rate average = 0.020125
	minimum = 0.013 (at node 14)
	maximum = 0.031 (at node 5)
Injected flit rate average = 0.01975
	minimum = 0.01 (at node 1)
	maximum = 0.028 (at node 8)
Accepted flit rate average= 0.020125
	minimum = 0.013 (at node 14)
	maximum = 0.031 (at node 5)
Injected packet length average = 1
Accepted packet length average = 1
Total in-flight flits = 4 (4 measured)
latency change    = 0.00752805
throughput change = 0.0124224
Class 0:
Packet latency average = 19.766
	minimum = 7
	maximum = 52
Network latency average = 19.766
	minimum = 7
	maximum = 52
Slowest packet = 28791
Flit latency average = 19.7939
	minimum = 7
	maximum = 52
Slowest flit = 28791
Fragmentation average = 0
	minimum = 0
	maximum = 0
Injected packet rate average = 0.0191562
	minimum = 0.015 (at node 1)
	maximum = 0.023 (at node 8)
Accepted packet rate average = 0.0194062
	minimum = 0.0145 (at node 1)
	maximum = 0.025 (at node 5)
Injected flit rate average = 0.0191562
	minimum = 0.015 (at node 1)
	maximum = 0.023 (at node 8)
Accepted flit rate average= 0.0194062
	minimum = 0.0145 (at node 1)
	maximum = 0.025 (at node 5)
Injected packet length average = 1
Accepted packet length average = 1
Total in-flight flits = 2 (2 measured)
latency change    = 0.0241644
throughput change = 0.037037
Class 0:
Packet latency average = 19.9104
	minimum = 7
	maximum = 52
Network latency average = 19.9104
	minimum = 7
	maximum = 52
Slowest packet = 28791
Flit latency average = 19.9271
	minimum = 7
	maximum = 52
Slowest flit = 28791
Fragmentation average = 0
	minimum = 0
	maximum = 0
Injected packet rate average = 0.0195833
	minimum = 0.016 (at node 1)
	maximum = 0.023 (at node 15)
Accepted packet rate average = 0.0197292
	minimum = 0.0163333 (at node 0)
	maximum = 0.023 (at node 9)
Injected flit rate average = 0.0195833
	minimum = 0.016 (at node 1)
	maximum = 0.023 (at node 15)
Accepted flit rate average= 0.0197292
	minimum = 0.0163333 (at node 0)
	maximum = 0.023 (at node 9)
Injected packet length average = 1
Accepted packet length average = 1
Total in-flight flits = 3 (3 measured)
latency change    = 0.00725224
[...]
	maximum = 0.023 (at node 7)
Accepted packet rate average = 0.0193958
	minimum = 0.0153333 (at node 9)
	maximum = 0.024 (at node 8)
Injected flit rate average = 0.0193958
	minimum = 0.0123333 (at node 0)
	maximum = 0.023 (at node 7)
Accepted flit rate average= 0.0193958
	minimum = 0.0153333 (at node 9)
	maximum = 0.024 (at node 8)
Injected packet length average = 1
Accepted packet length average = 1
Total in-flight flits = 6 (6 measured)
latency change    = 0.0140183
throughput change = 0.00214823
Draining all recorded packets ...
Draining remaining packets ...
Time taken is 6070 cycles
Class 0:
Packet latency average = 20.2835
	minimum = 7
	maximum = 40
Network latency average = 20.2835
	minimum = 7
	maximum = 40
Slowest packet = 212466
Flit latency average = 20.2835
	minimum = 7
	maximum = 40
Slowest flit = 212466
Fragmentation average = 0
	minimum = 0
	maximum = 0
Injected packet rate average = 0.0208125
	minimum = 0.015 (at node 1)
	maximum = 0.029 (at node 15)
Accepted packet rate average = 0.0205
	minimum = 0.013 (at node 11)
	maximum = 0.028 (at node 10)
Injected flit rate average = 0.0208125
	minimum = 0.015 (at node 1)
	maximum = 0.029 (at node 15)
Accepted flit rate average= 0.0205
	minimum = 0.013 (at node 11)
	maximum = 0.028 (at node 10)
Injected packet length average = 1
Accepted packet length average = 1
Total in-flight flits = 5 (0 measured)
latency change    = 1
throughput change = 1
Class 0:
Packet latency average = 20.1208
	minimum = 7
	maximum = 46
Network latency average = 20.1208
	minimum = 7
	maximum = 46
Slowest packet = 212872
Flit latency average = 20.1208
	minimum = 7
	maximum = 46
Slowest flit = 212872
Fragmentation average = 0
	minimum = 0
	maximum = 0
Injected packet rate average = 0.0198438
	minimum = 0.012 (at node 1)
	maximum = 0.025 (at node 4)
Accepted packet rate average = 0.0196563
	minimum = 0.011 (at node 11)
	maximum = 0.026 (at node 14)
Injected flit rate average = 0.0198438
	minimum = 0.012 (at node 1)
	maximum = 0.025 (at node 4)
Accepted flit rate average= 0.0196563
	minimum = 0.011 (at node 11)
	maximum = 0.026 (at node 14)
Injected packet length average = 1
Accepted packet length average = 1
Total in-flight flits = 6 (0 measured)
latency change    = 0.00808664
throughput change = 0.0429253
Class 0:
Packet latency average = 19.9829
	minimum = 7
	maximum = 40
Network latency average = 19.9829
	minimum = 7
	maximum = 40
Slowest packet = 213032
Flit latency average = 19.9829
	minimum = 7
	maximum = 40
Slowest flit = 213032
Fragmentation average = 0
	minimum = 0
	maximum = 0
Injected packet rate average = 0.0183125
	minimum = 0.009 (at node 15)
	maximum = 0.026 (at node 4)
Accepted packet rate average = 0.0183125
	minimum = 0.011 (at node 1)
	maximum = 0.03 (at node 7)
Injected flit rate average = 0.0183125
	minimum = 0.009 (at node 15)
	maximum = 0.026 (at node 4)
Accepted flit rate average= 0.0183125
	minimum = 0.011 (at node 1)
	maximum = 0.03 (at node 7)
Injected packet length average = 1
Accepted packet length average = 1
Total in-flight flits = 6 (0 measured)
latency change    = 0.00690047
throughput change = 0.0733788
Warmed up ...Time used is 3000 cycles
Class 0:
Packet latency average = 19.9821
	minimum = 7
	maximum = 46
Network latency average = 19.9821
	minimum = 7
	maximum = 46
Slowest packet = 213360
Flit latency average = 20.0035
	minimum = 7
	maximum = 46
Slowest flit = 213360
Fragmentation average = 0
	minimum = 0
	maximum = 0
Injected packet rate average = 0.0178125
	minimum = 0.011 (at node 3)
	maximum = 0.024 (at node 12)
Accepted packet rate average = 0.017875
	minimum = 0.011 (at node 4)
	maximum = 0.026 (at node 12)
Injected flit rate average = 0.0178125
	minimum = 0.011 (at node 3)
	maximum = 0.024 (at node 12)
Accepted flit rate average= 0.017875
	minimum = 0.011 (at node 4)
	maximum = 0.026 (at node 12)
Injected packet length average = 1
Accepted packet length average = 1
Total in-flight flits = 5 (5 measured)
latency change    = 3.96502e-05
throughput change = 0.0244755
Class 0:
Packet latency average = 19.9647
	minimum = 7
	maximum = 46
Network latency average = 19.9647
	minimum = 7
	maximum = 46
Slowest packet = 213360
Flit latency average = 19.9746
	minimum = 7
	maximum = 46
Slowest flit = 213360
Fragmentation average = 0
	minimum = 0
	maximum = 0
Injected packet rate average = 0.0196875
	minimum = 0.0155 (at node 0)
	maximum = 0.025 (at node 13)
Accepted packet rate average = 0.0196875
	minimum = 0.0165 (at node 3)
	maximum = 0.0245 (at node 8)
Injected flit rate average = 0.0196875
	minimum = 0.0155 (at node 0)
	maximum = 0.025 (at node 13)
Accepted flit rate average= 0.0196875
	minimum = 0.0165 (at node 3)
	maximum = 0.0245 (at node 8)
Injected packet length average = 1
Accepted packet length average = 1
Total in-flight flits = 6 (6 measured)
latency change    = 0.0008715
throughput change = 0.0920635
Class 0:
Packet latency average = 20.0133
	minimum = 7
	maximum = 46
Network latency average = 20.0133
	minimum = 7
	maximum = 46
Slowest packet = 213360
Flit latency average = 20.0194
	minimum = 7
	maximum = 46
Slowest flit = 213360
Fragmentation average = 0
	minimum = 0
	maximum = 0
Injected packet rate average = 0.0204583
	minimum = 0.0173333 (at node 0)
	maximum = 0.0266667 (at node 5)
Accepted packet rate average = 0.0204375
	minimum = 0.0173333 (at node 5)
	maximum = 0.0253333 (at node 8)
Injected flit rate average = 0.0204583
	minimum = 0.0173333 (at node 0)
	maximum = 0.0266667 (at node 5)
Accepted flit rate average= 0.0204375
	minimum = 0.0173333 (at node 5)
	maximum = 0.0253333 (at node 8)
Injected packet length average = 1
Accepted packet length average = 1
Total in-flight flits = 7 (7 measured)
latency change    = 0.00242787
throughput change = 0.0366972
Class 0:
Packet latency average = 20.0131
	minimum = 7
	maximum = 46
Network latency average = 20.0131
	minimum = 7
	maximum = 46
Slowest packet = 213360
Flit latency average = 20.0177
	minimum = 7
	maximum = 46
Slowest flit = 213360
Fragmentation average = 0
	minimum = 0
	maximum = 0
Injected packet rate average = 0.0203594
	minimum = 0.01675 (at node 7)
	maximum = 0.02475 (at node 1)
Accepted packet rate average = 0.0203438
	minimum = 0.016 (at node 5)
	maximum = 0.02275 (at node 8)
Injected flit rate average = 0.0203594
	minimum = 0.01675 (at node 7)
	maximum = 0.02475 (at node 1)
Accepted flit rate average= 0.0203438
	minimum = 0.016 (at node 5)
	maximum = 0.02275 (at node 8)
Injected packet length average = 1
Accepted packet length average = 1
Total in-flight flits = 7 (7 measured)
latency change    = 1.07954e-05
throughput change = 0.00460829
Class 0:
Packet latency average = 20.0006
	minimum = 7
	maximum = 46
Network latency average = 20.0006
	minimum = 7
	maximum = 46
Slowest packet = 213360
Flit latency average = 20.0044
	minimum = 7
	maximum = 46
Slowest flit = 213360
Fragmentation average = 0
	minimum = 0
	maximum = 0
Injected packet rate average = 0.0200375
	minimum = 0.0172 (at node 7)
	maximum = 0.024 (at node 1)
Accepted packet rate average = 0.020025
	minimum = 0.017 (at node 5)
	maximum = 0.0216 (at node 8)
Injected flit rate average = 0.0200375
	minimum = 0.0172 (at node 7)
	maximum = 0.024 (at node 1)
Accepted flit rate average= 0.020025
	minimum = 0.017 (at node 5)
	maximum = 0.0216 (at node 8)
Injected packet length average = 1
Accepted packet length average = 1
Total in-flight flits = 7 (7 measured)
latency change    = 0.000624516
throughput change = 0.0159176
Draining all recorded packets ...
Draining remaining packets ...
Time taken is 8037 cycles
Class 0:
Packet latency average = 19.8944
	minimum = 7
	maximum = 41
Network latency average = 19.8944
	minimum = 7
	maximum = 41
Slowest packet = 215090
Flit latency average = 19.8944
	minimum = 7
	maximum = 41
Slowest flit = 215090
Fragmentation average = 0
	minimum = 0
	maximum = 0
Injected packet rate average = 0.0204375
	minimum = 0.014 (at node 0)
	maximum = 0.028 (at node 2)
Accepted packet rate average = 0.020125
	minimum = 0.014 (at node 14)
	maximum = 0.031 (at node 5)
Injected flit rate average = 0.0204375
	minimum = 0.014 (at node 0)
	maximum = 0.028 (at node 2)
Accepted flit rate average= 0.020125
	minimum = 0.014 (at node 14)
	maximum = 0.031 (at node 5)
Injected packet length average = 1
Accepted packet length average = 1
Total in-flight flits = 5 (0 measured)
latency change    = 1
throughput change = 1
Class 0:
Packet latency average = 19.9938
	minimum = 7
	maximum = 54
Network latency average = 19.9938
	minimum = 7
	maximum = 54
Slowest packet = 215364
Flit latency average = 19.9938
	minimum = 7
	maximum = 54
Slowest flit = 215364
Fragmentation average = 0
	minimum = 0
	maximum = 0
Injected packet rate average = 0.0203438
	minimum = 0.0155 (at node 0)
	maximum = 0.024 (at node 1)
Accepted packet rate average = 0.0200313
	minimum = 0.0155 (at node 7)
	maximum = 0.0245 (at node 6)
Injected flit rate average = 0.0203438
	minimum = 0.0155 (at node 0)
	maximum = 0.024 (at node 1)
Accepted flit rate average= 0.0200313
	minimum = 0.0155 (at node 7)
	maximum = 0.0245 (at node 6)
Injected packet length average = 1
Accepted packet length average = 1
Total in-flight flits = 10 (0 measured)
latency change    = 0.00496904
throughput change = 0.00468019
Class 0:
Packet latency average = 19.8627
	minimum = 7
	maximum = 37
Network latency average = 19.8627
	minimum = 7
	maximum = 37
Slowest packet = 215628
Flit latency average = 19.8627
	minimum = 7
	maximum = 37
Slowest flit = 215628
Fragmentation average = 0
	minimum = 0
	maximum = 0
Injected packet rate average = 0.0186875
	minimum = 0.01 (at node 4)
	maximum = 0.024 (at node 2)
Accepted packet rate average = 0.019125
	minimum = 0.01 (at node 6)
	maximum = 0.026 (at node 0)
Injected flit rate average = 0.0186875
	minimum = 0.01 (at node 4)
	maximum = 0.024 (at node 2)
Accepted flit rate average= 0.019125
	minimum = 0.01 (at node 6)
	maximum = 0.026 (at node 0)
Injected packet length average = 1
Accepted packet length average = 1
Total in-flight flits = 3 (0 measured)
latency change    = 0.006596
throughput change = 0.0473856
Warmed up ...Time used is 3000 cycles
Class 0:
Packet latency average = 20.0378
	minimum = 7
	maximum = 42
Network latency average = 20.0378
	minimum = 7
	maximum = 42
Slowest packet = 216081
Flit latency average = 20.0476
	minimum = 7
	maximum = 42
Slowest flit = 216081
Fragmentation average = 0
	minimum = 0
	maximum = 0
Injected packet rate average = 0.0184375
	minimum = 0.01 (at node 13)
	maximum = 0.027 (at node 6)
Accepted packet rate average = 0.018375
	minimum = 0.013 (at node 10)
	maximum = 0.025 (at node 6)
Injected flit rate average = 0.0184375
	minimum = 0.01 (at node 13)
	maximum = 0.027 (at node 6)
Accepted flit rate average= 0.018375
	minimum = 0.013 (at node 10)
	maximum = 0.025 (at node 6)
Injected packet length average = 1
Accepted packet length average = 1
Total in-flight flits = 4 (4 measured)
latency change    = 0.00873627
throughput change = 0.0408163
Class 0:
Packet latency average = 19.6054
	minimum = 7
	maximum = 48
Network latency average = 19.6054
	minimum = 7
	maximum = 48
Slowest packet = 216312
Flit latency average = 19.6124
	minimum = 7
	maximum = 48
Slowest flit = 216312
Fragmentation average = 0
	minimum = 0
	maximum = 0
Injected packet rate average = 0.0187187
	minimum = 0.014 (at node 0)
	maximum = 0.0245 (at node 8)
Accepted packet rate average = 0.018625
	minimum = 0.015 (at node 5)
	maximum = 0.023 (at node 15)
Injected flit rate average = 0.0187187
	minimum = 0.014 (at node 0)
	maximum = 0.0245 (at node 8)
Accepted flit rate average= 0.018625
	minimum = 0.015 (at node 5)
	maximum = 0.023 (at node 15)
Injected packet length average = 1
Accepted packet length average = 1
Total in-flight flits = 6 (6 measured)
latency change    = 0.0220554
throughput change = 0.0134228
Class 0:
Packet latency average = 19.663
	minimum = 7
	maximum = 48
Network latency average = 19.663
	minimum = 7
	maximum = 48
Slowest packet = 216312
Flit latency average = 19.6674
	minimum = 7
	maximum = 48
Slowest flit = 216312
Fragmentation average = 0
	minimum = 0
	maximum = 0
Injected packet rate average = 0.0192083
	minimum = 0.014 (at node 0)
	maximum = 0.0236667 (at node 6)
Accepted packet rate average = 0.0191042
	minimum = 0.014 (at node 7)
	maximum = 0.0226667 (at node 15)
Injected flit rate average = 0.0192083
	minimum = 0.014 (at node 0)
	maximum = 0.0236667 (at node 6)
Accepted flit rate average= 0.0191042
	minimum = 0.014 (at node 7)
	maximum = 0.0226667 (at node 15)
Injected packet length average = 1
Accepted packet length average = 1
Total in-flight flits = 8 (8 measured)
latency change    = 0.00293055
throughput change = 0.0250818
Draining all recorded packets ...
Draining remaining packets ...
Time taken is 6074 cycles
Class 0:
Packet latency average = 20.224
	minimum = 7
	maximum = 52
Network latency average = 20.224
	minimum = 7
	maximum = 52
Slowest packet = 216973
Flit latency average = 20.224
	minimum = 7
	maximum = 52
Slowest flit = 216973
Fragmentation average = 0
	minimum = 0
	maximum = 0
Injected packet rate average = 0.0195625
	minimum = 0.012 (at node 11)
	maximum = 0.027 (at node 4)
Accepted packet rate average = 0.01925
	minimum = 0.009 (at node 9)
	maximum = 0.029 (at node 4)
Injected flit rate average = 0.0195625
	minimum = 0.012 (at node 11)
	maximum = 0.027 (at node 4)
Accepted flit rate average= 0.01925
	minimum = 0.009 (at node 9)
	maximum = 0.029 (at node 4)
Injected packet length average = 1
Accepted packet length average = 1
Total in-flight flits = 5 (0 measured)
latency change    = 1
throughput change = 1
Class 0:
Packet latency average = 20.0808
	minimum = 7
	maximum = 52
Network latency average = 20.0808
	minimum = 7
	maximum = 52
Slowest packet = 216973
Flit latency average = 20.0808
	minimum = 7
	maximum = 52
Slowest flit = 216973
Fragmentation average = 0
	minimum = 0
	maximum = 0
Injected packet rate average = 0.018375
	minimum = 0.0145 (at node 11)
	maximum = 0.023 (at node 12)
Accepted packet rate average = 0.0181875
	minimum = 0.0095 (at node 9)
	maximum = 0.024 (at node 4)
Injected flit rate average = 0.018375
	minimum = 0.0145 (at node 11)
	maximum = 0.023 (at node 12)
Accepted flit rate average= 0.0181875
	minimum = 0.0095 (at node 9)
	maximum = 0.024 (at node 4)
Injected packet length average = 1
Accepted packet length average = 1
Total in-flight flits = 6 (0 measured)
latency change    = 0.00713469
throughput change = 0.0584192
Class 0:
Packet latency average = 19.4267
	minimum = 7
	maximum = 37
Network latency average = 19.4267
	minimum = 7
	maximum = 37
Slowest packet = 217557
Flit latency average = 19.4267
	minimum = 7
	maximum = 37
Slowest flit = 217557
Fragmentation average = 0
	minimum = 0
	maximum = 0
Injected packet rate average = 0.019375
	minimum = 0.015 (at node 13)
	maximum = 0.024 (at node 4)
Accepted packet rate average = 0.0191875
	minimum = 0.013 (at node 5)
	maximum = 0.026 (at node 1)
Injected flit rate average = 0.019375
	minimum = 0.015 (at node 13)
	maximum = 0.024 (at node 4)
Accepted flit rate average= 0.0191875
	minimum = 0.013 (at node 5)
	maximum = 0.026 (at node 1)
Injected packet length average = 1
Accepted packet length average = 1
Total in-flight flits = 9 (0 measured)
latency change    = 0.0336674
throughput change = 0.0521173
Warmed up ...Time used is 3000 cycles
Class 0:
Packet latency average = 20.4903
	minimum = 7
	maximum = 41
Network latency average = 20.4903
	minimum = 7
	maximum = 41
Slowest packet = 217758
Flit latency average = 20.6144
	minimum = 7
	maximum = 41
Slowest flit = 217758
Fragmentation average = 0
	minimum = 0
	maximum = 0
Injected packet rate average = 0.02
	minimum = 0.013 (at node 3)
	maximum = 0.026 (at node 8)
Accepted packet rate average = 0.0199375
	minimum = 0.007 (at node 14)
	maximum = 0.034 (at node 2)
Injected flit rate average = 0.02
	minimum = 0.013 (at node 3)
	maximum = 0.026 (at node 8)
Accepted flit rate average= 0.0199375
	minimum = 0.007 (at node 14)
	maximum = 0.034 (at node 2)
Injected packet length average = 1
Accepted packet length average = 1
Total in-flight flits = 10 (10 measured)
latency change    = 0.051908
throughput change = 0.0376176
Class 0:
Packet latency average = 20.5599
	minimum = 7
	maximum = 41
Network latency average = 20.5599
	minimum = 7
	maximum = 41
Slowest packet = 217758
Flit latency average = 20.6196
	minimum = 7
	maximum = 41
Slowest flit = 217758
Fragmentation average = 0
	minimum = 0
	maximum = 0
Injected packet rate average = 0.0201875
	minimum = 0.0165 (at node 11)
	maximum = 0.025 (at node 10)
Accepted packet rate average = 0.020375
	minimum = 0.013 (at node 14)
	maximum = 0.028 (at node 15)
Injected flit rate average = 0.0201875
	minimum = 0.0165 (at node 11)
	maximum = 0.025 (at node 10)
Accepted flit rate average= 0.020375
	minimum = 0.013 (at node 14)
	maximum = 0.028 (at node 15)
Injected packet length average = 1
Accepted packet length average = 1
Total in-flight flits = 3 (3 measured)
latency change    = 0.00338295
throughput change = 0.0214724
Class 0:
Packet latency average = 20.3827
	minimum = 7
	maximum = 42
Network latency average = 20.3827
	minimum = 7
	maximum = 42
Slowest packet = 218409
Flit latency average = 20.4251
	minimum = 7
	maximum = 42
Slowest flit = 218409
Fragmentation average = 0
	minimum = 0
	maximum = 0
Injected packet rate average = 0.0197917
	minimum = 0.0163333 (at node 11)
	maximum = 0.0236667 (at node 15)
Accepted packet rate average = 0.0198958
	minimum = 0.0153333 (at node 11)
	maximum = 0.0246667 (at node 2)
Injected flit rate average = 0.0197917
	minimum = 0.0163333 (at node 11)
	maximum = 0.0236667 (at node 15)
Accepted flit rate average= 0.0198958
	minimum = 0.0153333 (at node 11)
	maximum = 0.0246667 (at node 2)
Injected packet length average = 1
Accepted packet length average = 1
Total in-flight flits = 4 (4 measured)
latency change    = 0.00869424
throughput change = 0.0240838
Class 0:
Packet latency average = 20.2235
	minimum = 7
	maximum = 42
Network latency average = 20.2235
	minimum = 7
	maximum = 42
Slowest packet = 218409
Flit latency average = 20.2558
	minimum = 7
	maximum = 42
Slowest flit = 218409
Fragmentation average = 0
	minimum = 0
	maximum = 0
Injected packet rate average = 0.0203438
	minimum = 0.0175 (at node 14)
	maximum = 0.023 (at node 15)
Accepted packet rate average = 0.0203438
	minimum = 0.01425 (at node 14)
	maximum = 0.02375 (at node 0)
Injected flit rate average = 0.0203438
	minimum = 0.0175 (at node 14)
	maximum = 0.023 (at node 15)
Accepted flit rate average= 0.0203438
	minimum = 0.01425 (at node 14)
	maximum = 0.02375 (at node 0)
Injected packet length average = 1
Accepted packet length average = 1
Total in-flight flits = 9 (9 measured)
latency change    = 0.00786968
throughput change = 0.0220174
Draining all recorded packets ...
Draining remaining packets ...
Time taken is 7050 cycles
====== Overall Traffic Statistics ======
====== Traffic class 0 ======
Packet latency average = 19.9079 (100 samples)
	minimum = 7 (100 samples)
	maximum = 49.37 (100 samples)
Network latency average = 19.9079 (100 samples)
	minimum = 7 (100 samples)
	maximum = 49.37 (100 samples)
Flit latency average = 19.9205 (100 samples)
	minimum = 7 (100 samples)
	maximum = 49.44 (100 samples)
Fragmentation average = 0 (100 samples)
	minimum = 0 (100 samples)
	maximum = 0 (100 samples)
Injected packet rate average = 0.0200757 (100 samples)
	minimum = 0.0160991 (100 samples)
	maximum = 0.0242217 (100 samples)
Accepted packet rate average = 0.0200707 (100 samples)
	minimum = 0.0160915 (100 samples)
	maximum = 0.0243848 (100 samples)
Injected flit rate average = 0.0200757 (100 samples)
	minimum = 0.0160991 (100 samples)
	maximum = 0.0242217 (100 samples)
Accepted flit rate average = 0.0200707 (100 samples)
	minimum = 0.0160915 (100 samples)
	maximum = 0.0243848 (100 samples)
Injected packet size average = 1 (100 samples)
Accepted packet size average = 1 (100 samples)
Hops average = 3.49617 (100 samples)
Total run time 13.7957
