BEGIN Configuration File: /tmp/tmp3fgpgh0l.cfg
topology = mesh;
k = 8; n = 2;
routing_function = dor;
num_vcs = 4; vc_buf_size = 4;
wait_for_tail_credit = 1;
vc_allocator = islip; sw_allocator = islip;
alloc_iters = 1;
credit_delay = 2; routing_delay = 1;
vc_alloc_delay = 1; sw_alloc_delay = 1;
input_speedup = 2; output_speedup = 1; internal_speedup = 1.0;
traffic = transpose;
packet_size = 1; sim_type = latency;
injection_rate = 0.01;
warmup_periods = 3; sample_period = 1000; sim_count = 100;
seed = 3;

END Configuration File: /tmp/tmp3fgpgh0l.cfg
Class 0:
Packet latency average = 32.7746
	minimum = 7
	maximum = 77
Network latency average = 32.7746
	minimum = 7
	maximum = 77
Slowest packet = 15
Flit latency average = 32.7746
	minimum = 7
	maximum = 77
Slowest flit = 15
Fragmentation average = 0
	minimum = 0
	maximum = 0
Injected packet rate average = 0.00920312
	minimum = 0.003 (at node 56)
	maximum = 0.016 (at node 11)
Accepted packet rate average = 0.008875
	minimum = 0.002 (at node 7)
	maximum = 0.016 (at node 25)
Injected flit rate average = 0.00920312
	minimum = 0.003 (at node 56)
	maximum = 0.016 (at node 11)
Accepted flit rate average= 0.008875
	minimum = 0.002 (at node 7)
	maximum = 0.016 (at node 25)
Injected packet length average = 1
Accepted packet length average = 1
Total in-flight flits = 21 (0 measured)
latency change    = 1
throughput change = 1
Class 0:
Packet latency average = 33.5188
	minimum = 7
	maximum = 79
Network latency average = 33.5188
	minimum = 7
	maximum = 79
Slowest packet = 732
Flit latency average = 33.5188
	minimum = 7
	maximum = 79
Slowest flit = 732
Fragmentation average = 0
	minimum = 0
	maximum = 0
Injected packet rate average = 0.00989063
	minimum = 0.005 (at node 36)
	maximum = 0.014 (at node 57)
Accepted packet rate average = 0.00975781
	minimum = 0.005 (at node 36)
	maximum = 0.0135 (at node 6)
Injected flit rate average = 0.00989063
	minimum = 0.005 (at node 36)
	maximum = 0.014 (at node 57)
Accepted flit rate average= 0.00975781
	minimum = 0.005 (at node 36)
	maximum = 0.0135 (at node 6)
Injected packet length average = 1
Accepted packet length average = 1
Total in-flight flits = 17 (0 measured)
latency change    = 0.0222015
throughput change = 0.0904724
Class 0:
Packet latency average = 33.1602
	minimum = 7
	maximum = 78
Network latency average = 33.1602
	minimum = 7
	maximum = 78
Slowest packet = 1232
Flit latency average = 33.1602
	minimum = 7
	maximum = 78
Slowest flit = 1232
Fragmentation average = 0
	minimum = 0
	maximum = 0
Injected packet rate average = 0.0100781
	minimum = 0.005 (at node 26)
	maximum = 0.02 (at node 16)
Accepted packet rate average = 0.0100469
	minimum = 0.005 (at node 19)
	maximum = 0.02 (at node 2)
Injected flit rate average = 0.0100781
	minimum = 0.005 (at node 26)
	maximum = 0.02 (at node 16)
Accepted flit rate average= 0.0100469
	minimum = 0.005 (at node 19)
	maximum = 0.02 (at node 2)
Injected packet length average = 1
Accepted packet length average = 1
Total in-flight flits = 19 (0 measured)
latency change    = 0.010815
throughput change = 0.0287714
Warmed up ...Time used is 3000 cycles
Class 0:
Packet latency average = 34.7673
	minimum = 7
	maximum = 77
Network latency average = 34.7673
	minimum = 7
	maximum = 77
Slowest packet = 1925
Flit latency average = 34.8168
	minimum = 7
	maximum = 77
Slowest flit = 1903
Fragmentation average = 0
	minimum = 0
	maximum = 0
Injected packet rate average = 0.0102344
	minimum = 0.003 (at node 12)
	maximum = 0.017 (at node 19)
Accepted packet rate average = 0.0102344
	minimum = 0.003 (at node 33)
	maximum = 0.017 (at node 12)
Injected flit rate average = 0.0102344
	minimum = 0.003 (at node 12)
	maximum = 0.017 (at node 19)
Accepted flit rate average= 0.0102344
	minimum = 0.003 (at node 33)
	maximum = 0.017 (at node 12)
Injected packet length average = 1
Accepted packet length average = 1
Total in-flight flits = 19 (19 measured)
latency change    = 0.0462247
throughput change = 0.0183206
Class 0:
Packet latency average = 33.869
	minimum = 7
	maximum = 78
Network latency average = 33.869
	minimum = 7
	maximum = 78
Slowest packet = 2973
Flit latency average = 33.9068
	minimum = 7
	maximum = 78
Slowest flit = 2973
Fragmentation average = 0
	minimum = 0
	maximum = 0
Injected packet rate average = 0.0102344
	minimum = 0.005 (at node 12)
	maximum = 0.0175 (at node 57)
Accepted packet rate average = 0.0102266
	minimum = 0.005 (at node 33)
	maximum = 0.0175 (at node 15)
Injected flit rate average = 0.0102344
	minimum = 0.005 (at node 12)
	maximum = 0.0175 (at node 57)
Accepted flit rate average= 0.0102266
	minimum = 0.005 (at node 33)
	maximum = 0.0175 (at node 15)
Injected packet length average = 1
Accepted packet length average = 1
Total in-flight flits = 20 (20 measured)
latency change    = 0.0265229
throughput change = 0.000763942
Class 0:
Packet latency average = 33.033
	minimum = 7
	maximum = 78
Network latency average = 33.033
	minimum = 7
	maximum = 78
Slowest packet = 2973
Flit latency average = 33.0653
	minimum = 7
	maximum = 78
Slowest flit = 2973
Fragmentation average = 0
	minimum = 0
	maximum = 0
Injected packet rate average = 0.0105313
	minimum = 0.006 (at node 15)
	maximum = 0.0156667 (at node 57)
Accepted packet rate average = 0.0105208
	minimum = 0.006 (at node 57)
	maximum = 0.0153333 (at node 18)
Injected flit rate average = 0.0105313
	minimum = 0.006 (at node 15)
	maximum = 0.0156667 (at node 57)
Accepted flit rate average= 0.0105208
	minimum = 0.006 (at node 57)
	maximum = 0.0153333 (at node 18)
Injected packet length average = 1
Accepted packet length average = 1
Total in-flight flits = 21 (21 measured)
latency change    = 0.0253083
throughput change = 0.0279703
Draining all recorded packets ...
Draining remaining packets ...
Time taken is 6139 cycles
Class 0:
Packet latency average = 33.9592
	minimum = 7
	maximum = 78
Network latency average = 33.9592
	minimum = 7
	maximum = 78
Slowest packet = 4148
Flit latency average = 33.9592
	minimum = 7
	maximum = 78
Slowest flit = 4148
Fragmentation average = 0
	minimum = 0
	maximum = 0
Injected packet rate average = 0.0101875
	minimum = 0.004 (at node 17)
	maximum = 0.02 (at node 57)
Accepted packet rate average = 0.00995313
	minimum = 0.004 (at node 10)
	maximum = 0.02 (at node 15)
Injected flit rate average = 0.0101875
	minimum = 0.004 (at node 17)
	maximum = 0.02 (at node 57)
Accepted flit rate average= 0.00995313
	minimum = 0.004 (at node 10)
	maximum = 0.02 (at node 15)
Injected packet length average = 1
Accepted packet length average = 1
Total in-flight flits = 15 (0 measured)
latency change    = 1
throughput change = 1
Class 0:
Packet latency average = 33.6225
	minimum = 7
	maximum = 78
Network latency average = 33.6225
	minimum = 7
	maximum = 78
Slowest packet = 4148
Flit latency average = 33.6225
	minimum = 7
	maximum = 78
Slowest flit = 4148
Fragmentation average = 0
	minimum = 0
	maximum = 0
Injected packet rate average = 0.00984375
	minimum = 0.006 (at node 58)
	maximum = 0.0155 (at node 57)
Accepted packet rate average = 0.00966406
	minimum = 0.006 (at node 23)
	maximum = 0.0155 (at node 15)
Injected flit rate average = 0.00984375
	minimum = 0.006 (at node 58)
	maximum = 0.0155 (at node 57)
Accepted flit rate average= 0.00966406
	minimum = 0.006 (at node 23)
	maximum = 0.0155 (at node 15)
Injected packet length average = 1
Accepted packet length average = 1
Total in-flight flits = 23 (0 measured)
latency change    = 0.0100144
throughput change = 0.0299111
Class 0:
Packet latency average = 34.315
	minimum = 7
	maximum = 77
Network latency average = 34.315
	minimum = 7
	maximum = 77
Slowest packet = 5221
Flit latency average = 34.315
	minimum = 7
	maximum = 77
Slowest flit = 5221
Fragmentation average = 0
	minimum = 0
	maximum = 0
Injected packet rate average = 0.0102031
	minimum = 0.004 (at node 19)
	maximum = 0.017 (at node 14)
Accepted packet rate average = 0.0102188
	minimum = 0.004 (at node 3)
	maximum = 0.017 (at node 46)
Injected flit rate average = 0.0102031
	minimum = 0.004 (at node 19)
	maximum = 0.017 (at node 14)
Accepted flit rate average= 0.0102188
	minimum = 0.004 (at node 3)
	maximum = 0.017 (at node 46)
Injected packet length average = 1
Accepted packet length average = 1
Total in-flight flits = 22 (0 measured)
latency change    = 0.020181
throughput change = 0.0542813
Warmed up ...Time used is 3000 cycles
Class 0:
Packet latency average = 32.8789
	minimum = 7
	maximum = 78
Network latency average = 32.8789
	minimum = 7
	maximum = 78
Slowest packet = 6122
Flit latency average = 33.2102
	minimum = 7
	maximum = 78
Slowest flit = 6122
Fragmentation average = 0
	minimum = 0
	maximum = 0
Injected packet rate average = 0.0103906
	minimum = 0.004 (at node 26)
	maximum = 0.021 (at node 31)
Accepted packet rate average = 0.0104063
	minimum = 0.004 (at node 19)
	maximum = 0.019 (at node 1)
Injected flit rate average = 0.0103906
	minimum = 0.004 (at node 26)
	maximum = 0.021 (at node 31)
Accepted flit rate average= 0.0104063
	minimum = 0.004 (at node 19)
	maximum = 0.019 (at node 1)
Injected packet length average = 1
Accepted packet length average = 1
Total in-flight flits = 21 (21 measured)
latency change    = 0.0436786
throughput change = 0.018018
Class 0:
Packet latency average = 32.6826
	minimum = 7
	maximum = 78
Network latency average = 32.6826
	minimum = 7
	maximum = 78
Slowest packet = 6122
Flit latency average = 32.853
	minimum = 7
	maximum = 78
Slowest flit = 6122
Fragmentation average = 0
	minimum = 0
	maximum = 0
Injected packet rate average = 0.0102422
	minimum = 0.005 (at node 41)
	maximum = 0.0155 (at node 8)
Accepted packet rate average = 0.0103125
	minimum = 0.005 (at node 13)
	maximum = 0.0155 (at node 1)
Injected flit rate average = 0.0102422
	minimum = 0.005 (at node 41)
	maximum = 0.0155 (at node 8)
Accepted flit rate average= 0.0103125
	minimum = 0.005 (at node 13)
	maximum = 0.0155 (at node 1)
Injected packet length average = 1
Accepted packet length average = 1
Total in-flight flits = 13 (13 measured)
latency change    = 0.00600605
throughput change = 0.00909091
Class 0:
Packet latency average = 32.8919
	minimum = 7
	maximum = 78
Network latency average = 32.8919
	minimum = 7
	maximum = 78
Slowest packet = 6122
Flit latency average = 33.0041
	minimum = 7
	maximum = 78
Slowest flit = 6122
Fragmentation average = 0
	minimum = 0
	maximum = 0
Injected packet rate average = 0.0102448
	minimum = 0.00533333 (at node 43)
	maximum = 0.0143333 (at node 8)
Accepted packet rate average = 0.0102344
	minimum = 0.00566667 (at node 29)
	maximum = 0.0143333 (at node 63)
Injected flit rate average = 0.0102448
	minimum = 0.00533333 (at node 43)
	maximum = 0.0143333 (at node 8)
Accepted flit rate average= 0.0102344
	minimum = 0.00566667 (at node 29)
	maximum = 0.0143333 (at node 63)
Injected packet length average = 1
Accepted packet length average = 1
Total in-flight flits = 24 (24 measured)
latency change    = 0.00636421
throughput change = 0.00763359
Draining all recorded packets ...
Draining remaining packets ...
Time taken is 6105 cycles
Class 0:
Packet latency average = 33.277
	minimum = 7
	maximum = 77
Network latency average = 33.277
	minimum = 7
	maximum = 77
Slowest packet = 7900
Flit latency average = 33.277
	minimum = 7
	maximum = 77
Slowest flit = 7900
Fragmentation average = 0
	minimum = 0
	maximum = 0
Injected packet rate average = 0.0104063
	minimum = 0.005 (at node 8)
	maximum = 0.02 (at node 53)
Accepted packet rate average = 0.00998438
	minimum = 0.004 (at node 1)
	maximum = 0.019 (at node 46)
Injected flit rate average = 0.0104063
	minimum = 0.005 (at node 8)
	maximum = 0.02 (at node 53)
Accepted flit rate average= 0.00998438
	minimum = 0.004 (at node 1)
	maximum = 0.019 (at node 46)
Injected packet length average = 1
Accepted packet length average = 1
Total in-flight flits = 27 (0 measured)
latency change    = 1
throughput change = 1
Class 0:
Packet latency average = 32.9222
	minimum = 7
	maximum = 78
Network latency average = 32.9222
	minimum = 7
	maximum = 78
Slowest packet = 8942
Flit latency average = 32.9222
	minimum = 7
	maximum = 78
Slowest flit = 8942
Fragmentation average = 0
	minimum = 0
	maximum = 0
Injected packet rate average = 0.0100391
	minimum = 0.006 (at node 52)
	maximum = 0.0165 (at node 29)
Accepted packet rate average = 0.0099375
	minimum = 0.0055 (at node 38)
	maximum = 0.0165 (at node 43)
Injected flit rate average = 0.0100391
	minimum = 0.006 (at node 52)
	maximum = 0.0165 (at node 29)
Accepted flit rate average= 0.0099375
	minimum = 0.0055 (at node 38)
	maximum = 0.0165 (at node 43)
Injected packet length average = 1
Accepted packet length average = 1
Total in-flight flits = 13 (0 measured)
latency change    = 0.0107777
throughput change = 0.00471698
Class 0:
Packet latency average = 34.1641
	minimum = 7
	maximum = 77
Network latency average = 34.1641
	minimum = 7
	maximum = 77
Slowest packet = 9161
Flit latency average = 34.1641
	minimum = 7
	maximum = 77
Slowest flit = 9161
Fragmentation average = 0
	minimum = 0
	maximum = 0
Injected packet rate average = 0.0103906
	minimum = 0.003 (at node 63)
	maximum = 0.017 (at node 50)
Accepted packet rate average = 0.0101875
	minimum = 0.003 (at node 59)
	maximum = 0.017 (at node 22)
Injected flit rate average = 0.0103906
	minimum = 0.003 (at node 63)
	maximum = 0.017 (at node 50)
Accepted flit rate average= 0.0101875
	minimum = 0.003 (at node 59)
	maximum = 0.017 (at node 22)
Injected packet length average = 1
Accepted packet length average = 1
Total in-flight flits = 26 (0 measured)
latency change    = 0.0363522
throughput change = 0.0245399
Warmed up ...Time used is 3000 cycles
Class 0:
Packet latency average = 33.7935
	minimum = 7
	maximum = 77
Network latency average = 33.7935
	minimum = 7
	maximum = 77
Slowest packet = 9837
Flit latency average = 34.3604
	minimum = 7
	maximum = 77
Slowest flit = 9807
Fragmentation average = 0
	minimum = 0
	maximum = 0
Injected packet rate average = 0.01
	minimum = 0.004 (at node 8)
	maximum = 0.017 (at node 37)
Accepted packet rate average = 0.0100156
	minimum = 0.004 (at node 1)
	maximum = 0.017 (at node 6)
Injected flit rate average = 0.01
	minimum = 0.004 (at node 8)
	maximum = 0.017 (at node 37)
Accepted flit rate average= 0.0100156
	minimum = 0.004 (at node 1)
	maximum = 0.017 (at node 6)
Injected packet length average = 1
Accepted packet length average = 1
Total in-flight flits = 25 (25 measured)
latency change    = 0.010967
throughput change = 0.0171607
Class 0:
Packet latency average = 33.4538
	minimum = 7
	maximum = 77
Network latency average = 33.4538
	minimum = 7
	maximum = 77
Slowest packet = 9837
Flit latency average = 33.7467
	minimum = 7
	maximum = 77
Slowest flit = 9807
Fragmentation average = 0
	minimum = 0
	maximum = 0
Injected packet rate average = 0.009875
	minimum = 0.006 (at node 29)
	maximum = 0.016 (at node 49)
Accepted packet rate average = 0.00992969
	minimum = 0.006 (at node 36)
	maximum = 0.0155 (at node 44)
Injected flit rate average = 0.009875
	minimum = 0.006 (at node 29)
	maximum = 0.016 (at node 49)
Accepted flit rate average= 0.00992969
	minimum = 0.006 (at node 36)
	maximum = 0.0155 (at node 44)
Injected packet length average = 1
Accepted packet length average = 1
Total in-flight flits = 19 (19 measured)
latency change    = 0.0101537
throughput change = 0.0086546
Class 0:
Packet latency average = 33.4388
	minimum = 7
	maximum = 83
Network latency average = 33.4388
	minimum = 7
	maximum = 83
Slowest packet = 11318
Flit latency average = 33.6352
	minimum = 7
	maximum = 83
Slowest flit = 11318
Fragmentation average = 0
	minimum = 0
	maximum = 0
Injected packet rate average = 0.00983333
	minimum = 0.006 (at node 5)
	maximum = 0.0136667 (at node 3)
Accepted packet rate average = 0.00988021
	minimum = 0.00633333 (at node 40)
	maximum = 0.0136667 (at node 14)
Injected flit rate average = 0.00983333
	minimum = 0.006 (at node 5)
	maximum = 0.0136667 (at node 3)
Accepted flit rate average= 0.00988021
	minimum = 0.00633333 (at node 40)
	maximum = 0.0136667 (at node 14)
Injected packet length average = 1
Accepted packet length average = 1
Total in-flight flits = 17 (17 measured)
latency change    = 0.000448954
throughput change = 0.00500791
Draining all recorded packets ...
Draining remaining packets ...
Time taken is 6119 cycles
Class 0:
Packet latency average = 31.0536
	minimum = 7
	maximum = 77
Network latency average = 31.0536
	minimum = 7
	maximum = 77
Slowest packet = 11816
Flit latency average = 31.0536
	minimum = 7
	maximum = 77
Slowest flit = 11816
Fragmentation average = 0
	minimum = 0
	maximum = 0
Injected packet rate average = 0.0100625
	minimum = 0.004 (at node 15)
	maximum = 0.022 (at node 47)
Accepted packet rate average = 0.009625
	minimum = 0.004 (at node 31)
	maximum = 0.02 (at node 49)
Injected flit rate average = 0.0100625
	minimum = 0.004 (at node 15)
	maximum = 0.022 (at node 47)
Accepted flit rate average= 0.009625
	minimum = 0.004 (at node 31)
	maximum = 0.02 (at node 49)
Injected packet length average = 1
Accepted packet length average = 1
Total in-flight flits = 28 (0 measured)
latency change    = 1
throughput change = 1
Class 0:
Packet latency average = 31.9257
	minimum = 7
	maximum = 78
Network latency average = 31.9257
	minimum = 7
	maximum = 78
Slowest packet = 12783
Flit latency average = 31.9257
	minimum = 7
	maximum = 78
Slowest flit = 12783
Fragmentation average = 0
	minimum = 0
	maximum = 0
Injected packet rate average = 0.00991406
	minimum = 0.005 (at node 59)
	maximum = 0.0165 (at node 14)
Accepted packet rate average = 0.00977344
	minimum = 0.005 (at node 6)
	maximum = 0.016 (at node 49)
Injected flit rate average = 0.00991406
	minimum = 0.005 (at node 59)
	maximum = 0.0165 (at node 14)
Accepted flit rate average= 0.00977344
	minimum = 0.005 (at node 6)
	maximum = 0.016 (at node 49)
Injected packet length average = 1
Accepted packet length average = 1
Total in-flight flits = 18 (0 measured)
latency change    = 0.0273162
throughput change = 0.0151878
Class 0:
Packet latency average = 33.554
	minimum = 7
	maximum = 78
Network latency average = 33.554
	minimum = 7
	maximum = 78
Slowest packet = 13175
Flit latency average = 33.554
	minimum = 7
	maximum = 78
Slowest flit = 13175
Fragmentation average = 0
	minimum = 0
	maximum = 0
Injected packet rate average = 0.0100469
	minimum = 0.004 (at node 19)
	maximum = 0.016 (at node 22)
Accepted packet rate average = 0.00984375
	minimum = 0.004 (at node 26)
	maximum = 0.017 (at node 19)
Injected flit rate average = 0.0100469
	minimum = 0.004 (at node 19)
	maximum = 0.016 (at node 22)
Accepted flit rate average= 0.00984375
	minimum = 0.004 (at node 26)
	maximum = 0.017 (at node 19)
Injected packet length average = 1
Accepted packet length average = 1
Total in-flight flits = 31 (0 measured)
latency change    = 0.0485281
throughput change = 0.00714286
Warmed up ...Time used is 3000 cycles
Class 0:
Packet latency average = 32.8436
	minimum = 7
	maximum = 77
Network latency average = 32.8436
	minimum = 7
	maximum = 77
Slowest packet = 13792
Flit latency average = 33.2605
	minimum = 7
	maximum = 77
Slowest flit = 13628
Fragmentation average = 0
	minimum = 0
	maximum = 0
Injected packet rate average = 0.00989063
	minimum = 0.004 (at node 29)
	maximum = 0.017 (at node 11)
Accepted packet rate average = 0.0100781
	minimum = 0.004 (at node 43)
	maximum = 0.017 (at node 52)
Injected flit rate average = 0.00989063
	minimum = 0.004 (at node 29)
	maximum = 0.017 (at node 11)
Accepted flit rate average= 0.0100781
	minimum = 0.004 (at node 43)
	maximum = 0.017 (at node 52)
Injected packet length average = 1
Accepted packet length average = 1
Total in-flight flits = 19 (19 measured)
latency change    = 0.0216273
throughput change = 0.0232558
Class 0:
Packet latency average = 32.3418
	minimum = 7
	maximum = 78
Network latency average = 32.3418
	minimum = 7
	maximum = 78
Slowest packet = 14529
Flit latency average = 32.563
	minimum = 7
	maximum = 78
Slowest flit = 14529
Fragmentation average = 0
	minimum = 0
	maximum = 0
Injected packet rate average = 0.00995313
	minimum = 0.006 (at node 19)
	maximum = 0.0155 (at node 0)
Accepted packet rate average = 0.0100469
	minimum = 0.006 (at node 26)
	maximum = 0.0155 (at node 0)
Injected flit rate average = 0.00995313
	minimum = 0.006 (at node 19)
	maximum = 0.0155 (at node 0)
Accepted flit rate average= 0.0100469
	minimum = 0.006 (at node 26)
	maximum = 0.0155 (at node 0)
Injected packet length average = 1
Accepted packet length average = 1
Total in-flight flits = 19 (19 measured)
latency change    = 0.015516
throughput change = 0.00311042
Class 0:
Packet latency average = 32.4836
	minimum = 7
	maximum = 78
Network latency average = 32.4836
	minimum = 7
	maximum = 78
Slowest packet = 14529
Flit latency average = 32.6249
	minimum = 7
	maximum = 78
Slowest flit = 14529
Fragmentation average = 0
	minimum = 0
	maximum = 0
Injected packet rate average = 0.0103073
	minimum = 0.00666667 (at node 56)
	maximum = 0.0143333 (at node 11)
Accepted packet rate average = 0.0103177
	minimum = 0.007 (at node 7)
	maximum = 0.0143333 (at node 25)
Injected flit rate average = 0.0103073
	minimum = 0.00666667 (at node 56)
	maximum = 0.0143333 (at node 11)
Accepted flit rate average= 0.0103177
	minimum = 0.007 (at node 7)
	maximum = 0.0143333 (at node 25)
Injected packet length average = 1
Accepted packet length average = 1
Total in-flight flits = 29 (29 measured)
latency change    = 0.00436396
throughput change = 0.0262494
Draining all recorded packets ...
Draining remaining packets ...
Time taken is 6117 cycles
Class 0:
Packet latency average = 33.3542
	minimum = 7
	maximum = 79
Network latency average = 33.3542
	minimum = 7
	maximum = 79
Slowest packet = 16200
Flit latency average = 33.3542
	minimum = 7
	maximum = 79
Slowest flit = 16200
Fragmentation average = 0
	minimum = 0
	maximum = 0
Injected packet rate average = 0.0102344
	minimum = 0.003 (at node 47)
	maximum = 0.023 (at node 36)
Accepted packet rate average = 0.00996875
	minimum = 0.003 (at node 61)
	maximum = 0.023 (at node 36)
Injected flit rate average = 0.0102344
	minimum = 0.003 (at node 47)
	maximum = 0.023 (at node 36)
Accepted flit rate average= 0.00996875
	minimum = 0.003 (at node 61)
	maximum = 0.023 (at node 36)
Injected packet length average = 1
Accepted packet length average = 1
Total in-flight flits = 17 (0 measured)
latency change    = 1
throughput change = 1
Class 0:
Packet latency average = 33.1444
	minimum = 7
	maximum = 79
Network latency average = 33.1444
	minimum = 7
	maximum = 79
Slowest packet = 16200
Flit latency average = 33.1444
	minimum = 7
	maximum = 79
Slowest flit = 16200
Fragmentation average = 0
	minimum = 0
	maximum = 0
Injected packet rate average = 0.0100469
	minimum = 0.004 (at node 47)
	maximum = 0.0175 (at node 36)
Accepted packet rate average = 0.00989844
	minimum = 0.004 (at node 61)
	maximum = 0.0175 (at node 36)
Injected flit rate average = 0.0100469
	minimum = 0.004 (at node 47)
	maximum = 0.0175 (at node 36)
Accepted flit rate average= 0.00989844
	minimum = 0.004 (at node 61)
	maximum = 0.0175 (at node 36)
Injected packet length average = 1
Accepted packet length average = 1
Total in-flight flits = 19 (0 measured)
latency change    = 0.00632976
throughput change = 0.00710339
Class 0:
Packet latency average = 33.8054
	minimum = 7
	maximum = 78
Network latency average = 33.8054
	minimum = 7
	maximum = 78
Slowest packet = 17177
Flit latency average = 33.8054
	minimum = 7
	maximum = 78
Slowest flit = 17177
Fragmentation average = 0
	minimum = 0
	maximum = 0
Injected packet rate average = 0.0098125
	minimum = 0.002 (at node 23)
	maximum = 0.018 (at node 18)
Accepted packet rate average = 0.00979688
	minimum = 0.002 (at node 58)
	maximum = 0.018 (at node 18)
Injected flit rate average = 0.0098125
	minimum = 0.002 (at node 23)
	maximum = 0.018 (at node 18)
Accepted flit rate average= 0.00979688
	minimum = 0.002 (at node 58)
	maximum = 0.018 (at node 18)
Injected packet length average = 1
Accepted packet length average = 1
Total in-flight flits = 20 (0 measured)
latency change    = 0.0195527
throughput change = 0.0103668
Warmed up ...Time used is 3000 cycles
Class 0:
Packet latency average = 32.4678
	minimum = 7
	maximum = 79
Network latency average = 32.4678
	minimum = 7
	maximum = 79
Slowest packet = 18077
Flit latency average = 32.7196
	minimum = 7
	maximum = 79
Slowest flit = 18077
Fragmentation average = 0
	minimum = 0
	maximum = 0
Injected packet rate average = 0.00995313
	minimum = 0.003 (at node 14)
	maximum = 0.019 (at node 60)
Accepted packet rate average = 0.0100313
	minimum = 0.003 (at node 49)
	maximum = 0.019 (at node 39)
Injected flit rate average = 0.00995313
	minimum = 0.003 (at node 14)
	maximum = 0.019 (at node 60)
Accepted flit rate average= 0.0100313
	minimum = 0.003 (at node 49)
	maximum = 0.019 (at node 39)
Injected packet length average = 1
Accepted packet length average = 1
Total in-flight flits = 15 (15 measured)
latency change    = 0.041197
throughput change = 0.0233645
Class 0:
Packet latency average = 32.5579
	minimum = 7
	maximum = 79
Network latency average = 32.5579
	minimum = 7
	maximum = 79
Slowest packet = 18077
Flit latency average = 32.6871
	minimum = 7
	maximum = 79
Slowest flit = 18077
Fragmentation average = 0
	minimum = 0
	maximum = 0
Injected packet rate average = 0.00966406
	minimum = 0.0055 (at node 20)
	maximum = 0.0145 (at node 60)
Accepted packet rate average = 0.00966406
	minimum = 0.005 (at node 7)
	maximum = 0.0145 (at node 39)
Injected flit rate average = 0.00966406
	minimum = 0.0055 (at node 20)
	maximum = 0.0145 (at node 60)
Accepted flit rate average= 0.00966406
	minimum = 0.005 (at node 7)
	maximum = 0.0145 (at node 39)
Injected packet length average = 1
Accepted packet length average = 1
Total in-flight flits = 20 (20 measured)
latency change    = 0.00276687
throughput change = 0.0379951
Class 0:
Packet latency average = 32.9914
	minimum = 7
	maximum = 79
Network latency average = 32.9914
	minimum = 7
	maximum = 79
Slowest packet = 18077
Flit latency average = 33.0721
	minimum = 7
	maximum = 79
Slowest flit = 18077
Fragmentation average = 0
	minimum = 0
	maximum = 0
Injected packet rate average = 0.00979167
	minimum = 0.00566667 (at node 56)
	maximum = 0.0136667 (at node 60)
Accepted packet rate average = 0.00975521
	minimum = 0.00566667 (at node 7)
	maximum = 0.0136667 (at node 39)
Injected flit rate average = 0.00979167
	minimum = 0.00566667 (at node 56)
	maximum = 0.0136667 (at node 60)
Accepted flit rate average= 0.00975521
	minimum = 0.00566667 (at node 7)
	maximum = 0.0136667 (at node 39)
Injected packet length average = 1
Accepted packet length average = 1
Total in-flight flits = 27 (27 measured)
latency change    = 0.0131379
throughput change = 0.0093433
Draining all recorded packets ...
Draining remaining packets ...
Time taken is 6122 cycles
Class 0:
Packet latency average = 31.836
	minimum = 7
	maximum = 78
Network latency average = 31.836
	minimum = 7
	maximum = 78
Slowest packet = 19894
Flit latency average = 31.836
	minimum = 7
	maximum = 78
Slowest flit = 19894
Fragmentation average = 0
	minimum = 0
	maximum = 0
Injected packet rate average = 0.0101094
	minimum = 0.003 (at node 62)
	maximum = 0.018 (at node 38)
Accepted packet rate average = 0.0098125
	minimum = 0.003 (at node 4)
	maximum = 0.018 (at node 52)
Injected flit rate average = 0.0101094
	minimum = 0.003 (at node 62)
	maximum = 0.018 (at node 38)
Accepted flit rate average= 0.0098125
	minimum = 0.003 (at node 4)
	maximum = 0.018 (at node 52)
Injected packet length average = 1
Accepted packet length average = 1
Total in-flight flits = 19 (0 measured)
latency change    = 1
throughput change = 1
Class 0:
Packet latency average = 32.2953
	minimum = 7
	maximum = 78
Network latency average = 32.2953
	minimum = 7
	maximum = 78
Slowest packet = 19894
Flit latency average = 32.2953
	minimum = 7
	maximum = 78
Slowest flit = 19894
Fragmentation average = 0
	minimum = 0
	maximum = 0
Injected packet rate average = 0.0102344
	minimum = 0.0065 (at node 12)
	maximum = 0.0155 (at node 42)
Accepted packet rate average = 0.0100781
	minimum = 0.006 (at node 7)
	maximum = 0.015 (at node 21)
Injected flit rate average = 0.0102344
	minimum = 0.0065 (at node 12)
	maximum = 0.0155 (at node 42)
Accepted flit rate average= 0.0100781
	minimum = 0.006 (at node 7)
	maximum = 0.015 (at node 21)
Injected packet length average = 1
Accepted packet length average = 1
Total in-flight flits = 20 (0 measured)
latency change    = 0.0142238
throughput change = 0.0263566
Class 0:
Packet latency average = 32.9727
	minimum = 7
	maximum = 81
Network latency average = 32.9727
	minimum = 7
	maximum = 81
Slowest packet = 21131
Flit latency average = 32.9727
	minimum = 7
	maximum = 81
Slowest flit = 21131
Fragmentation average = 0
	minimum = 0
	maximum = 0
Injected packet rate average = 0.0103594
	minimum = 0.003 (at node 10)
	maximum = 0.017 (at node 41)
Accepted packet rate average = 0.0102969
	minimum = 0.003 (at node 17)
	maximum = 0.017 (at node 13)
Injected flit rate average = 0.0103594
	minimum = 0.003 (at node 10)
	maximum = 0.017 (at node 41)
Accepted flit rate average= 0.0102969
	minimum = 0.003 (at node 17)
	maximum = 0.017 (at node 13)
Injected packet length average = 1
Accepted packet length average = 1
Total in-flight flits = 24 (0 measured)
latency change    = 0.0205424
throughput change = 0.0212443
Warmed up ...Time used is 3000 cycles
Class 0:
Packet latency average = 31.9405
	minimum = 7
	maximum = 78
Network latency average = 31.9405
	minimum = 7
	maximum = 78
Slowest packet = 21888
Flit latency average = 32.4257
	minimum = 7
	maximum = 78
Slowest flit = 21888
Fragmentation average = 0
	minimum = 0
	maximum = 0
Injected packet rate average = 0.010125
	minimum = 0.003 (at node 27)
	maximum = 0.018 (at node 17)
Accepted packet rate average = 0.0100938
	minimum = 0.003 (at node 27)
	maximum = 0.018 (at node 10)
Injected flit rate average = 0.010125
	minimum = 0.003 (at node 27)
	maximum = 0.018 (at node 17)
Accepted flit rate average= 0.0100938
	minimum = 0.003 (at node 27)
	maximum = 0.018 (at node 10)
Injected packet length average = 1
Accepted packet length average = 1
Total in-flight flits = 26 (26 measured)
latency change    = 0.0323154
throughput change = 0.0201238
Class 0:
Packet latency average = 32.6103
	minimum = 7
	maximum = 78
Network latency average = 32.6103
	minimum = 7
	maximum = 78
Slowest packet = 21888
Flit latency average = 32.841
	minimum = 7
	maximum = 78
Slowest flit = 21888
Fragmentation average = 0
	minimum = 0
	maximum = 0
Injected packet rate average = 0.0100547
	minimum = 0.0065 (at node 0)
	maximum = 0.015 (at node 54)
Accepted packet rate average = 0.0100703
	minimum = 0.006 (at node 57)
	maximum = 0.015 (at node 54)
Injected flit rate average = 0.0100547
	minimum = 0.0065 (at node 0)
	maximum = 0.015 (at node 54)
Accepted flit rate average= 0.0100703
	minimum = 0.006 (at node 57)
	maximum = 0.015 (at node 54)
Injected packet length average = 1
Accepted packet length average = 1
Total in-flight flits = 22 (22 measured)
latency change    = 0.0205384
throughput change = 0.00232739
Class 0:
Packet latency average = 32.9027
	minimum = 7
	maximum = 78
Network latency average = 32.9027
	minimum = 7
	maximum = 78
Slowest packet = 21888
Flit latency average = 33.0519
	minimum = 7
	maximum = 78
Slowest flit = 21888
Fragmentation average = 0
	minimum = 0
	maximum = 0
Injected packet rate average = 0.0101198
	minimum = 0.00633333 (at node 0)
	maximum = 0.014 (at node 46)
Accepted packet rate average = 0.0101302
	minimum = 0.00633333 (at node 0)
	maximum = 0.014 (at node 53)
Injected flit rate average = 0.0101198
	minimum = 0.00633333 (at node 0)
	maximum = 0.014 (at node 46)
Accepted flit rate average= 0.0101302
	minimum = 0.00633333 (at node 0)
	maximum = 0.014 (at node 53)
Injected packet length average = 1
Accepted packet length average = 1
Total in-flight flits = 22 (22 measured)
latency change    = 0.00888616
throughput change = 0.0059126
Draining all recorded packets ...
Draining remaining packets ...
Time taken is 6130 cycles
Class 0:
Packet latency average = 33.7182
	minimum = 7
	maximum = 77
Network latency average = 33.7182
	minimum = 7
	maximum = 77
Slowest packet = 23523
Flit latency average = 33.7182
	minimum = 7
	maximum = 77
Slowest flit = 23523
Fragmentation average = 0
	minimum = 0
	maximum = 0
Injected packet rate average = 0.0100625
	minimum = 0.005 (at node 2)
	maximum = 0.021 (at node 19)
Accepted packet rate average = 0.0098125
	minimum = 0.005 (at node 7)
	maximum = 0.02 (at node 26)
Injected flit rate average = 0.0100625
	minimum = 0.005 (at node 2)
	maximum = 0.021 (at node 19)
Accepted flit rate average= 0.0098125
	minimum = 0.005 (at node 7)
	maximum = 0.02 (at node 26)
Injected packet length average = 1
Accepted packet length average = 1
Total in-flight flits = 16 (0 measured)
latency change    = 1
throughput change = 1
Class 0:
Packet latency average = 34.2158
	minimum = 7
	maximum = 78
Network latency average = 34.2158
	minimum = 7
	maximum = 78
Slowest packet = 24435
Flit latency average = 34.2158
	minimum = 7
	maximum = 78
Slowest flit = 24435
Fragmentation average = 0
	minimum = 0
	maximum = 0
Injected packet rate average = 0.0103828
	minimum = 0.005 (at node 11)
	maximum = 0.0155 (at node 48)
Accepted packet rate average = 0.0102109
	minimum = 0.005 (at node 25)
	maximum = 0.015 (at node 6)
Injected flit rate average = 0.0103828
	minimum = 0.005 (at node 11)
	maximum = 0.0155 (at node 48)
Accepted flit rate average= 0.0102109
	minimum = 0.005 (at node 25)
	maximum = 0.015 (at node 6)
Injected packet length average = 1
Accepted packet length average = 1
Total in-flight flits = 22 (0 measured)
latency change    = 0.0145433
throughput change = 0.0390207
Class 0:
Packet latency average = 33.6713
	minimum = 7
	maximum = 78
Network latency average = 33.6713
	minimum = 7
	maximum = 78
Slowest packet = 25104
Flit latency average = 33.6713
	minimum = 7
	maximum = 78
Slowest flit = 25104
Fragmentation average = 0
	minimum = 0
	maximum = 0
Injected packet rate average = 0.0100625
	minimum = 0.004 (at node 1)
	maximum = 0.019 (at node 2)
Accepted packet rate average = 0.0101719
	minimum = 0.004 (at node 8)
	maximum = 0.02 (at node 16)
Injected flit rate average = 0.0100625
	minimum = 0.004 (at node 1)
	maximum = 0.019 (at node 2)
Accepted flit rate average= 0.0101719
	minimum = 0.004 (at node 8)
	maximum = 0.02 (at node 16)
Injected packet length average = 1
Accepted packet length average = 1
Total in-flight flits = 15 (0 measured)
latency change    = 0.0161706
throughput change = 0.00384025
Warmed up ...Time used is 3000 cycles
Class 0:
Packet latency average = 33.9951
	minimum = 7
	maximum = 77
Network latency average = 33.9951
	minimum = 7
	maximum = 77
Slowest packet = 25498
Flit latency average = 34.1798
	minimum = 7
	maximum = 77
Slowest flit = 25498
Fragmentation average = 0
	minimum = 0
	maximum = 0
Injected packet rate average = 0.00992188
	minimum = 0.004 (at node 5)
	maximum = 0.019 (at node 19)
Accepted packet rate average = 0.00973437
	minimum = 0.004 (at node 9)
	maximum = 0.019 (at node 26)
Injected flit rate average = 0.00992188
	minimum = 0.004 (at node 5)
	maximum = 0.019 (at node 19)
Accepted flit rate average= 0.00973437
	minimum = 0.004 (at node 9)
	maximum = 0.019 (at node 26)
Injected packet length average = 1
Accepted packet length average = 1
Total in-flight flits = 27 (27 measured)
latency change    = 0.00952464
throughput change = 0.0449438
Class 0:
Packet latency average = 34.0234
	minimum = 7
	maximum = 78
Network latency average = 34.0234
	minimum = 7
	maximum = 78
Slowest packet = 26468
Flit latency average = 34.1146
	minimum = 7
	maximum = 78
Slowest flit = 26468
Fragmentation average = 0
	minimum = 0
	maximum = 0
Injected packet rate average = 0.00988281
	minimum = 0.005 (at node 31)
	maximum = 0.014 (at node 4)
Accepted packet rate average = 0.0098125
	minimum = 0.0055 (at node 59)
	maximum = 0.0145 (at node 38)
Injected flit rate average = 0.00988281
	minimum = 0.005 (at node 31)
	maximum = 0.014 (at node 4)
Accepted flit rate average= 0.0098125
	minimum = 0.0055 (at node 59)
	maximum = 0.0145 (at node 38)
Injected packet length average = 1
Accepted packet length average = 1
Total in-flight flits = 24 (24 measured)
latency change    = 0.000831854
throughput change = 0.00796178
Class 0:
Packet latency average = 33.7072
	minimum = 7
	maximum = 79
Network latency average = 33.7072
	minimum = 7
	maximum = 79
Slowest packet = 26981
Flit latency average = 33.771
	minimum = 7
	maximum = 79
Slowest flit = 26981
Fragmentation average = 0
	minimum = 0
	maximum = 0
Injected packet rate average = 0.00977083
	minimum = 0.006 (at node 18)
	maximum = 0.0136667 (at node 50)
Accepted packet rate average = 0.00975521
	minimum = 0.006 (at node 18)
	maximum = 0.0133333 (at node 22)
Injected flit rate average = 0.00977083
	minimum = 0.006 (at node 18)
	maximum = 0.0136667 (at node 50)
Accepted flit rate average= 0.00975521
	minimum = 0.006 (at node 18)
	maximum = 0.0133333 (at node 22)
Injected packet length average = 1
Accepted packet length average = 1
Total in-flight flits = 18 (18 measured)
latency change    = 0.00937948
throughput change = 0.00587293
Draining all recorded packets ...
Draining remaining packets ...
Time taken is 6115 cycles
Class 0:
Packet latency average = 32.6179
	minimum = 7
	maximum = 78
Network latency average = 32.6179
	minimum = 7
	maximum = 78
Slowest packet = 27714
Flit latency average = 32.6179
	minimum = 7
	maximum = 78
Slowest flit = 27714
Fragmentation average = 0
	minimum = 0
	maximum = 0
Injected packet rate average = 0.01025
	minimum = 0.005 (at node 24)
	maximum = 0.016 (at node 2)
Accepted packet rate average = 0.0099375
	minimum = 0.005 (at node 3)
	maximum = 0.016 (at node 58)
Injected flit rate average = 0.01025
	minimum = 0.005 (at node 24)
	maximum = 0.016 (at node 2)
Accepted flit rate average= 0.0099375
	minimum = 0.005 (at node 3)
	maximum = 0.016 (at node 58)
Injected packet length average = 1
Accepted packet length average = 1
Total in-flight flits = 20 (0 measured)
latency change    = 1
throughput change = 1
Class 0:
Packet latency average = 32.816
	minimum = 7
	maximum = 78
Network latency average = 32.816
	minimum = 7
	maximum = 78
Slowest packet = 27714
Flit latency average = 32.816
	minimum = 7
	maximum = 78
Slowest flit = 27714
Fragmentation average = 0
	minimum = 0
	maximum = 0
Injected packet rate average = 0.0101563
	minimum = 0.0055 (at node 58)
	maximum = 0.0145 (at node 48)
Accepted packet rate average = 0.00997656
	minimum = 0.0055 (at node 23)
	maximum = 0.014 (at node 12)
Injected flit rate average = 0.0101563
	minimum = 0.0055 (at node 58)
	maximum = 0.0145 (at node 48)
Accepted flit rate average= 0.00997656
	minimum = 0.0055 (at node 23)
	maximum = 0.014 (at node 12)
Injected packet length average = 1
Accepted packet length average = 1
Total in-flight flits = 23 (0 measured)
latency change    = 0.00603518
throughput change = 0.00391543
Class 0:
Packet latency average = 33.5629
	minimum = 7
	maximum = 78
Network latency average = 33.5629
	minimum = 7
	maximum = 78
Slowest packet = 29160
Flit latency average = 33.5629
	minimum = 7
	maximum = 78
Slowest flit = 29160
Fragmentation average = 0
	minimum = 0
	maximum = 0
Injected packet rate average = 0.00978125
	minimum = 0.002 (at node 31)
	maximum = 0.02 (at node 59)
Accepted packet rate average = 0.0099375
	minimum = 0.002 (at node 59)
	maximum = 0.02 (at node 31)
Injected flit rate average = 0.00978125
	minimum = 0.002 (at node 31)
	maximum = 0.02 (at node 59)
Accepted flit rate average= 0.0099375
	minimum = 0.002 (at node 59)
	maximum = 0.02 (at node 31)
Injected packet length average = 1
Accepted packet length average = 1
Total in-flight flits = 13 (0 measured)
latency change    = 0.0222543
throughput change = 0.00393082
Warmed up ...Time used is 3000 cycles
Class 0:
Packet latency average = 33.4977
	minimum = 7
	maximum = 78
Network latency average = 33.4977
	minimum = 7
	maximum = 78
Slowest packet = 29888
Flit latency average = 33.6585
	minimum = 7
	maximum = 78
Slowest flit = 29888
Fragmentation average = 0
	minimum = 0
	maximum = 0
Injected packet rate average = 0.0104531
	minimum = 0.004 (at node 24)
	maximum = 0.02 (at node 33)
Accepted packet rate average = 0.01025
	minimum = 0.005 (at node 3)
	maximum = 0.019 (at node 12)
Injected flit rate average = 0.0104531
	minimum = 0.004 (at node 24)
	maximum = 0.02 (at node 33)
Accepted flit rate average= 0.01025
	minimum = 0.005 (at node 3)
	maximum = 0.019 (at node 12)
Injected packet length average = 1
Accepted packet length average = 1
Total in-flight flits = 26 (26 measured)
latency change    = 0.00194718
throughput change = 0.0304878
Class 0:
Packet latency average = 33.3829
	minimum = 7
	maximum = 78
Network latency average = 33.3829
	minimum = 7
	maximum = 78
Slowest packet = 29888
Flit latency average = 33.4637
	minimum = 7
	maximum = 78
Slowest flit = 29888
Fragmentation average = 0
	minimum = 0
	maximum = 0
Injected packet rate average = 0.0103906
	minimum = 0.006 (at node 0)
	maximum = 0.0155 (at node 33)
Accepted packet rate average = 0.0103438
	minimum = 0.0055 (at node 41)
	maximum = 0.015 (at node 2)
Injected flit rate average = 0.0103906
	minimum = 0.006 (at node 0)
	maximum = 0.0155 (at node 33)
Accepted flit rate average= 0.0103438
	minimum = 0.0055 (at node 41)
	maximum = 0.015 (at node 2)
Injected packet length average = 1
Accepted packet length average = 1
Total in-flight flits = 19 (19 measured)
latency change    = 0.00343749
throughput change = 0.00906344
Class 0:
Packet latency average = 33.4717
	minimum = 7
	maximum = 78
Network latency average = 33.4717
	minimum = 7
	maximum = 78
Slowest packet = 29888
Flit latency average = 33.5263
	minimum = 7
	maximum = 78
Slowest flit = 29888
Fragmentation average = 0
	minimum = 0
	maximum = 0
Injected packet rate average = 0.0101302
	minimum = 0.00666667 (at node 0)
	maximum = 0.015 (at node 16)
Accepted packet rate average = 0.0100833
	minimum = 0.00666667 (at node 0)
	maximum = 0.0146667 (at node 2)
Injected flit rate average = 0.0101302
	minimum = 0.00666667 (at node 0)
	maximum = 0.015 (at node 16)
Accepted flit rate average= 0.0100833
	minimum = 0.00666667 (at node 0)
	maximum = 0.0146667 (at node 2)
Injected packet length average = 1
Accepted packet length average = 1
Total in-flight flits = 22 (22 measured)
latency change    = 0.00265135
throughput change = 0.0258264
Draining all recorded packets ...
Draining remaining packets ...
Time taken is 6135 cycles
Class 0:
Packet latency average = 33.3445
	minimum = 7
	maximum = 77
Network latency average = 33.3445
	minimum = 7
	maximum = 77
Slowest packet = 31338
Flit latency average = 33.3445
	minimum = 7
	maximum = 77
Slowest flit = 31338
Fragmentation average = 0
	minimum = 0
	maximum = 0
Injected packet rate average = 0.0096875
	minimum = 0.003 (at node 34)
	maximum = 0.017 (at node 4)
Accepted packet rate average = 0.00929687
	minimum = 0.003 (at node 20)
	maximum = 0.016 (at node 32)
Injected flit rate average = 0.0096875
	minimum = 0.003 (at node 34)
	maximum = 0.017 (at node 4)
Accepted flit rate average= 0.00929687
	minimum = 0.003 (at node 20)
	maximum = 0.016 (at node 32)
Injected packet length average = 1
Accepted packet length average = 1
Total in-flight flits = 25 (0 measured)
latency change    = 1
throughput change = 1
Class 0:
Packet latency average = 33.1126
	minimum = 7
	maximum = 77
Network latency average = 33.1126
	minimum = 7
	maximum = 77
Slowest packet = 31338
Flit latency average = 33.1126
	minimum = 7
	maximum = 77
Slowest flit = 31338
Fragmentation average = 0
	minimum = 0
	maximum = 0
Injected packet rate average = 0.00959375
	minimum = 0.0055 (at node 11)
	maximum = 0.017 (at node 33)
Accepted packet rate average = 0.0094375
	minimum = 0.005 (at node 25)
	maximum = 0.0165 (at node 12)
Injected flit rate average = 0.00959375
	minimum = 0.0055 (at node 11)
	maximum = 0.017 (at node 33)
Accepted flit rate average= 0.0094375
	minimum = 0.005 (at node 25)
	maximum = 0.0165 (at node 12)
Injected packet length average = 1
Accepted packet length average = 1
Total in-flight flits = 20 (0 measured)
latency change    = 0.00700504
throughput change = 0.0149007
Class 0:
Packet latency average = 33.5772
	minimum = 7
	maximum = 78
Network latency average = 33.5772
	minimum = 7
	maximum = 78
Slowest packet = 32552
Flit latency average = 33.5772
	minimum = 7
	maximum = 78
Slowest flit = 32552
Fragmentation average = 0
	minimum = 0
	maximum = 0
Injected packet rate average = 0.0102188
	minimum = 0.005 (at node 13)
	maximum = 0.02 (at node 35)
Accepted packet rate average = 0.010125
	minimum = 0.005 (at node 13)
	maximum = 0.019 (at node 28)
Injected flit rate average = 0.0102188
	minimum = 0.005 (at node 13)
	maximum = 0.02 (at node 35)
Accepted flit rate average= 0.010125
	minimum = 0.005 (at node 13)
	maximum = 0.019 (at node 28)
Injected packet length average = 1
Accepted packet length average = 1
Total in-flight flits = 26 (0 measured)
latency change    = 0.0138361
throughput change = 0.0679012
Warmed up ...Time used is 3000 cycles
Class 0:
Packet latency average = 32.4632
	minimum = 7
	maximum = 78
Network latency average = 32.4632
	minimum = 7
	maximum = 78
Slowest packet = 33184
Flit latency average = 32.7739
	minimum = 7
	maximum = 78
Slowest flit = 33184
Fragmentation average = 0
	minimum = 0
	maximum = 0
Injected packet rate average = 0.00982813
	minimum = 0.004 (at node 15)
	maximum = 0.017 (at node 41)
Accepted packet rate average = 0.00995313
	minimum = 0.004 (at node 37)
	maximum = 0.018 (at node 13)
Injected flit rate average = 0.00982813
	minimum = 0.004 (at node 15)
	maximum = 0.017 (at node 41)
Accepted flit rate average= 0.00995313
	minimum = 0.004 (at node 37)
	maximum = 0.018 (at node 13)
Injected packet length average = 1
Accepted packet length average = 1
Total in-flight flits = 18 (18 measured)
latency change    = 0.0343154
throughput change = 0.0172684
Class 0:
Packet latency average = 32.9366
	minimum = 7
	maximum = 78
Network latency average = 32.9366
	minimum = 7
	maximum = 78
Slowest packet = 33184
Flit latency average = 33.0825
	minimum = 7
	maximum = 78
Slowest flit = 33184
Fragmentation average = 0
	minimum = 0
	maximum = 0
Injected packet rate average = 0.00988281
	minimum = 0.0045 (at node 32)
	maximum = 0.0165 (at node 3)
Accepted packet rate average = 0.00994531
	minimum = 0.0045 (at node 40)
	maximum = 0.017 (at node 24)
Injected flit rate average = 0.00988281
	minimum = 0.0045 (at node 32)
	maximum = 0.0165 (at node 3)
Accepted flit rate average= 0.00994531
	minimum = 0.0045 (at node 40)
	maximum = 0.017 (at node 24)
Injected packet length average = 1
Accepted packet length average = 1
Total in-flight flits = 18 (18 measured)
latency change    = 0.0143753
throughput change = 0.000785546
Class 0:
Packet latency average = 32.8966
	minimum = 7
	maximum = 78
Network latency average = 32.8966
	minimum = 7
	maximum = 78
Slowest packet = 33184
Flit latency average = 32.9938
	minimum = 7
	maximum = 78
Slowest flit = 33184
Fragmentation average = 0
	minimum = 0
	maximum = 0
Injected packet rate average = 0.01
	minimum = 0.005 (at node 58)
	maximum = 0.0156667 (at node 34)
Accepted packet rate average = 0.0100104
	minimum = 0.00566667 (at node 23)
	maximum = 0.0153333 (at node 20)
Injected flit rate average = 0.01
	minimum = 0.005 (at node 58)
	maximum = 0.0156667 (at node 34)
Accepted flit rate average= 0.0100104
	minimum = 0.00566667 (at node 23)
	maximum = 0.0153333 (at node 20)
Injected packet length average = 1
Accepted packet length average = 1
Total in-flight flits = 24 (24 measured)
latency change    = 0.00121664
throughput change = 0.00650364
Draining all recorded packets ...
Draining remaining packets ...
Time taken is 6122 cycles
Class 0:
Packet latency average = 33.5183
	minimum = 7
	maximum = 79
Network latency average = 33.5183
	minimum = 7
	maximum = 79
Slowest packet = 35165
Flit latency average = 33.5183
	minimum = 7
	maximum = 79
Slowest flit = 35165
Fragmentation average = 0
	minimum = 0
	maximum = 0
Injected packet rate average = 0.0100938
	minimum = 0.003 (at node 46)
	maximum = 0.018 (at node 58)
Accepted packet rate average = 0.00982813
	minimum = 0.003 (at node 38)
	maximum = 0.018 (at node 23)
Injected flit rate average = 0.0100938
	minimum = 0.003 (at node 46)
	maximum = 0.018 (at node 58)
Accepted flit rate average= 0.00982813
	minimum = 0.003 (at node 38)
	maximum = 0.018 (at node 23)
Injected packet length average = 1
Accepted packet length average = 1
Total in-flight flits = 17 (0 measured)
latency change    = 1
throughput change = 1
Class 0:
Packet latency average = 33.0246
	minimum = 7
	maximum = 81
Network latency average = 33.0246
	minimum = 7
	maximum = 81
Slowest packet = 35734
Flit latency average = 33.0246
	minimum = 7
	maximum = 81
Slowest flit = 35734
Fragmentation average = 0
	minimum = 0
	maximum = 0
Injected packet rate average = 0.0100625
	minimum = 0.0055 (at node 52)
	maximum = 0.015 (at node 10)
Accepted packet rate average = 0.00985938
	minimum = 0.0045 (at node 38)
	maximum = 0.015 (at node 17)
Injected flit rate average = 0.0100625
	minimum = 0.0055 (at node 52)
	maximum = 0.015 (at node 10)
Accepted flit rate average= 0.00985938
	minimum = 0.0045 (at node 38)
	maximum = 0.015 (at node 17)
Injected packet length average = 1
Accepted packet length average = 1
Total in-flight flits = 26 (0 measured)
latency change    = 0.01495
throughput change = 0.00316957
Class 0:
Packet latency average = 32.7582
	minimum = 7
	maximum = 77
Network latency average = 32.7582
	minimum = 7
	maximum = 77
Slowest packet = 36453
Flit latency average = 32.7582
	minimum = 7
	maximum = 77
Slowest flit = 36453
Fragmentation average = 0
	minimum = 0
	maximum = 0
Injected packet rate average = 0.0105156
	minimum = 0.004 (at node 63)
	maximum = 0.02 (at node 17)
Accepted packet rate average = 0.0104688
	minimum = 0.004 (at node 28)
	maximum = 0.02 (at node 10)
Injected flit rate average = 0.0105156
	minimum = 0.004 (at node 63)
	maximum = 0.02 (at node 17)
Accepted flit rate average= 0.0104688
	minimum = 0.004 (at node 28)
	maximum = 0.02 (at node 10)
Injected packet length average = 1
Accepted packet length average = 1
Total in-flight flits = 29 (0 measured)
latency change    = 0.00813095
throughput change = 0.058209
Warmed up ...Time used is 3000 cycles
Class 0:
Packet latency average = 32.7676
	minimum = 7
	maximum = 79
Network latency average = 32.7676
	minimum = 7
	maximum = 79
Slowest packet = 37150
Flit latency average = 33.0168
	minimum = 7
	maximum = 79
Slowest flit = 37150
Fragmentation average = 0
	minimum = 0
	maximum = 0
Injected packet rate average = 0.0100938
	minimum = 0.004 (at node 30)
	maximum = 0.019 (at node 22)
Accepted packet rate average = 0.0102031
	minimum = 0.004 (at node 16)
	maximum = 0.019 (at node 50)
Injected flit rate average = 0.0100938
	minimum = 0.004 (at node 30)
	maximum = 0.019 (at node 22)
Accepted flit rate average= 0.0102031
	minimum = 0.004 (at node 16)
	maximum = 0.019 (at node 50)
Injected packet length average = 1
Accepted packet length average = 1
Total in-flight flits = 22 (22 measured)
latency change    = 0.000287456
throughput change = 0.0260337
Class 0:
Packet latency average = 32.7967
	minimum = 7
	maximum = 79
Network latency average = 32.7967
	minimum = 7
	maximum = 79
Slowest packet = 37150
Flit latency average = 32.9228
	minimum = 7
	maximum = 79
Slowest flit = 37150
Fragmentation average = 0
	minimum = 0
	maximum = 0
Injected packet rate average = 0.00998438
	minimum = 0.0055 (at node 8)
	maximum = 0.015 (at node 3)
Accepted packet rate average = 0.0100234
	minimum = 0.0055 (at node 1)
	maximum = 0.015 (at node 17)
Injected flit rate average = 0.00998438
	minimum = 0.0055 (at node 8)
	maximum = 0.015 (at node 3)
Accepted flit rate average= 0.0100234
	minimum = 0.0055 (at node 1)
	maximum = 0.015 (at node 17)
Injected packet length average = 1
Accepted packet length average = 1
Total in-flight flits = 24 (24 measured)
latency change    = 0.000884923
throughput change = 0.0179267
Class 0:
Packet latency average = 33.0261
	minimum = 7
	maximum = 79
Network latency average = 33.0261
	minimum = 7
	maximum = 79
Slowest packet = 37150
Flit latency average = 33.1045
	minimum = 7
	maximum = 79
Slowest flit = 37150
Fragmentation average = 0
	minimum = 0
	maximum = 0
Injected packet rate average = 0.0102604
	minimum = 0.00633333 (at node 8)
	maximum = 0.0136667 (at node 10)
Accepted packet rate average = 0.0103177
	minimum = 0.006 (at node 1)
	maximum = 0.0136667 (at node 17)
Injected flit rate average = 0.0102604
	minimum = 0.00633333 (at node 8)
	maximum = 0.0136667 (at node 10)
Accepted flit rate average= 0.0103177
	minimum = 0.006 (at node 1)
	maximum = 0.0136667 (at node 17)
Injected packet length average = 1
Accepted packet length average = 1
Total in-flight flits = 18 (18 measured)
latency change    = 0.00694833
throughput change = 0.0285209
Draining all recorded packets ...
Draining remaining packets ...
Time taken is 6119 cycles
Class 0:
Packet latency average = 33.2066
	minimum = 7
	maximum = 78
Network latency average = 33.2066
	minimum = 7
	maximum = 78
Slowest packet = 39292
Flit latency average = 33.2066
	minimum = 7
	maximum = 78
Slowest flit = 39292
Fragmentation average = 0
	minimum = 0
	maximum = 0
Injected packet rate average = 0.00982813
	minimum = 0.004 (at node 11)
	maximum = 0.017 (at node 6)
Accepted packet rate average = 0.00945312
	minimum = 0.003 (at node 25)
	maximum = 0.016 (at node 21)
Injected flit rate average = 0.00982813
	minimum = 0.004 (at node 11)
	maximum = 0.017 (at node 6)
Accepted flit rate average= 0.00945312
	minimum = 0.003 (at node 25)
	maximum = 0.016 (at node 21)
Injected packet length average = 1
Accepted packet length average = 1
Total in-flight flits = 24 (0 measured)
latency change    = 1
throughput change = 1
Class 0:
Packet latency average = 32.3887
	minimum = 7
	maximum = 78
Network latency average = 32.3887
	minimum = 7
	maximum = 78
Slowest packet = 39292
Flit latency average = 32.3887
	minimum = 7
	maximum = 78
Slowest flit = 39292
Fragmentation average = 0
	minimum = 0
	maximum = 0
Injected packet rate average = 0.00985938
	minimum = 0.0035 (at node 60)
	maximum = 0.0155 (at node 62)
Accepted packet rate average = 0.0096875
	minimum = 0.0035 (at node 39)
	maximum = 0.0155 (at node 55)
Injected flit rate average = 0.00985938
	minimum = 0.0035 (at node 60)
	maximum = 0.0155 (at node 62)
Accepted flit rate average= 0.0096875
	minimum = 0.0035 (at node 39)
	maximum = 0.0155 (at node 55)
Injected packet length average = 1
Accepted packet length average = 1
Total in-flight flits = 22 (0 measured)
latency change    = 0.0252527
throughput change = 0.0241935
Class 0:
Packet latency average = 33.2835
	minimum = 7
	maximum = 78
Network latency average = 33.2835
	minimum = 7
	maximum = 78
Slowest packet = 40489
Flit latency average = 33.2835
	minimum = 7
	maximum = 78
Slowest flit = 40489
Fragmentation average = 0
	minimum = 0
	maximum = 0
Injected packet rate average = 0.010125
	minimum = 0.005 (at node 31)
	maximum = 0.02 (at node 2)
Accepted packet rate average = 0.0101406
	minimum = 0.005 (at node 59)
	maximum = 0.02 (at node 16)
Injected flit rate average = 0.010125
	minimum = 0.005 (at node 31)
	maximum = 0.02 (at node 2)
Accepted flit rate average= 0.0101406
	minimum = 0.005 (at node 59)
	maximum = 0.02 (at node 16)
Injected packet length average = 1
Accepted packet length average = 1
Total in-flight flits = 21 (0 measured)
latency change    = 0.0268843
throughput change = 0.0446841
Warmed up ...Time used is 3000 cycles
Class 0:
Packet latency average = 33.5106
	minimum = 7
	maximum = 77
Network latency average = 33.5106
	minimum = 7
	maximum = 77
Slowest packet = 41008
Flit latency average = 33.788
	minimum = 7
	maximum = 77
Slowest flit = 41008
Fragmentation average = 0
	minimum = 0
	maximum = 0
Injected packet rate average = 0.00982813
	minimum = 0.003 (at node 48)
	maximum = 0.017 (at node 36)
Accepted packet rate average = 0.009875
	minimum = 0.004 (at node 6)
	maximum = 0.018 (at node 15)
Injected flit rate average = 0.00982813
	minimum = 0.003 (at node 48)
	maximum = 0.017 (at node 36)
Accepted flit rate average= 0.009875
	minimum = 0.004 (at node 6)
	maximum = 0.018 (at node 15)
Injected packet length average = 1
Accepted packet length average = 1
Total in-flight flits = 18 (18 measured)
latency change    = 0.0067777
throughput change = 0.0268987
Class 0:
Packet latency average = 33.7664
	minimum = 7
	maximum = 78
Network latency average = 33.7664
	minimum = 7
	maximum = 78
Slowest packet = 42006
Flit latency average = 33.9019
	minimum = 7
	maximum = 78
Slowest flit = 42006
Fragmentation average = 0
	minimum = 0
	maximum = 0
Injected packet rate average = 0.00975781
	minimum = 0.0045 (at node 37)
	maximum = 0.016 (at node 36)
Accepted packet rate average = 0.00979688
	minimum = 0.0045 (at node 44)
	maximum = 0.0165 (at node 36)
Injected flit rate average = 0.00975781
	minimum = 0.0045 (at node 37)
	maximum = 0.016 (at node 36)
Accepted flit rate average= 0.00979688
	minimum = 0.0045 (at node 44)
	maximum = 0.0165 (at node 36)
Injected packet length average = 1
Accepted packet length average = 1
Total in-flight flits = 16 (16 measured)
latency change    = 0.00757513
throughput change = 0.00797448
Class 0:
Packet latency average = 34.3001
	minimum = 7
	maximum = 78
Network latency average = 34.3001
	minimum = 7
	maximum = 78
Slowest packet = 42006
Flit latency average = 34.3847
	minimum = 7
	maximum = 78
Slowest flit = 42006
Fragmentation average = 0
	minimum = 0
	maximum = 0
Injected packet rate average = 0.00976562
	minimum = 0.00666667 (at node 19)
	maximum = 0.0153333 (at node 7)
Accepted packet rate average = 0.00977604
	minimum = 0.00633333 (at node 44)
	maximum = 0.0156667 (at node 36)
Injected flit rate average = 0.00976562
	minimum = 0.00666667 (at node 19)
	maximum = 0.0153333 (at node 7)
Accepted flit rate average= 0.00977604
	minimum = 0.00633333 (at node 44)
	maximum = 0.0156667 (at node 36)
Injected packet length average = 1
Accepted packet length average = 1
Total in-flight flits = 19 (19 measured)
latency change    = 0.0155593
throughput change = 0.00213106
Draining all recorded packets ...
Draining remaining packets ...
Time taken is 6142 cycles
Class 0:
Packet latency average = 31.4198
	minimum = 7
	maximum = 78
Network latency average = 31.4198
	minimum = 7
	maximum = 78
Slowest packet = 43200
Flit latency average = 31.4198
	minimum = 7
	maximum = 78
Slowest flit = 43200
Fragmentation average = 0
	minimum = 0
	maximum = 0
Injected packet rate average = 0.0102188
	minimum = 0.004 (at node 14)
	maximum = 0.022 (at node 23)
Accepted packet rate average = 0.0099375
	minimum = 0.004 (at node 7)
	maximum = 0.022 (at node 58)
Injected flit rate average = 0.0102188
	minimum = 0.004 (at node 14)
	maximum = 0.022 (at node 23)
Accepted flit rate average= 0.0099375
	minimum = 0.004 (at node 7)
	maximum = 0.022 (at node 58)
Injected packet length average = 1
Accepted packet length average = 1
Total in-flight flits = 18 (0 measured)
latency change    = 1
throughput change = 1
Class 0:
Packet latency average = 31.8016
	minimum = 7
	maximum = 78
Network latency average = 31.8016
	minimum = 7
	maximum = 78
Slowest packet = 43200
Flit latency average = 31.8016
	minimum = 7
	maximum = 78
Slowest flit = 43200
Fragmentation average = 0
	minimum = 0
	maximum = 0
Injected packet rate average = 0.0102344
	minimum = 0.006 (at node 58)
	maximum = 0.0165 (at node 23)
Accepted packet rate average = 0.0100781
	minimum = 0.006 (at node 23)
	maximum = 0.0165 (at node 58)
Injected flit rate average = 0.0102344
	minimum = 0.006 (at node 58)
	maximum = 0.0165 (at node 23)
Accepted flit rate average= 0.0100781
	minimum = 0.006 (at node 23)
	maximum = 0.0165 (at node 58)
Injected packet length average = 1
Accepted packet length average = 1
Total in-flight flits = 20 (0 measured)
latency change    = 0.0120038
throughput change = 0.0139535
Class 0:
Packet latency average = 31.7259
	minimum = 7
	maximum = 78
Network latency average = 31.7259
	minimum = 7
	maximum = 78
Slowest packet = 44731
Flit latency average = 31.7259
	minimum = 7
	maximum = 78
Slowest flit = 44731
Fragmentation average = 0
	minimum = 0
	maximum = 0
Injected packet rate average = 0.00934375
	minimum = 0.002 (at node 57)
	maximum = 0.017 (at node 55)
Accepted packet rate average = 0.00940625
	minimum = 0.002 (at node 11)
	maximum = 0.017 (at node 32)
Injected flit rate average = 0.00934375
	minimum = 0.002 (at node 57)
	maximum = 0.017 (at node 55)
Accepted flit rate average= 0.00940625
	minimum = 0.002 (at node 11)
	maximum = 0.017 (at node 32)
Injected packet length average = 1
Accepted packet length average = 1
Total in-flight flits = 16 (0 measured)
latency change    = 0.00238407
throughput change = 0.0714286
Warmed up ...Time used is 3000 cycles
Class 0:
Packet latency average = 33.1228
	minimum = 7
	maximum = 77
Network latency average = 33.1228
	minimum = 7
	maximum = 77
Slowest packet = 44819
Flit latency average = 33.2835
	minimum = 7
	maximum = 77
Slowest flit = 44814
Fragmentation average = 0
	minimum = 0
	maximum = 0
Injected packet rate average = 0.0101094
	minimum = 0.004 (at node 36)
	maximum = 0.017 (at node 4)
Accepted packet rate average = 0.00992188
	minimum = 0.004 (at node 3)
	maximum = 0.017 (at node 32)
Injected flit rate average = 0.0101094
	minimum = 0.004 (at node 36)
	maximum = 0.017 (at node 4)
Accepted flit rate average= 0.00992188
	minimum = 0.004 (at node 3)
	maximum = 0.017 (at node 32)
Injected packet length average = 1
Accepted packet length average = 1
Total in-flight flits = 28 (28 measured)
latency change    = 0.0421723
throughput change = 0.0519685
Class 0:
Packet latency average = 33.7252
	minimum = 7
	maximum = 82
Network latency average = 33.7252
	minimum = 7
	maximum = 82
Slowest packet = 45781
Flit latency average = 33.7994
	minimum = 7
	maximum = 82
Slowest flit = 45781
Fragmentation average = 0
	minimum = 0
	maximum = 0
Injected packet rate average = 0.00976562
	minimum = 0.0045 (at node 8)
	maximum = 0.0155 (at node 32)
Accepted packet rate average = 0.00973437
	minimum = 0.005 (at node 1)
	maximum = 0.015 (at node 4)
Injected flit rate average = 0.00976562
	minimum = 0.0045 (at node 8)
	maximum = 0.0155 (at node 32)
Accepted flit rate average= 0.00973437
	minimum = 0.005 (at node 1)
	maximum = 0.015 (at node 4)
Injected packet length average = 1
Accepted packet length average = 1
Total in-flight flits = 20 (20 measured)
latency change    = 0.0178627
throughput change = 0.0192616
Class 0:
Packet latency average = 33.6791
	minimum = 7
	maximum = 82
Network latency average = 33.6791
	minimum = 7
	maximum = 82
Slowest packet = 45781
Flit latency average = 33.7285
	minimum = 7
	maximum = 82
Slowest flit = 45781
Fragmentation average = 0
	minimum = 0
	maximum = 0
Injected packet rate average = 0.009875
	minimum = 0.00533333 (at node 8)
	maximum = 0.0133333 (at node 35)
Accepted packet rate average = 0.00982292
	minimum = 0.00566667 (at node 1)
	maximum = 0.0133333 (at node 28)
Injected flit rate average = 0.009875
	minimum = 0.00533333 (at node 8)
	maximum = 0.0133333 (at node 35)
Accepted flit rate average= 0.00982292
	minimum = 0.00566667 (at node 1)
	maximum = 0.0133333 (at node 28)
Injected packet length average = 1
Accepted packet length average = 1
Total in-flight flits = 26 (26 measured)
latency change    = 0.00136758
throughput change = 0.00901379
Class 0:
Packet latency average = 33.7857
	minimum = 7
	maximum = 82
Network latency average = 33.7857
	minimum = 7
	maximum = 82
Slowest packet = 45781
Flit latency average = 33.8218
	minimum = 7
	maximum = 82
Slowest flit = 45781
Fragmentation average = 0
	minimum = 0
	maximum = 0
Injected packet rate average = 0.00992578
	minimum = 0.00625 (at node 8)
	maximum = 0.01325 (at node 5)
Accepted packet rate average = 0.00990625
	minimum = 0.00625 (at node 1)
	maximum = 0.01325 (at node 40)
Injected flit rate average = 0.00992578
	minimum = 0.00625 (at node 8)
	maximum = 0.01325 (at node 5)
Accepted flit rate average= 0.00990625
	minimum = 0.00625 (at node 1)
	maximum = 0.01325 (at node 40)
Injected packet length average = 1
Accepted packet length average = 1
Total in-flight flits = 21 (21 measured)
latency change    = 0.00315429
throughput change = 0.0084122
Draining all recorded packets ...
Draining remaining packets ...
Time taken is 7129 cycles
Class 0:
Packet latency average = 32.6138
	minimum = 7
	maximum = 80
Network latency average = 32.6138
	minimum = 7
	maximum = 80
Slowest packet = 47468
Flit latency average = 32.6138
	minimum = 7
	maximum = 80
Slowest flit = 47468
Fragmentation average = 0
	minimum = 0
	maximum = 0
Injected packet rate average = 0.010125
	minimum = 0.003 (at node 26)
	maximum = 0.02 (at node 51)
Accepted packet rate average = 0.00975
	minimum = 0.002 (at node 19)
	maximum = 0.019 (at node 30)
Injected flit rate average = 0.010125
	minimum = 0.003 (at node 26)
	maximum = 0.02 (at node 51)
Accepted flit rate average= 0.00975
	minimum = 0.002 (at node 19)
	maximum = 0.019 (at node 30)
Injected packet length average = 1
Accepted packet length average = 1
Total in-flight flits = 24 (0 measured)
latency change    = 1
throughput change = 1
Class 0:
Packet latency average = 32.4833
	minimum = 7
	maximum = 80
Network latency average = 32.4833
	minimum = 7
	maximum = 80
Slowest packet = 47468
Flit latency average = 32.4833
	minimum = 7
	maximum = 80
Slowest flit = 47468
Fragmentation average = 0
	minimum = 0
	maximum = 0
Injected packet rate average = 0.0102578
	minimum = 0.0045 (at node 26)
	maximum = 0.0155 (at node 5)
Accepted packet rate average = 0.0100703
	minimum = 0.0045 (at node 19)
	maximum = 0.0155 (at node 40)
Injected flit rate average = 0.0102578
	minimum = 0.0045 (at node 26)
	maximum = 0.0155 (at node 5)
Accepted flit rate average= 0.0100703
	minimum = 0.0045 (at node 19)
	maximum = 0.0155 (at node 40)
Injected packet length average = 1
Accepted packet length average = 1
Total in-flight flits = 24 (0 measured)
latency change    = 0.00401627
throughput change = 0.0318076
Class 0:
Packet latency average = 33.372
	minimum = 7
	maximum = 77
Network latency average = 33.372
	minimum = 7
	maximum = 77
Slowest packet = 48705
Flit latency average = 33.372
	minimum = 7
	maximum = 77
Slowest flit = 48705
Fragmentation average = 0
	minimum = 0
	maximum = 0
Injected packet rate average = 0.0102344
	minimum = 0.003 (at node 26)
	maximum = 0.02 (at node 14)
Accepted packet rate average = 0.01025
	minimum = 0.003 (at node 19)
	maximum = 0.017 (at node 49)
Injected flit rate average = 0.0102344
	minimum = 0.003 (at node 26)
	maximum = 0.02 (at node 14)
Accepted flit rate average= 0.01025
	minimum = 0.003 (at node 19)
	maximum = 0.017 (at node 49)
Injected packet length average = 1
Accepted packet length average = 1
Total in-flight flits = 23 (0 measured)
latency change    = 0.0266281
throughput change = 0.0175305
Warmed up ...Time used is 3000 cycles
Class 0:
Packet latency average = 32.0896
	minimum = 7
	maximum = 78
Network latency average = 32.0896
	minimum = 7
	maximum = 78
Slowest packet = 49623
Flit latency average = 32.6707
	minimum = 7
	maximum = 78
Slowest flit = 49623
Fragmentation average = 0
	minimum = 0
	maximum = 0
Injected packet rate average = 0.010375
	minimum = 0.005 (at node 29)
	maximum = 0.015 (at node 2)
Accepted packet rate average = 0.0102969
	minimum = 0.005 (at node 43)
	maximum = 0.015 (at node 16)
Injected flit rate average = 0.010375
	minimum = 0.005 (at node 29)
	maximum = 0.015 (at node 2)
Accepted flit rate average= 0.0102969
	minimum = 0.005 (at node 43)
	maximum = 0.015 (at node 16)
Injected packet length average = 1
Accepted packet length average = 1
Total in-flight flits = 28 (28 measured)
latency change    = 0.0399608
throughput change = 0.00455235
Class 0:
Packet latency average = 32.7743
	minimum = 7
	maximum = 78
Network latency average = 32.7743
	minimum = 7
	maximum = 78
Slowest packet = 49623
Flit latency average = 33.0589
	minimum = 7
	maximum = 78
Slowest flit = 49623
Fragmentation average = 0
	minimum = 0
	maximum = 0
Injected packet rate average = 0.0100859
	minimum = 0.005 (at node 51)
	maximum = 0.0145 (at node 10)
Accepted packet rate average = 0.0100781
	minimum = 0.0055 (at node 30)
	maximum = 0.0145 (at node 17)
Injected flit rate average = 0.0100859
	minimum = 0.005 (at node 51)
	maximum = 0.0145 (at node 10)
Accepted flit rate average= 0.0100781
	minimum = 0.0055 (at node 30)
	maximum = 0.0145 (at node 17)
Injected packet length average = 1
Accepted packet length average = 1
Total in-flight flits = 24 (24 measured)
latency change    = 0.0208898
throughput change = 0.0217054
Class 0:
Packet latency average = 32.9583
	minimum = 7
	maximum = 78
Network latency average = 32.9583
	minimum = 7
	maximum = 78
Slowest packet = 49623
Flit latency average = 33.1499
	minimum = 7
	maximum = 78
Slowest flit = 49623
Fragmentation average = 0
	minimum = 0
	maximum = 0
Injected packet rate average = 0.00982292
	minimum = 0.00633333 (at node 13)
	maximum = 0.0133333 (at node 33)
Accepted packet rate average = 0.00986458
	minimum = 0.00633333 (at node 41)
	maximum = 0.0136667 (at node 12)
Injected flit rate average = 0.00982292
	minimum = 0.00633333 (at node 13)
	maximum = 0.0133333 (at node 33)
Accepted flit rate average= 0.00986458
	minimum = 0.00633333 (at node 41)
	maximum = 0.0136667 (at node 12)
Injected packet length average = 1
Accepted packet length average = 1
Total in-flight flits = 15 (15 measured)
latency change    = 0.00558406
throughput change = 0.0216473
Draining all recorded packets ...
Draining remaining packets ...
Time taken is 6124 cycles
Class 0:
Packet latency average = 33.9436
	minimum = 7
	maximum = 77
Network latency average = 33.9436
	minimum = 7
	maximum = 77
Slowest packet = 51283
Flit latency average = 33.9436
	minimum = 7
	maximum = 77
Slowest flit = 51283
Fragmentation average = 0
	minimum = 0
	maximum = 0
Injected packet rate average = 0.00940625
	minimum = 0.004 (at node 19)
	maximum = 0.018 (at node 43)
Accepted packet rate average = 0.00914062
	minimum = 0.003 (at node 26)
	maximum = 0.018 (at node 29)
Injected flit rate average = 0.00940625
	minimum = 0.004 (at node 19)
	maximum = 0.018 (at node 43)
Accepted flit rate average= 0.00914062
	minimum = 0.003 (at node 26)
	maximum = 0.018 (at node 29)
Injected packet length average = 1
Accepted packet length average = 1
Total in-flight flits = 17 (0 measured)
latency change    = 1
throughput change = 1
Class 0:
Packet latency average = 33.0807
	minimum = 7
	maximum = 77
Network latency average = 33.0807
	minimum = 7
	maximum = 77
Slowest packet = 51283
Flit latency average = 33.0807
	minimum = 7
	maximum = 77
Slowest flit = 51283
Fragmentation average = 0
	minimum = 0
	maximum = 0
Injected packet rate average = 0.00954687
	minimum = 0.006 (at node 51)
	maximum = 0.014 (at node 52)
Accepted packet rate average = 0.00939062
	minimum = 0.006 (at node 30)
	maximum = 0.014 (at node 38)
Injected flit rate average = 0.00954687
	minimum = 0.006 (at node 51)
	maximum = 0.014 (at node 52)
Accepted flit rate average= 0.00939062
	minimum = 0.006 (at node 30)
	maximum = 0.014 (at node 38)
Injected packet length average = 1
Accepted packet length average = 1
Total in-flight flits = 20 (0 measured)
latency change    = 0.0260844
throughput change = 0.0266223
Class 0:
Packet latency average = 32.5127
	minimum = 7
	maximum = 81
Network latency average = 32.5127
	minimum = 7
	maximum = 81
Slowest packet = 52718
Flit latency average = 32.5127
	minimum = 7
	maximum = 81
Slowest flit = 52718
Fragmentation average = 0
	minimum = 0
	maximum = 0
Injected packet rate average = 0.0100781
	minimum = 0.003 (at node 14)
	maximum = 0.017 (at node 25)
Accepted packet rate average = 0.009875
	minimum = 0.003 (at node 49)
	maximum = 0.017 (at node 37)
Injected flit rate average = 0.0100781
	minimum = 0.003 (at node 14)
	maximum = 0.017 (at node 25)
Accepted flit rate average= 0.009875
	minimum = 0.003 (at node 49)
	maximum = 0.017 (at node 37)
Injected packet length average = 1
Accepted packet length average = 1
Total in-flight flits = 33 (0 measured)
latency change    = 0.0174714
throughput change = 0.0490506
Warmed up ...Time used is 3000 cycles
Class 0:
Packet latency average = 31.5997
	minimum = 7
	maximum = 77
Network latency average = 31.5997
	minimum = 7
	maximum = 77
Slowest packet = 53157
Flit latency average = 32.3258
	minimum = 7
	maximum = 77
Slowest flit = 53084
Fragmentation average = 0
	minimum = 0
	maximum = 0
Injected packet rate average = 0.00965625
	minimum = 0.004 (at node 5)
	maximum = 0.017 (at node 40)
Accepted packet rate average = 0.0096875
	minimum = 0.004 (at node 40)
	maximum = 0.016 (at node 2)
Injected flit rate average = 0.00965625
	minimum = 0.004 (at node 5)
	maximum = 0.017 (at node 40)
Accepted flit rate average= 0.0096875
	minimum = 0.004 (at node 40)
	maximum = 0.016 (at node 2)
Injected packet length average = 1
Accepted packet length average = 1
Total in-flight flits = 31 (31 measured)
latency change    = 0.0288927
throughput change = 0.0193548
Class 0:
Packet latency average = 32.6427
	minimum = 7
	maximum = 77
Network latency average = 32.6427
	minimum = 7
	maximum = 77
Slowest packet = 53157
Flit latency average = 32.973
	minimum = 7
	maximum = 77
Slowest flit = 53084
Fragmentation average = 0
	minimum = 0
	maximum = 0
Injected packet rate average = 0.00975
	minimum = 0.006 (at node 5)
	maximum = 0.016 (at node 40)
Accepted packet rate average = 0.00983594
	minimum = 0.006 (at node 40)
	maximum = 0.015 (at node 5)
Injected flit rate average = 0.00975
	minimum = 0.006 (at node 5)
	maximum = 0.016 (at node 40)
Accepted flit rate average= 0.00983594
	minimum = 0.006 (at node 40)
	maximum = 0.015 (at node 5)
Injected packet length average = 1
Accepted packet length average = 1
Total in-flight flits = 22 (22 measured)
latency change    = 0.0319545
throughput change = 0.0150913
Class 0:
Packet latency average = 32.9455
	minimum = 7
	maximum = 78
Network latency average = 32.9455
	minimum = 7
	maximum = 78
Slowest packet = 54580
Flit latency average = 33.1585
	minimum = 7
	maximum = 78
Slowest flit = 54580
Fragmentation average = 0
	minimum = 0
	maximum = 0
Injected packet rate average = 0.00988021
	minimum = 0.00633333 (at node 6)
	maximum = 0.0146667 (at node 40)
Accepted packet rate average = 0.00992188
	minimum = 0.00666667 (at node 51)
	maximum = 0.0143333 (at node 5)
Injected flit rate average = 0.00988021
	minimum = 0.00633333 (at node 6)
	maximum = 0.0146667 (at node 40)
Accepted flit rate average= 0.00992188
	minimum = 0.00666667 (at node 51)
	maximum = 0.0143333 (at node 5)
Injected packet length average = 1
Accepted packet length average = 1
Total in-flight flits = 25 (25 measured)
latency change    = 0.00919009
throughput change = 0.00866142
Draining all recorded packets ...
Draining remaining packets ...
Time taken is 6112 cycles
Class 0:
Packet latency average = 34.371
	minimum = 7
	maximum = 81
Network latency average = 34.371
	minimum = 7
	maximum = 81
Slowest packet = 55196
Flit latency average = 34.371
	minimum = 7
	maximum = 81
Slowest flit = 55196
Fragmentation average = 0
	minimum = 0
	maximum = 0
Injected packet rate average = 0.00973437
	minimum = 0.004 (at node 1)
	maximum = 0.018 (at node 35)
Accepted packet rate average = 0.00926562
	minimum = 0.004 (at node 8)
	maximum = 0.018 (at node 28)
Injected flit rate average = 0.00973437
	minimum = 0.004 (at node 1)
	maximum = 0.018 (at node 35)
Accepted flit rate average= 0.00926562
	minimum = 0.004 (at node 8)
	maximum = 0.018 (at node 28)
Injected packet length average = 1
Accepted packet length average = 1
Total in-flight flits = 30 (0 measured)
latency change    = 1
throughput change = 1
Class 0:
Packet latency average = 34.0848
	minimum = 7
	maximum = 81
Network latency average = 34.0848
	minimum = 7
	maximum = 81
Slowest packet = 55196
Flit latency average = 34.0848
	minimum = 7
	maximum = 81
Slowest flit = 55196
Fragmentation average = 0
	minimum = 0
	maximum = 0
Injected packet rate average = 0.00979688
	minimum = 0.0045 (at node 39)
	maximum = 0.0165 (at node 31)
Accepted packet rate average = 0.00958594
	minimum = 0.004 (at node 60)
	maximum = 0.016 (at node 59)
Injected flit rate average = 0.00979688
	minimum = 0.0045 (at node 39)
	maximum = 0.0165 (at node 31)
Accepted flit rate average= 0.00958594
	minimum = 0.004 (at node 60)
	maximum = 0.016 (at node 59)
Injected packet length average = 1
Accepted packet length average = 1
Total in-flight flits = 27 (0 measured)
latency change    = 0.00839775
throughput change = 0.0334148
Class 0:
Packet latency average = 33.1984
	minimum = 7
	maximum = 77
Network latency average = 33.1984
	minimum = 7
	maximum = 77
Slowest packet = 56266
Flit latency average = 33.1984
	minimum = 7
	maximum = 77
Slowest flit = 56266
Fragmentation average = 0
	minimum = 0
	maximum = 0
Injected packet rate average = 0.00995313
	minimum = 0.003 (at node 7)
	maximum = 0.017 (at node 28)
Accepted packet rate average = 0.01
	minimum = 0.003 (at node 56)
	maximum = 0.019 (at node 6)
Injected flit rate average = 0.00995313
	minimum = 0.003 (at node 7)
	maximum = 0.017 (at node 28)
Accepted flit rate average= 0.01
	minimum = 0.003 (at node 56)
	maximum = 0.019 (at node 6)
Injected packet length average = 1
Accepted packet length average = 1
Total in-flight flits = 24 (0 measured)
latency change    = 0.0266977
throughput change = 0.0414062
Warmed up ...Time used is 3000 cycles
Class 0:
Packet latency average = 32.3556
	minimum = 7
	maximum = 77
Network latency average = 32.3556
	minimum = 7
	maximum = 77
Slowest packet = 56952
Flit latency average = 32.9541
	minimum = 7
	maximum = 77
Slowest flit = 56895
Fragmentation average = 0
	minimum = 0
	maximum = 0
Injected packet rate average = 0.0101406
	minimum = 0.004 (at node 13)
	maximum = 0.02 (at node 39)
Accepted packet rate average = 0.0102188
	minimum = 0.004 (at node 22)
	maximum = 0.02 (at node 60)
Injected flit rate average = 0.0101406
	minimum = 0.004 (at node 13)
	maximum = 0.02 (at node 39)
Accepted flit rate average= 0.0102188
	minimum = 0.004 (at node 22)
	maximum = 0.02 (at node 60)
Injected packet length average = 1
Accepted packet length average = 1
Total in-flight flits = 19 (19 measured)
latency change    = 0.0260506
throughput change = 0.0214067
Class 0:
Packet latency average = 32.4358
	minimum = 7
	maximum = 78
Network latency average = 32.4358
	minimum = 7
	maximum = 78
Slowest packet = 57680
Flit latency average = 32.737
	minimum = 7
	maximum = 78
Slowest flit = 57680
Fragmentation average = 0
	minimum = 0
	maximum = 0
Injected packet rate average = 0.0101172
	minimum = 0.0045 (at node 14)
	maximum = 0.017 (at node 45)
Accepted packet rate average = 0.0101016
	minimum = 0.0045 (at node 49)
	maximum = 0.0165 (at node 45)
Injected flit rate average = 0.0101172
	minimum = 0.0045 (at node 14)
	maximum = 0.017 (at node 45)
Accepted flit rate average= 0.0101016
	minimum = 0.0045 (at node 49)
	maximum = 0.0165 (at node 45)
Injected packet length average = 1
Accepted packet length average = 1
Total in-flight flits = 26 (26 measured)
latency change    = 0.00247321
throughput change = 0.0116009
Class 0:
Packet latency average = 32.7616
	minimum = 7
	maximum = 78
Network latency average = 32.7616
	minimum = 7
	maximum = 78
Slowest packet = 57680
Flit latency average = 32.9557
	minimum = 7
	maximum = 78
Slowest flit = 57680
Fragmentation average = 0
	minimum = 0
	maximum = 0
Injected packet rate average = 0.0102188
	minimum = 0.00566667 (at node 14)
	maximum = 0.0146667 (at node 45)
Accepted packet rate average = 0.0102396
	minimum = 0.00533333 (at node 49)
	maximum = 0.0146667 (at node 45)
Injected flit rate average = 0.0102188
	minimum = 0.00566667 (at node 14)
	maximum = 0.0146667 (at node 45)
[...]
	minimum = 0.0065 (at node 28)
	maximum = 0.014 (at node 47)
Accepted flit rate average= 0.00994141
	minimum = 0.0065 (at node 35)
	maximum = 0.014 (at node 61)
Injected packet length average = 1
Accepted packet length average = 1
Total in-flight flits = 22 (22 measured)
latency change    = 0.0143922
throughput change = 0.00458415
Draining all recorded packets ...
Draining remaining packets ...
Time taken is 7110 cycles
Class 0:
Packet latency average = 32.9893
	minimum = 7
	maximum = 78
Network latency average = 32.9893
	minimum = 7
	maximum = 78
Slowest packet = 411876
Flit latency average = 32.9893
	minimum = 7
	maximum = 78
Slowest flit = 411876
Fragmentation average = 0
	minimum = 0
	maximum = 0
Injected packet rate average = 0.010625
	minimum = 0.006 (at node 6)
	maximum = 0.017 (at node 26)
Accepted packet rate average = 0.0102344
	minimum = 0.006 (at node 2)
	maximum = 0.017 (at node 19)
Injected flit rate average = 0.010625
	minimum = 0.006 (at node 6)
	maximum = 0.017 (at node 26)
Accepted flit rate average= 0.0102344
	minimum = 0.006 (at node 2)
	maximum = 0.017 (at node 19)
Injected packet length average = 1
Accepted packet length average = 1
Total in-flight flits = 25 (0 measured)
latency change    = 1
throughput change = 1
Class 0:
Packet latency average = 32.5436
	minimum = 7
	maximum = 78
Network latency average = 32.5436
	minimum = 7
	maximum = 78
Slowest packet = 411876
Flit latency average = 32.5436
	minimum = 7
	maximum = 78
Slowest flit = 411876
Fragmentation average = 0
	minimum = 0
	maximum = 0
Injected packet rate average = 0.00986719
	minimum = 0.007 (at node 7)
	maximum = 0.0155 (at node 32)
Accepted packet rate average = 0.00967187
	minimum = 0.0065 (at node 34)
	maximum = 0.0155 (at node 4)
Injected flit rate average = 0.00986719
	minimum = 0.007 (at node 7)
	maximum = 0.0155 (at node 32)
Accepted flit rate average= 0.00967187
	minimum = 0.0065 (at node 34)
	maximum = 0.0155 (at node 4)
Injected packet length average = 1
Accepted packet length average = 1
Total in-flight flits = 25 (0 measured)
latency change    = 0.0136953
throughput change = 0.0581583
Class 0:
Packet latency average = 33.3687
	minimum = 7
	maximum = 77
Network latency average = 33.3687
	minimum = 7
	maximum = 77
Slowest packet = 412594
Flit latency average = 33.3687
	minimum = 7
	maximum = 77
Slowest flit = 412594
Fragmentation average = 0
	minimum = 0
	maximum = 0
Injected packet rate average = 0.0100625
	minimum = 0.003 (at node 18)
	maximum = 0.017 (at node 20)
Accepted packet rate average = 0.0101719
	minimum = 0.003 (at node 18)
	maximum = 0.018 (at node 34)
Injected flit rate average = 0.0100625
	minimum = 0.003 (at node 18)
	maximum = 0.017 (at node 20)
Accepted flit rate average= 0.0101719
	minimum = 0.003 (at node 18)
	maximum = 0.018 (at node 34)
Injected packet length average = 1
Accepted packet length average = 1
Total in-flight flits = 18 (0 measured)
latency change    = 0.0247251
throughput change = 0.0491551
Warmed up ...Time used is 3000 cycles
Class 0:
Packet latency average = 33.3514
	minimum = 7
	maximum = 77
Network latency average = 33.3514
	minimum = 7
	maximum = 77
Slowest packet = 413282
Flit latency average = 33.3443
	minimum = 7
	maximum = 77
Slowest flit = 413282
Fragmentation average = 0
	minimum = 0
	maximum = 0
Injected packet rate average = 0.00959375
	minimum = 0.004 (at node 11)
	maximum = 0.019 (at node 50)
Accepted packet rate average = 0.00953125
	minimum = 0.003 (at node 60)
	maximum = 0.019 (at node 22)
Injected flit rate average = 0.00959375
	minimum = 0.004 (at node 11)
	maximum = 0.019 (at node 50)
Accepted flit rate average= 0.00953125
	minimum = 0.003 (at node 60)
	maximum = 0.019 (at node 22)
Injected packet length average = 1
Accepted packet length average = 1
Total in-flight flits = 22 (22 measured)
latency change    = 0.000519087
throughput change = 0.0672131
Class 0:
Packet latency average = 33.6053
	minimum = 7
	maximum = 77
Network latency average = 33.6053
	minimum = 7
	maximum = 77
Slowest packet = 413282
Flit latency average = 33.5978
	minimum = 7
	maximum = 77
Slowest flit = 413282
Fragmentation average = 0
	minimum = 0
	maximum = 0
Injected packet rate average = 0.00940625
	minimum = 0.0045 (at node 39)
	maximum = 0.0155 (at node 22)
Accepted packet rate average = 0.00934375
	minimum = 0.0045 (at node 21)
	maximum = 0.015 (at node 50)
Injected flit rate average = 0.00940625
	minimum = 0.0045 (at node 39)
	maximum = 0.0155 (at node 22)
Accepted flit rate average= 0.00934375
	minimum = 0.0045 (at node 21)
	maximum = 0.015 (at node 50)
Injected packet length average = 1
Accepted packet length average = 1
Total in-flight flits = 26 (26 measured)
latency change    = 0.00755572
throughput change = 0.0200669
Class 0:
Packet latency average = 33.546
	minimum = 7
	maximum = 77
Network latency average = 33.546
	minimum = 7
	maximum = 77
Slowest packet = 413282
Flit latency average = 33.5416
	minimum = 7
	maximum = 77
Slowest flit = 413282
Fragmentation average = 0
	minimum = 0
	maximum = 0
Injected packet rate average = 0.00946875
	minimum = 0.006 (at node 20)
	maximum = 0.0133333 (at node 23)
Accepted packet rate average = 0.00944271
	minimum = 0.006 (at node 12)
	maximum = 0.0126667 (at node 58)
Injected flit rate average = 0.00946875
	minimum = 0.006 (at node 20)
	maximum = 0.0133333 (at node 23)
Accepted flit rate average= 0.00944271
	minimum = 0.006 (at node 12)
	maximum = 0.0126667 (at node 58)
Injected packet length average = 1
Accepted packet length average = 1
Total in-flight flits = 23 (23 measured)
latency change    = 0.00176779
throughput change = 0.0104799
Class 0:
Packet latency average = 33.0878
	minimum = 7
	maximum = 77
Network latency average = 33.0878
	minimum = 7
	maximum = 77
Slowest packet = 413282
Flit latency average = 33.0879
	minimum = 7
	maximum = 77
Slowest flit = 413282
Fragmentation average = 0
	minimum = 0
	maximum = 0
Injected packet rate average = 0.00970703
	minimum = 0.00525 (at node 33)
	maximum = 0.0135 (at node 63)
Accepted packet rate average = 0.00968359
	minimum = 0.00525 (at node 12)
	maximum = 0.0135 (at node 63)
Injected flit rate average = 0.00970703
	minimum = 0.00525 (at node 33)
	maximum = 0.0135 (at node 63)
Accepted flit rate average= 0.00968359
	minimum = 0.00525 (at node 12)
	maximum = 0.0135 (at node 63)
Injected packet length average = 1
Accepted packet length average = 1
Total in-flight flits = 24 (24 measured)
latency change    = 0.0138478
throughput change = 0.0248756
Draining all recorded packets ...
Draining remaining packets ...
Time taken is 7115 cycles
Class 0:
Packet latency average = 33.2993
	minimum = 7
	maximum = 78
Network latency average = 33.2993
	minimum = 7
	maximum = 78
Slowest packet = 416183
Flit latency average = 33.2993
	minimum = 7
	maximum = 78
Slowest flit = 416183
Fragmentation average = 0
	minimum = 0
	maximum = 0
Injected packet rate average = 0.00964062
	minimum = 0.003 (at node 29)
	maximum = 0.016 (at node 54)
Accepted packet rate average = 0.00934375
	minimum = 0.003 (at node 43)
	maximum = 0.016 (at node 54)
Injected flit rate average = 0.00964062
	minimum = 0.003 (at node 29)
	maximum = 0.016 (at node 54)
Accepted flit rate average= 0.00934375
	minimum = 0.003 (at node 43)
	maximum = 0.016 (at node 54)
Injected packet length average = 1
Accepted packet length average = 1
Total in-flight flits = 19 (0 measured)
latency change    = 1
throughput change = 1
Class 0:
Packet latency average = 33.014
	minimum = 7
	maximum = 78
Network latency average = 33.014
	minimum = 7
	maximum = 78
Slowest packet = 416183
Flit latency average = 33.014
	minimum = 7
	maximum = 78
Slowest flit = 416183
Fragmentation average = 0
	minimum = 0
	maximum = 0
Injected packet rate average = 0.00973437
	minimum = 0.006 (at node 27)
	maximum = 0.014 (at node 7)
Accepted packet rate average = 0.00949219
	minimum = 0.006 (at node 27)
	maximum = 0.014 (at node 54)
Injected flit rate average = 0.00973437
	minimum = 0.006 (at node 27)
	maximum = 0.014 (at node 7)
Accepted flit rate average= 0.00949219
	minimum = 0.006 (at node 27)
	maximum = 0.014 (at node 54)
Injected packet length average = 1
Accepted packet length average = 1
Total in-flight flits = 31 (0 measured)
latency change    = 0.00864298
throughput change = 0.0156379
Class 0:
Packet latency average = 32.994
	minimum = 7
	maximum = 77
Network latency average = 32.994
	minimum = 7
	maximum = 77
Slowest packet = 416996
Flit latency average = 32.994
	minimum = 7
	maximum = 77
Slowest flit = 416996
Fragmentation average = 0
	minimum = 0
	maximum = 0
Injected packet rate average = 0.0103281
	minimum = 0.004 (at node 30)
	maximum = 0.018 (at node 8)
Accepted packet rate average = 0.0104844
	minimum = 0.004 (at node 51)
	maximum = 0.022 (at node 42)
Injected flit rate average = 0.0103281
	minimum = 0.004 (at node 30)
	maximum = 0.018 (at node 8)
Accepted flit rate average= 0.0104844
	minimum = 0.004 (at node 51)
	maximum = 0.022 (at node 42)
Injected packet length average = 1
Accepted packet length average = 1
Total in-flight flits = 21 (0 measured)
latency change    = 0.000604746
throughput change = 0.0946349
Warmed up ...Time used is 3000 cycles
Class 0:
Packet latency average = 33.9707
	minimum = 7
	maximum = 77
Network latency average = 33.9707
	minimum = 7
	maximum = 77
Slowest packet = 417708
Flit latency average = 34.6063
	minimum = 7
	maximum = 77
Slowest flit = 417656
Fragmentation average = 0
	minimum = 0
	maximum = 0
Injected packet rate average = 0.0101094
	minimum = 0.004 (at node 53)
	maximum = 0.023 (at node 32)
Accepted packet rate average = 0.00992188
	minimum = 0.004 (at node 46)
	maximum = 0.022 (at node 4)
Injected flit rate average = 0.0101094
	minimum = 0.004 (at node 53)
	maximum = 0.023 (at node 32)
Accepted flit rate average= 0.00992188
	minimum = 0.004 (at node 46)
	maximum = 0.022 (at node 4)
Injected packet length average = 1
Accepted packet length average = 1
Total in-flight flits = 33 (33 measured)
latency change    = 0.0287497
throughput change = 0.0566929
Class 0:
Packet latency average = 32.6771
	minimum = 7
	maximum = 78
Network latency average = 32.6771
	minimum = 7
	maximum = 78
Slowest packet = 418335
Flit latency average = 33.0182
	minimum = 7
	maximum = 78
Slowest flit = 418335
Fragmentation average = 0
	minimum = 0
	maximum = 0
Injected packet rate average = 0.00985938
	minimum = 0.006 (at node 53)
	maximum = 0.0175 (at node 34)
Accepted packet rate average = 0.00986719
	minimum = 0.006 (at node 46)
	maximum = 0.0175 (at node 20)
Injected flit rate average = 0.00985938
	minimum = 0.006 (at node 53)
	maximum = 0.0175 (at node 34)
Accepted flit rate average= 0.00986719
	minimum = 0.006 (at node 46)
	maximum = 0.0175 (at node 20)
Injected packet length average = 1
Accepted packet length average = 1
Total in-flight flits = 20 (20 measured)
latency change    = 0.0395858
throughput change = 0.00554236
Class 0:
Packet latency average = 32.6861
	minimum = 7
	maximum = 78
Network latency average = 32.6861
	minimum = 7
	maximum = 78
Slowest packet = 418335
Flit latency average = 32.9134
	minimum = 7
	maximum = 78
Slowest flit = 418335
Fragmentation average = 0
	minimum = 0
	maximum = 0
Injected packet rate average = 0.00986458
	minimum = 0.00566667 (at node 53)
	maximum = 0.015 (at node 13)
Accepted packet rate average = 0.00986458
	minimum = 0.00533333 (at node 46)
	maximum = 0.015 (at node 13)
Injected flit rate average = 0.00986458
	minimum = 0.00566667 (at node 53)
	maximum = 0.015 (at node 13)
Accepted flit rate average= 0.00986458
	minimum = 0.00533333 (at node 46)
	maximum = 0.015 (at node 13)
Injected packet length average = 1
Accepted packet length average = 1
Total in-flight flits = 21 (21 measured)
latency change    = 0.00027325
throughput change = 0.000263992
Class 0:
Packet latency average = 33.1271
	minimum = 7
	maximum = 78
Network latency average = 33.1271
	minimum = 7
	maximum = 78
Slowest packet = 418335
Flit latency average = 33.2911
	minimum = 7
	maximum = 78
Slowest flit = 418335
Fragmentation average = 0
	minimum = 0
	maximum = 0
Injected packet rate average = 0.0100703
	minimum = 0.0055 (at node 53)
	maximum = 0.01475 (at node 13)
Accepted packet rate average = 0.0100391
	minimum = 0.0055 (at node 46)
	maximum = 0.015 (at node 41)
Injected flit rate average = 0.0100703
	minimum = 0.0055 (at node 53)
	maximum = 0.01475 (at node 13)
Accepted flit rate average= 0.0100391
	minimum = 0.0055 (at node 46)
	maximum = 0.015 (at node 41)
Injected packet length average = 1
Accepted packet length average = 1
Total in-flight flits = 29 (29 measured)
latency change    = 0.0133137
throughput change = 0.01738
Draining all recorded packets ...
Draining remaining packets ...
Time taken is 7113 cycles
Class 0:
Packet latency average = 31.5476
	minimum = 7
	maximum = 77
Network latency average = 31.5476
	minimum = 7
	maximum = 77
Slowest packet = 420307
Flit latency average = 31.5476
	minimum = 7
	maximum = 77
Slowest flit = 420307
Fragmentation average = 0
	minimum = 0
	maximum = 0
Injected packet rate average = 0.01025
	minimum = 0.004 (at node 4)
	maximum = 0.02 (at node 41)
Accepted packet rate average = 0.0100156
	minimum = 0.004 (at node 32)
	maximum = 0.02 (at node 13)
Injected flit rate average = 0.01025
	minimum = 0.004 (at node 4)
	maximum = 0.02 (at node 41)
Accepted flit rate average= 0.0100156
	minimum = 0.004 (at node 32)
	maximum = 0.02 (at node 13)
Injected packet length average = 1
Accepted packet length average = 1
Total in-flight flits = 15 (0 measured)
latency change    = 1
throughput change = 1
Class 0:
Packet latency average = 32.3205
	minimum = 7
	maximum = 77
Network latency average = 32.3205
	minimum = 7
	maximum = 77
Slowest packet = 420307
Flit latency average = 32.3205
	minimum = 7
	maximum = 77
Slowest flit = 420307
Fragmentation average = 0
	minimum = 0
	maximum = 0
Injected packet rate average = 0.010125
	minimum = 0.0055 (at node 1)
	maximum = 0.017 (at node 36)
Accepted packet rate average = 0.00994531
	minimum = 0.0055 (at node 8)
	maximum = 0.017 (at node 36)
Injected flit rate average = 0.010125
	minimum = 0.0055 (at node 1)
	maximum = 0.017 (at node 36)
Accepted flit rate average= 0.00994531
	minimum = 0.0055 (at node 8)
	maximum = 0.017 (at node 36)
Injected packet length average = 1
Accepted packet length average = 1
Total in-flight flits = 23 (0 measured)
latency change    = 0.0239143
throughput change = 0.00706991
Class 0:
Packet latency average = 34.6629
	minimum = 7
	maximum = 82
Network latency average = 34.6629
	minimum = 7
	maximum = 82
Slowest packet = 422021
Flit latency average = 34.6629
	minimum = 7
	maximum = 82
Slowest flit = 422021
Fragmentation average = 0
	minimum = 0
	maximum = 0
Injected packet rate average = 0.00973437
	minimum = 0.002 (at node 44)
	maximum = 0.019 (at node 31)
Accepted packet rate average = 0.00978125
	minimum = 0.002 (at node 37)
	maximum = 0.017 (at node 33)
Injected flit rate average = 0.00973437
	minimum = 0.002 (at node 44)
	maximum = 0.019 (at node 31)
Accepted flit rate average= 0.00978125
	minimum = 0.002 (at node 37)
	maximum = 0.017 (at node 33)
Injected packet length average = 1
Accepted packet length average = 1
Total in-flight flits = 20 (0 measured)
latency change    = 0.0675776
throughput change = 0.0167732
Warmed up ...Time used is 3000 cycles
Class 0:
Packet latency average = 32.5489
	minimum = 7
	maximum = 77
Network latency average = 32.5489
	minimum = 7
	maximum = 77
Slowest packet = 422249
Flit latency average = 32.9663
	minimum = 7
	maximum = 77
Slowest flit = 422249
Fragmentation average = 0
	minimum = 0
	maximum = 0
Injected packet rate average = 0.00965625
	minimum = 0.003 (at node 57)
	maximum = 0.019 (at node 60)
Accepted packet rate average = 0.00973437
	minimum = 0.003 (at node 15)
	maximum = 0.017 (at node 39)
Injected flit rate average = 0.00965625
	minimum = 0.003 (at node 57)
	maximum = 0.019 (at node 60)
Accepted flit rate average= 0.00973437
	minimum = 0.003 (at node 15)
	maximum = 0.017 (at node 39)
Injected packet length average = 1
Accepted packet length average = 1
Total in-flight flits = 15 (15 measured)
latency change    = 0.0649489
throughput change = 0.00481541
Class 0:
Packet latency average = 32.148
	minimum = 7
	maximum = 78
Network latency average = 32.148
	minimum = 7
	maximum = 78
Slowest packet = 423214
Flit latency average = 32.3603
	minimum = 7
	maximum = 78
Slowest flit = 423214
Fragmentation average = 0
	minimum = 0
	maximum = 0
Injected packet rate average = 0.00985938
	minimum = 0.005 (at node 41)
	maximum = 0.0175 (at node 39)
Accepted packet rate average = 0.00986719
	minimum = 0.005 (at node 13)
	maximum = 0.017 (at node 60)
Injected flit rate average = 0.00985938
	minimum = 0.005 (at node 41)
	maximum = 0.0175 (at node 39)
Accepted flit rate average= 0.00986719
	minimum = 0.005 (at node 13)
	maximum = 0.017 (at node 60)
Injected packet length average = 1
Accepted packet length average = 1
Total in-flight flits = 19 (19 measured)
latency change    = 0.0124702
throughput change = 0.01346
Class 0:
Packet latency average = 32.7068
	minimum = 7
	maximum = 78
Network latency average = 32.7068
	minimum = 7
	maximum = 78
Slowest packet = 423214
Flit latency average = 32.8408
	minimum = 7
	maximum = 78
Slowest flit = 423214
Fragmentation average = 0
	minimum = 0
	maximum = 0
Injected packet rate average = 0.00997917
	minimum = 0.00666667 (at node 31)
	maximum = 0.0153333 (at node 39)
Accepted packet rate average = 0.00997917
	minimum = 0.007 (at node 13)
	maximum = 0.0153333 (at node 60)
Injected flit rate average = 0.00997917
	minimum = 0.00666667 (at node 31)
	maximum = 0.0153333 (at node 39)
Accepted flit rate average= 0.00997917
	minimum = 0.007 (at node 13)
	maximum = 0.0153333 (at node 60)
Injected packet length average = 1
Accepted packet length average = 1
Total in-flight flits = 20 (20 measured)
latency change    = 0.0170828
throughput change = 0.0112213
Class 0:
Packet latency average = 33.2378
	minimum = 7
	maximum = 78
Network latency average = 33.2378
	minimum = 7
	maximum = 78
Slowest packet = 423214
Flit latency average = 33.3341
	minimum = 7
	maximum = 78
Slowest flit = 423214
Fragmentation average = 0
	minimum = 0
	maximum = 0
Injected packet rate average = 0.00998047
	minimum = 0.007 (at node 19)
	maximum = 0.014 (at node 39)
Accepted packet rate average = 0.00998438
	minimum = 0.007 (at node 26)
	maximum = 0.014 (at node 60)
Injected flit rate average = 0.00998047
	minimum = 0.007 (at node 19)
	maximum = 0.014 (at node 39)
Accepted flit rate average= 0.00998438
	minimum = 0.007 (at node 26)
	maximum = 0.014 (at node 60)
Injected packet length average = 1
Accepted packet length average = 1
Total in-flight flits = 19 (19 measured)
latency change    = 0.0159765
throughput change = 0.000521648
Draining all recorded packets ...
Draining remaining packets ...
Time taken is 7122 cycles
====== Overall Traffic Statistics ======
====== Traffic class 0 ======
Packet latency average = 33.2552 (100 samples)
	minimum = 7 (100 samples)
	maximum = 78.55 (100 samples)
Network latency average = 33.2552 (100 samples)
	minimum = 7 (100 samples)
	maximum = 78.55 (100 samples)
Flit latency average = 33.3507 (100 samples)
	minimum = 7 (100 samples)
	maximum = 78.56 (100 samples)
Fragmentation average = 0 (100 samples)
	minimum = 0 (100 samples)
	maximum = 0 (100 samples)
Injected packet rate average = 0.0100131 (100 samples)
	minimum = 0.0063355 (100 samples)
	maximum = 0.0140648 (100 samples)
Accepted packet rate average = 0.0100127 (100 samples)
	minimum = 0.00633817 (100 samples)
	maximum = 0.0140688 (100 samples)
Injected flit rate average = 0.0100131 (100 samples)
	minimum = 0.0063355 (100 samples)
	maximum = 0.0140648 (100 samples)
Accepted flit rate average = 0.0100127 (100 samples)
	minimum = 0.00633817 (100 samples)
	maximum = 0.0140688 (100 samples)
Injected packet size average = 1 (100 samples)
Accepted packet size average = 1 (100 samples)
Hops average = 6.24644 (100 samples)
Total run time 23.7365
