BEGIN Configuration File: /tmp/tmpoonyt7po.cfg
topology = mesh;
k = 4;
n = 2;
routing_function = dor;
num_vcs = 4;
vc_buf_size = 4;
wait_for_tail_credit = 1;
vc_allocator = islip;
sw_allocator = islip;
alloc_iters = 1;
credit_delay = 2;
routing_delay = 1;
vc_alloc_delay = 1;
sw_alloc_delay = 1;
input_speedup = 2;
output_speedup = 1;
internal_speedup = 1.0;
traffic = transpose;
packet_size = 1;
sim_type = latency;
injection_rate = 0.1;
warmup_periods = 3;
sample_period = 1000;
sim_count = 100;
seed = 1;

END Configuration File: /tmp/tmpoonyt7po.cfg
Class 0:
Packet latency average = 20.3842
	minimum = 7
	maximum = 101
Network latency average = 20.3805
	minimum = 7
	maximum = 101
Slowest packet = 932
Flit latency average = 20.3805
	minimum = 7
	maximum = 101
Slowest flit = 932
Fragmentation average = 0
	minimum = 0
	maximum = 0
Injected packet rate average = 0.101437
	minimum = 0.08 (at node 8)
	maximum = 0.121 (at node 1)
Accepted packet rate average = 0.099875
	minimum = 0.08 (at node 2)
	maximum = 0.12 (at node 4)
Injected flit rate average = 0.101437
	minimum = 0.08 (at node 8)
	maximum = 0.121 (at node 1)
Accepted flit rate average= 0.099875
	minimum = 0.08 (at node 2)
	maximum = 0.12 (at node 4)
Injected packet length average = 1
Accepted packet length average = 1
Total in-flight flits = 25 (0 measured)
latency change    = 1
throughput change = 1
Class 0:
Packet latency average = 20.2111
	minimum = 7
	maximum = 101
Network latency average = 20.2092
	minimum = 7
	maximum = 101
Slowest packet = 932
Flit latency average = 20.2092
	minimum = 7
	maximum = 101
Slowest flit = 932
Fragmentation average = 0
	minimum = 0
	maximum = 0
Injected packet rate average = 0.100875
	minimum = 0.0895 (at node 2)
	maximum = 0.1175 (at node 6)
Accepted packet rate average = 0.0999375
	minimum = 0.0885 (at node 8)
	maximum = 0.1165 (at node 9)
Injected flit rate average = 0.100875
	minimum = 0.0895 (at node 2)
	maximum = 0.1175 (at node 6)
Accepted flit rate average= 0.0999375
	minimum = 0.0885 (at node 8)
	maximum = 0.1165 (at node 9)
Injected packet length average = 1
Accepted packet length average = 1
Total in-flight flits = 30 (0 measured)
latency change    = 0.00856763
throughput change = 0.000625391
Class 0:
Packet latency average = 20.1055
	minimum = 7
	maximum = 50
Network latency average = 20.0999
	minimum = 7
	maximum = 50
Slowest packet = 4022
Flit latency average = 20.0999
	minimum = 7
	maximum = 50
Slowest flit = 4022
Fragmentation average = 0
	minimum = 0
	maximum = 0
Injected packet rate average = 0.100375
	minimum = 0.087 (at node 0)
	maximum = 0.113 (at node 6)
Accepted packet rate average = 0.10075
	minimum = 0.087 (at node 0)
	maximum = 0.114 (at node 9)
Injected flit rate average = 0.100375
	minimum = 0.087 (at node 0)
	maximum = 0.113 (at node 6)
Accepted flit rate average= 0.10075
	minimum = 0.087 (at node 0)
	maximum = 0.114 (at node 9)
Injected packet length average = 1
Accepted packet length average = 1
Total in-flight flits = 24 (0 measured)
latency change    = 0.00525282
throughput change = 0.00806452
Warmed up ...Time used is 3000 cycles
Class 0:
Packet latency average = 20.1147
	minimum = 7
	maximum = 60
Network latency average = 20.1121
	minimum = 7
	maximum = 60
Slowest packet = 5018
Flit latency average = 20.1916
	minimum = 7
	maximum = 60
Slowest flit = 5018
Fragmentation average = 0
	minimum = 0
	maximum = 0
Injected packet rate average = 0.099625
	minimum = 0.08 (at node 0)
	maximum = 0.122 (at node 5)
Accepted packet rate average = 0.0985
	minimum = 0.08 (at node 0)
	maximum = 0.123 (at node 5)
Injected flit rate average = 0.099625
	minimum = 0.08 (at node 0)
	maximum = 0.122 (at node 5)
Accepted flit rate average= 0.0985
	minimum = 0.08 (at node 0)
	maximum = 0.123 (at node 5)
Injected packet length average = 1
Accepted packet length average = 1
Total in-flight flits = 42 (42 measured)
latency change    = 0.000458951
throughput change = 0.0228426
Class 0:
Packet latency average = 20.6078
	minimum = 7
	maximum = 74
Network latency average = 20.5925
	minimum = 7
	maximum = 74
Slowest packet = 7923
Flit latency average = 20.6279
	minimum = 7
	maximum = 74
Slowest flit = 7923
Fragmentation average = 0
	minimum = 0
	maximum = 0
Injected packet rate average = 0.100969
	minimum = 0.0865 (at node 0)
	maximum = 0.1155 (at node 5)
Accepted packet rate average = 0.100437
	minimum = 0.086 (at node 0)
	maximum = 0.1155 (at node 5)
Injected flit rate average = 0.100969
	minimum = 0.0865 (at node 0)
	maximum = 0.1155 (at node 5)
Accepted flit rate average= 0.100437
	minimum = 0.086 (at node 0)
	maximum = 0.1155 (at node 5)
Injected packet length average = 1
Accepted packet length average = 1
Total in-flight flits = 41 (41 measured)
latency change    = 0.02393
throughput change = 0.0192906
Class 0:
Packet latency average = 20.4769
	minimum = 7
	maximum = 74
Network latency average = 20.4636
	minimum = 7
	maximum = 74
Slowest packet = 7923
Flit latency average = 20.4878
	minimum = 7
	maximum = 74
Slowest flit = 7923
Fragmentation average = 0
	minimum = 0
	maximum = 0
Injected packet rate average = 0.101042
	minimum = 0.0923333 (at node 0)
	maximum = 0.117 (at node 5)
Accepted packet rate average = 0.100708
	minimum = 0.0923333 (at node 0)
	maximum = 0.116667 (at node 5)
Injected flit rate average = 0.101042
	minimum = 0.0923333 (at node 0)
	maximum = 0.117 (at node 5)
Accepted flit rate average= 0.100708
	minimum = 0.0923333 (at node 0)
	maximum = 0.116667 (at node 5)
Injected packet length average = 1
Accepted packet length average = 1
Total in-flight flits = 40 (40 measured)
latency change    = 0.00639324
throughput change = 0.00268928
Draining all recorded packets ...
Draining remaining packets ...
Time taken is 6090 cycles
Class 0:
Packet latency average = 20.1008
	minimum = 7
	maximum = 58
Network latency average = 20.095
	minimum = 7
	maximum = 58
Slowest packet = 11127
Flit latency average = 20.095
	minimum = 7
	maximum = 58
Slowest flit = 11127
Fragmentation average = 0
	minimum = 0
	maximum = 0
Injected packet rate average = 0.099625
	minimum = 0.075 (at node 14)
	maximum = 0.111 (at node 0)
Accepted packet rate average = 0.098
	minimum = 0.075 (at node 11)
	maximum = 0.11 (at node 0)
Injected flit rate average = 0.099625
	minimum = 0.075 (at node 14)
	maximum = 0.111 (at node 0)
Accepted flit rate average= 0.098
	minimum = 0.075 (at node 11)
	maximum = 0.11 (at node 0)
Injected packet length average = 1
Accepted packet length average = 1
Total in-flight flits = 26 (0 measured)
latency change    = 1
throughput change = 1
Class 0:
Packet latency average = 20.202
	minimum = 7
	maximum = 58
Network latency average = 20.1979
	minimum = 7
	maximum = 58
Slowest packet = 11127
Flit latency average = 20.1979
	minimum = 7
	maximum = 58
Slowest flit = 11127
Fragmentation average = 0
	minimum = 0
	maximum = 0
Injected packet rate average = 0.0997813
	minimum = 0.0875 (at node 14)
	maximum = 0.111 (at node 4)
Accepted packet rate average = 0.0988437
	minimum = 0.086 (at node 11)
	maximum = 0.111 (at node 1)
Injected flit rate average = 0.0997813
	minimum = 0.0875 (at node 14)
	maximum = 0.111 (at node 4)
Accepted flit rate average= 0.0988437
	minimum = 0.086 (at node 11)
	maximum = 0.111 (at node 1)
Injected packet length average = 1
Accepted packet length average = 1
Total in-flight flits = 30 (0 measured)
latency change    = 0.00501227
throughput change = 0.0085362
Class 0:
Packet latency average = 20.0825
	minimum = 7
	maximum = 53
Network latency average = 20.0825
	minimum = 7
	maximum = 53
Slowest packet = 13693
Flit latency average = 20.0825
	minimum = 7
	maximum = 53
Slowest flit = 13693
Fragmentation average = 0
	minimum = 0
	maximum = 0
Injected packet rate average = 0.097625
	minimum = 0.086 (at node 13)
	maximum = 0.113 (at node 0)
Accepted packet rate average = 0.09775
	minimum = 0.088 (at node 7)
	maximum = 0.114 (at node 0)
Injected flit rate average = 0.097625
	minimum = 0.086 (at node 13)
	maximum = 0.113 (at node 0)
Accepted flit rate average= 0.09775
	minimum = 0.088 (at node 7)
	maximum = 0.114 (at node 0)
Injected packet length average = 1
Accepted packet length average = 1
Total in-flight flits = 28 (0 measured)
latency change    = 0.00595258
throughput change = 0.0111893
Warmed up ...Time used is 3000 cycles
Class 0:
Packet latency average = 19.8075
	minimum = 7
	maximum = 57
Network latency average = 19.8075
	minimum = 7
	maximum = 57
Slowest packet = 14600
Flit latency average = 19.9042
	minimum = 7
	maximum = 57
Slowest flit = 14600
Fragmentation average = 0
	minimum = 0
	maximum = 0
Injected packet rate average = 0.0998125
	minimum = 0.088 (at node 3)
	maximum = 0.118 (at node 0)
Accepted packet rate average = 0.0998125
	minimum = 0.088 (at node 12)
	maximum = 0.121 (at node 11)
Injected flit rate average = 0.0998125
	minimum = 0.088 (at node 3)
	maximum = 0.118 (at node 0)
Accepted flit rate average= 0.0998125
	minimum = 0.088 (at node 12)
	maximum = 0.121 (at node 11)
Injected packet length average = 1
Accepted packet length average = 1
Total in-flight flits = 28 (28 measured)
latency change    = 0.0138816
throughput change = 0.0206637
Class 0:
Packet latency average = 19.8696
	minimum = 7
	maximum = 57
Network latency average = 19.8696
	minimum = 7
	maximum = 57
Slowest packet = 14600
Flit latency average = 19.9183
	minimum = 7
	maximum = 57
Slowest flit = 14600
Fragmentation average = 0
	minimum = 0
	maximum = 0
Injected packet rate average = 0.0983437
	minimum = 0.0895 (at node 11)
	maximum = 0.1075 (at node 14)
Accepted packet rate average = 0.0979687
	minimum = 0.089 (at node 14)
	maximum = 0.109 (at node 11)
Injected flit rate average = 0.0983437
	minimum = 0.0895 (at node 11)
	maximum = 0.1075 (at node 14)
Accepted flit rate average= 0.0979687
	minimum = 0.089 (at node 14)
	maximum = 0.109 (at node 11)
Injected packet length average = 1
Accepted packet length average = 1
Total in-flight flits = 40 (40 measured)
latency change    = 0.0031268
throughput change = 0.0188198
Class 0:
Packet latency average = 20.1432
	minimum = 7
	maximum = 57
Network latency average = 20.1419
	minimum = 7
	maximum = 57
Slowest packet = 14600
Flit latency average = 20.1727
	minimum = 7
	maximum = 57
Slowest flit = 14600
Fragmentation average = 0
	minimum = 0
	maximum = 0
Injected packet rate average = 0.0982083
	minimum = 0.089 (at node 11)
	maximum = 0.109 (at node 4)
Accepted packet rate average = 0.0981875
	minimum = 0.089 (at node 14)
	maximum = 0.109333 (at node 6)
Injected flit rate average = 0.0982083
	minimum = 0.089 (at node 11)
	maximum = 0.109 (at node 4)
Accepted flit rate average= 0.0981875
	minimum = 0.089 (at node 14)
	maximum = 0.109333 (at node 6)
Injected packet length average = 1
Accepted packet length average = 1
Total in-flight flits = 29 (29 measured)
latency change    = 0.0135814
throughput change = 0.00222788
Draining all recorded packets ...
Draining remaining packets ...
Time taken is 6078 cycles
Class 0:
Packet latency average = 19.8767
	minimum = 7
	maximum = 56
Network latency average = 19.8702
	minimum = 7
	maximum = 56
Slowest packet = 20766
Flit latency average = 19.8702
	minimum = 7
	maximum = 56
Slowest flit = 20766
Fragmentation average = 0
	minimum = 0
	maximum = 0
Injected packet rate average = 0.09825
	minimum = 0.085 (at node 12)
	maximum = 0.115 (at node 15)
Accepted packet rate average = 0.0963125
	minimum = 0.081 (at node 3)
	maximum = 0.115 (at node 15)
Injected flit rate average = 0.09825
	minimum = 0.085 (at node 12)
	maximum = 0.115 (at node 15)
Accepted flit rate average= 0.0963125
	minimum = 0.081 (at node 3)
	maximum = 0.115 (at node 15)
Injected packet length average = 1
Accepted packet length average = 1
Total in-flight flits = 31 (0 measured)
latency change    = 1
throughput change = 1
Class 0:
Packet latency average = 20.0695
	minimum = 7
	maximum = 62
Network latency average = 20.0647
	minimum = 7
	maximum = 62
Slowest packet = 21105
Flit latency average = 20.0647
	minimum = 7
	maximum = 62
Slowest flit = 21105
Fragmentation average = 0
	minimum = 0
	maximum = 0
Injected packet rate average = 0.09825
	minimum = 0.09 (at node 2)
	maximum = 0.1055 (at node 15)
Accepted packet rate average = 0.0970938
	minimum = 0.0895 (at node 8)
	maximum = 0.105 (at node 15)
Injected flit rate average = 0.09825
	minimum = 0.09 (at node 2)
	maximum = 0.1055 (at node 15)
Accepted flit rate average= 0.0970938
	minimum = 0.0895 (at node 8)
	maximum = 0.105 (at node 15)
Injected packet length average = 1
Accepted packet length average = 1
Total in-flight flits = 37 (0 measured)
latency change    = 0.00960745
throughput change = 0.00804635
Class 0:
Packet latency average = 20.6766
	minimum = 7
	maximum = 58
Network latency average = 20.6729
	minimum = 7
	maximum = 58
Slowest packet = 22370
Flit latency average = 20.6729
	minimum = 7
	maximum = 58
Slowest flit = 22370
Fragmentation average = 0
	minimum = 0
	maximum = 0
Injected packet rate average = 0.1005
	minimum = 0.085 (at node 15)
	maximum = 0.118 (at node 6)
Accepted packet rate average = 0.100875
	minimum = 0.086 (at node 15)
	maximum = 0.117 (at node 1)
Injected flit rate average = 0.1005
	minimum = 0.085 (at node 15)
	maximum = 0.118 (at node 6)
Accepted flit rate average= 0.100875
	minimum = 0.086 (at node 15)
	maximum = 0.117 (at node 1)
Injected packet length average = 1
Accepted packet length average = 1
Total in-flight flits = 31 (0 measured)
latency change    = 0.0293598
throughput change = 0.0374845
Warmed up ...Time used is 3000 cycles
Class 0:
Packet latency average = 20.1808
	minimum = 7
	maximum = 57
Network latency average = 20.1808
	minimum = 7
	maximum = 57
Slowest packet = 24170
Flit latency average = 20.3124
	minimum = 7
	maximum = 57
Slowest flit = 24170
Fragmentation average = 0
	minimum = 0
	maximum = 0
Injected packet rate average = 0.099375
	minimum = 0.084 (at node 8)
	maximum = 0.128 (at node 2)
Accepted packet rate average = 0.0994375
	minimum = 0.084 (at node 2)
	maximum = 0.129 (at node 8)
Injected flit rate average = 0.099375
	minimum = 0.084 (at node 8)
	maximum = 0.128 (at node 2)
Accepted flit rate average= 0.0994375
	minimum = 0.084 (at node 2)
	maximum = 0.129 (at node 8)
Injected packet length average = 1
Accepted packet length average = 1
Total in-flight flits = 30 (30 measured)
latency change    = 0.0245685
throughput change = 0.0144563
Class 0:
Packet latency average = 20.1014
	minimum = 7
	maximum = 57
Network latency average = 20.101
	minimum = 7
	maximum = 57
Slowest packet = 24170
Flit latency average = 20.1675
	minimum = 7
	maximum = 57
Slowest flit = 24170
Fragmentation average = 0
	minimum = 0
	maximum = 0
Injected packet rate average = 0.0998125
	minimum = 0.089 (at node 4)
	maximum = 0.1105 (at node 15)
Accepted packet rate average = 0.099625
	minimum = 0.088 (at node 1)
	maximum = 0.1105 (at node 15)
Injected flit rate average = 0.0998125
	minimum = 0.089 (at node 4)
	maximum = 0.1105 (at node 15)
Accepted flit rate average= 0.099625
	minimum = 0.088 (at node 1)
	maximum = 0.1105 (at node 15)
Injected packet length average = 1
Accepted packet length average = 1
Total in-flight flits = 37 (37 measured)
latency change    = 0.00395034
throughput change = 0.00188206
Class 0:
Packet latency average = 20.2264
	minimum = 7
	maximum = 57
Network latency average = 20.2253
	minimum = 7
	maximum = 57
Slowest packet = 24170
Flit latency average = 20.2686
	minimum = 7
	maximum = 57
Slowest flit = 24170
Fragmentation average = 0
	minimum = 0
	maximum = 0
Injected packet rate average = 0.100146
	minimum = 0.0896667 (at node 4)
	maximum = 0.108667 (at node 2)
Accepted packet rate average = 0.100229
	minimum = 0.089 (at node 1)
	maximum = 0.108667 (at node 8)
Injected flit rate average = 0.100146
	minimum = 0.0896667 (at node 4)
	maximum = 0.108667 (at node 2)
Accepted flit rate average= 0.100229
	minimum = 0.089 (at node 1)
	maximum = 0.108667 (at node 8)
Injected packet length average = 1
Accepted packet length average = 1
Total in-flight flits = 27 (27 measured)
latency change    = 0.00617994
throughput change = 0.00602785
Draining all recorded packets ...
Draining remaining packets ...
Time taken is 6068 cycles
Class 0:
Packet latency average = 19.923
	minimum = 7
	maximum = 61
Network latency average = 19.9061
	minimum = 7
	maximum = 61
Slowest packet = 29461
Flit latency average = 19.9061
	minimum = 7
	maximum = 61
Slowest flit = 29461
Fragmentation average = 0
	minimum = 0
	maximum = 0
Injected packet rate average = 0.10175
	minimum = 0.079 (at node 8)
	maximum = 0.125 (at node 0)
Accepted packet rate average = 0.0998125
	minimum = 0.076 (at node 2)
	maximum = 0.125 (at node 0)
Injected flit rate average = 0.10175
	minimum = 0.079 (at node 8)
	maximum = 0.125 (at node 0)
Accepted flit rate average= 0.0998125
	minimum = 0.076 (at node 2)
	maximum = 0.125 (at node 0)
Injected packet length average = 1
Accepted packet length average = 1
Total in-flight flits = 31 (0 measured)
latency change    = 1
throughput change = 1
Class 0:
Packet latency average = 19.884
	minimum = 7
	maximum = 61
Network latency average = 19.875
	minimum = 7
	maximum = 61
Slowest packet = 29461
Flit latency average = 19.875
	minimum = 7
	maximum = 61
Slowest flit = 29461
Fragmentation average = 0
	minimum = 0
	maximum = 0
Injected packet rate average = 0.0985937
	minimum = 0.084 (at node 8)
	maximum = 0.111 (at node 6)
Accepted packet rate average = 0.0975
	minimum = 0.083 (at node 2)
	maximum = 0.1095 (at node 9)
Injected flit rate average = 0.0985937
	minimum = 0.084 (at node 8)
	maximum = 0.111 (at node 6)
Accepted flit rate average= 0.0975
	minimum = 0.083 (at node 2)
	maximum = 0.1095 (at node 9)
Injected packet length average = 1
Accepted packet length average = 1
Total in-flight flits = 35 (0 measured)
latency change    = 0.00196169
throughput change = 0.0237179
Class 0:
Packet latency average = 20.3269
	minimum = 7
	maximum = 67
Network latency average = 20.3256
	minimum = 7
	maximum = 67
Slowest packet = 32311
Flit latency average = 20.3256
	minimum = 7
	maximum = 67
Slowest flit = 32311
Fragmentation average = 0
	minimum = 0
	maximum = 0
Injected packet rate average = 0.100187
	minimum = 0.087 (at node 6)
	maximum = 0.116 (at node 13)
Accepted packet rate average = 0.099625
	minimum = 0.085 (at node 6)
	maximum = 0.118 (at node 7)
Injected flit rate average = 0.100187
	minimum = 0.087 (at node 6)
	maximum = 0.116 (at node 13)
Accepted flit rate average= 0.099625
	minimum = 0.085 (at node 6)
	maximum = 0.118 (at node 7)
Injected packet length average = 1
Accepted packet length average = 1
Total in-flight flits = 44 (0 measured)
latency change    = 0.0217877
throughput change = 0.02133
Warmed up ...Time used is 3000 cycles
Class 0:
Packet latency average = 20.8323
	minimum = 7
	maximum = 69
Network latency average = 20.7897
	minimum = 7
	maximum = 69
Slowest packet = 34170
Flit latency average = 20.9562
	minimum = 7
	maximum = 69
Slowest flit = 34170
Fragmentation average = 0
	minimum = 0
	maximum = 0
Injected packet rate average = 0.102188
	minimum = 0.084 (at node 6)
	maximum = 0.12 (at node 10)
Accepted packet rate average = 0.102625
	minimum = 0.084 (at node 9)
	maximum = 0.119 (at node 10)
Injected flit rate average = 0.102188
	minimum = 0.084 (at node 6)
	maximum = 0.12 (at node 10)
Accepted flit rate average= 0.102625
	minimum = 0.084 (at node 9)
	maximum = 0.119 (at node 10)
Injected packet length average = 1
Accepted packet length average = 1
Total in-flight flits = 37 (37 measured)
latency change    = 0.0242623
throughput change = 0.0292326
Class 0:
Packet latency average = 20.8199
	minimum = 7
	maximum = 69
Network latency average = 20.7984
	minimum = 7
	maximum = 69
Slowest packet = 34170
Flit latency average = 20.8824
	minimum = 7
	maximum = 69
Slowest flit = 34170
Fragmentation average = 0
	minimum = 0
	maximum = 0
Injected packet rate average = 0.101031
	minimum = 0.0895 (at node 11)
	maximum = 0.113 (at node 12)
Accepted packet rate average = 0.1015
	minimum = 0.089 (at node 9)
	maximum = 0.1135 (at node 3)
Injected flit rate average = 0.101031
	minimum = 0.0895 (at node 11)
	maximum = 0.113 (at node 12)
Accepted flit rate average= 0.1015
	minimum = 0.089 (at node 9)
	maximum = 0.1135 (at node 3)
Injected packet length average = 1
Accepted packet length average = 1
Total in-flight flits = 29 (29 measured)
latency change    = 0.000594515
throughput change = 0.0110837
Class 0:
Packet latency average = 20.8133
	minimum = 7
	maximum = 78
Network latency average = 20.7957
	minimum = 7
	maximum = 77
Slowest packet = 37770
Flit latency average = 20.8516
	minimum = 7
	maximum = 77
Slowest flit = 37770
Fragmentation average = 0
	minimum = 0
	maximum = 0
Injected packet rate average = 0.101354
	minimum = 0.0946667 (at node 5)
	maximum = 0.107667 (at node 4)
Accepted packet rate average = 0.101667
	minimum = 0.0943333 (at node 5)
	maximum = 0.109333 (at node 1)
Injected flit rate average = 0.101354
	minimum = 0.0946667 (at node 5)
	maximum = 0.107667 (at node 4)
Accepted flit rate average= 0.101667
	minimum = 0.0943333 (at node 5)
	maximum = 0.109333 (at node 1)
Injected packet length average = 1
Accepted packet length average = 1
Total in-flight flits = 29 (29 measured)
latency change    = 0.000318891
throughput change = 0.00163934
Draining all recorded packets ...
Draining remaining packets ...
Time taken is 6072 cycles
Class 0:
Packet latency average = 19.43
	minimum = 7
	maximum = 55
Network latency average = 19.43
	minimum = 7
	maximum = 55
Slowest packet = 39208
Flit latency average = 19.43
	minimum = 7
	maximum = 55
Slowest flit = 39208
Fragmentation average = 0
	minimum = 0
	maximum = 0
Injected packet rate average = 0.100562
	minimum = 0.087 (at node 3)
	maximum = 0.125 (at node 5)
Accepted packet rate average = 0.099125
	minimum = 0.084 (at node 12)
	maximum = 0.125 (at node 5)
Injected flit rate average = 0.100562
	minimum = 0.087 (at node 3)
	maximum = 0.125 (at node 5)
Accepted flit rate average= 0.099125
	minimum = 0.084 (at node 12)
	maximum = 0.125 (at node 5)
Injected packet length average = 1
Accepted packet length average = 1
Total in-flight flits = 23 (0 measured)
latency change    = 1
throughput change = 1
Class 0:
Packet latency average = 20.0367
	minimum = 7
	maximum = 79
Network latency average = 20.0354
	minimum = 7
	maximum = 79
Slowest packet = 41537
Flit latency average = 20.0354
	minimum = 7
	maximum = 79
Slowest flit = 41537
Fragmentation average = 0
	minimum = 0
	maximum = 0
Injected packet rate average = 0.0988437
	minimum = 0.082 (at node 2)
	maximum = 0.127 (at node 10)
Accepted packet rate average = 0.0979687
	minimum = 0.0815 (at node 8)
	maximum = 0.1265 (at node 10)
Injected flit rate average = 0.0988437
	minimum = 0.082 (at node 2)
	maximum = 0.127 (at node 10)
Accepted flit rate average= 0.0979687
	minimum = 0.0815 (at node 8)
	maximum = 0.1265 (at node 10)
Injected packet length average = 1
Accepted packet length average = 1
Total in-flight flits = 28 (0 measured)
latency change    = 0.030278
throughput change = 0.0118022
Class 0:
Packet latency average = 21.0012
	minimum = 7
	maximum = 64
Network latency average = 20.9982
	minimum = 7
	maximum = 64
Slowest packet = 41702
Flit latency average = 20.9982
	minimum = 7
	maximum = 64
Slowest flit = 41702
Fragmentation average = 0
	minimum = 0
	maximum = 0
Injected packet rate average = 0.103625
	minimum = 0.092 (at node 13)
	maximum = 0.126 (at node 8)
Accepted packet rate average = 0.1035
	minimum = 0.091 (at node 7)
	maximum = 0.128 (at node 2)
Injected flit rate average = 0.103625
	minimum = 0.092 (at node 13)
	maximum = 0.126 (at node 8)
Accepted flit rate average= 0.1035
	minimum = 0.091 (at node 7)
	maximum = 0.128 (at node 2)
Injected packet length average = 1
Accepted packet length average = 1
Total in-flight flits = 30 (0 measured)
latency change    = 0.0459271
throughput change = 0.053442
Warmed up ...Time used is 3000 cycles
Class 0:
Packet latency average = 20.2519
	minimum = 7
	maximum = 51
Network latency average = 20.2469
	minimum = 7
	maximum = 51
Slowest packet = 43724
Flit latency average = 20.2893
	minimum = 7
	maximum = 51
Slowest flit = 43724
Fragmentation average = 0
	minimum = 0
	maximum = 0
Injected packet rate average = 0.102813
	minimum = 0.089 (at node 12)
	maximum = 0.131 (at node 11)
Accepted packet rate average = 0.102625
	minimum = 0.089 (at node 3)
	maximum = 0.133 (at node 14)
Injected flit rate average = 0.102813
	minimum = 0.089 (at node 12)
	maximum = 0.131 (at node 11)
Accepted flit rate average= 0.102625
	minimum = 0.089 (at node 3)
	maximum = 0.133 (at node 14)
Injected packet length average = 1
Accepted packet length average = 1
Total in-flight flits = 33 (33 measured)
latency change    = 0.0370014
throughput change = 0.00852619
Class 0:
Packet latency average = 20.2649
	minimum = 7
	maximum = 68
Network latency average = 20.2573
	minimum = 7
	maximum = 68
Slowest packet = 45387
Flit latency average = 20.2791
	minimum = 7
	maximum = 68
Slowest flit = 45387
Fragmentation average = 0
	minimum = 0
	maximum = 0
Injected packet rate average = 0.099625
	minimum = 0.0915 (at node 12)
	maximum = 0.1195 (at node 11)
Accepted packet rate average = 0.0994375
	minimum = 0.089 (at node 3)
	maximum = 0.12 (at node 14)
Injected flit rate average = 0.099625
	minimum = 0.0915 (at node 12)
	maximum = 0.1195 (at node 11)
Accepted flit rate average= 0.0994375
	minimum = 0.089 (at node 3)
	maximum = 0.12 (at node 14)
Injected packet length average = 1
Accepted packet length average = 1
Total in-flight flits = 36 (36 measured)
latency change    = 0.000643976
throughput change = 0.0320553
Class 0:
Packet latency average = 20.3318
	minimum = 7
	maximum = 68
Network latency average = 20.324
	minimum = 7
	maximum = 68
Slowest packet = 45387
Flit latency average = 20.3378
	minimum = 7
	maximum = 68
Slowest flit = 45387
Fragmentation average = 0
	minimum = 0
	maximum = 0
Injected packet rate average = 0.102083
	minimum = 0.093 (at node 1)
	maximum = 0.117 (at node 11)
Accepted packet rate average = 0.101958
	minimum = 0.093 (at node 4)
	maximum = 0.117 (at node 14)
Injected flit rate average = 0.102083
	minimum = 0.093 (at node 1)
	maximum = 0.117 (at node 11)
Accepted flit rate average= 0.101958
	minimum = 0.093 (at node 4)
	maximum = 0.117 (at node 14)
Injected packet length average = 1
Accepted packet length average = 1
Total in-flight flits = 36 (36 measured)
latency change    = 0.00329112
throughput change = 0.0247242
Draining all recorded packets ...
Draining remaining packets ...
Time taken is 6087 cycles
Class 0:
Packet latency average = 20.2941
	minimum = 7
	maximum = 66
Network latency average = 20.2935
	minimum = 7
	maximum = 66
Slowest packet = 49600
Flit latency average = 20.2935
	minimum = 7
	maximum = 66
Slowest flit = 49600
Fragmentation average = 0
	minimum = 0
	maximum = 0
Injected packet rate average = 0.09875
	minimum = 0.078 (at node 7)
	maximum = 0.117 (at node 3)
Accepted packet rate average = 0.0966875
	minimum = 0.077 (at node 2)
	maximum = 0.111 (at node 12)
Injected flit rate average = 0.09875
	minimum = 0.078 (at node 7)
	maximum = 0.117 (at node 3)
Accepted flit rate average= 0.0966875
	minimum = 0.077 (at node 2)
	maximum = 0.111 (at node 12)
Injected packet length average = 1
Accepted packet length average = 1
Total in-flight flits = 33 (0 measured)
latency change    = 1
throughput change = 1
Class 0:
Packet latency average = 20.2831
	minimum = 7
	maximum = 66
Network latency average = 20.2828
	minimum = 7
	maximum = 66
Slowest packet = 49600
Flit latency average = 20.2828
	minimum = 7
	maximum = 66
Slowest flit = 49600
Fragmentation average = 0
	minimum = 0
	maximum = 0
Injected packet rate average = 0.0994687
	minimum = 0.0825 (at node 8)
	maximum = 0.113 (at node 3)
Accepted packet rate average = 0.0983437
	minimum = 0.081 (at node 2)
	maximum = 0.11 (at node 12)
Injected flit rate average = 0.0994687
	minimum = 0.0825 (at node 8)
	maximum = 0.113 (at node 3)
Accepted flit rate average= 0.0983437
	minimum = 0.081 (at node 2)
	maximum = 0.11 (at node 12)
Injected packet length average = 1
Accepted packet length average = 1
Total in-flight flits = 36 (0 measured)
latency change    = 0.000541872
throughput change = 0.0168414
Class 0:
Packet latency average = 20.6454
	minimum = 7
	maximum = 61
Network latency average = 20.641
	minimum = 7
	maximum = 61
Slowest packet = 51501
Flit latency average = 20.641
	minimum = 7
	maximum = 61
Slowest flit = 51501
Fragmentation average = 0
	minimum = 0
	maximum = 0
Injected packet rate average = 0.0989375
	minimum = 0.085 (at node 2)
	maximum = 0.113 (at node 11)
Accepted packet rate average = 0.09975
	minimum = 0.084 (at node 8)
	maximum = 0.114 (at node 3)
Injected flit rate average = 0.0989375
	minimum = 0.085 (at node 2)
	maximum = 0.113 (at node 11)
Accepted flit rate average= 0.09975
	minimum = 0.084 (at node 8)
	maximum = 0.114 (at node 3)
Injected packet length average = 1
Accepted packet length average = 1
Total in-flight flits = 23 (0 measured)
latency change    = 0.0175457
throughput change = 0.0140977
Warmed up ...Time used is 3000 cycles
Class 0:
Packet latency average = 20.5861
	minimum = 7
	maximum = 75
Network latency average = 20.5842
	minimum = 7
	maximum = 75
Slowest packet = 53741
Flit latency average = 20.643
	minimum = 7
	maximum = 75
Slowest flit = 53741
Fragmentation average = 0
	minimum = 0
	maximum = 0
Injected packet rate average = 0.100937
	minimum = 0.086 (at node 4)
	maximum = 0.12 (at node 8)
Accepted packet rate average = 0.1005
	minimum = 0.085 (at node 1)
	maximum = 0.12 (at node 2)
Injected flit rate average = 0.100937
	minimum = 0.086 (at node 4)
	maximum = 0.12 (at node 8)
Accepted flit rate average= 0.1005
	minimum = 0.085 (at node 1)
	maximum = 0.12 (at node 2)
Injected packet length average = 1
Accepted packet length average = 1
Total in-flight flits = 30 (30 measured)
latency change    = 0.00287784
throughput change = 0.00746269
Class 0:
Packet latency average = 20.8283
	minimum = 7
	maximum = 75
Network latency average = 20.8261
	minimum = 7
	maximum = 75
Slowest packet = 53741
Flit latency average = 20.8534
	minimum = 7
	maximum = 75
Slowest flit = 53741
Fragmentation average = 0
	minimum = 0
	maximum = 0
Injected packet rate average = 0.102344
	minimum = 0.0925 (at node 9)
	maximum = 0.118 (at node 8)
Accepted packet rate average = 0.102094
	minimum = 0.093 (at node 6)
	maximum = 0.118 (at node 2)
Injected flit rate average = 0.102344
	minimum = 0.0925 (at node 9)
	maximum = 0.118 (at node 8)
Accepted flit rate average= 0.102094
	minimum = 0.093 (at node 6)
	maximum = 0.118 (at node 2)
Injected packet length average = 1
Accepted packet length average = 1
Total in-flight flits = 31 (31 measured)
latency change    = 0.0116274
throughput change = 0.0156107
Class 0:
Packet latency average = 20.6175
	minimum = 7
	maximum = 75
Network latency average = 20.6156
	minimum = 7
	maximum = 75
Slowest packet = 53741
Flit latency average = 20.6348
	minimum = 7
	maximum = 75
Slowest flit = 53741
Fragmentation average = 0
	minimum = 0
	maximum = 0
Injected packet rate average = 0.102208
	minimum = 0.096 (at node 2)
	maximum = 0.118667 (at node 8)
Accepted packet rate average = 0.101938
	minimum = 0.0946667 (at node 8)
	maximum = 0.118667 (at node 2)
Injected flit rate average = 0.102208
	minimum = 0.096 (at node 2)
	maximum = 0.118667 (at node 8)
Accepted flit rate average= 0.101938
	minimum = 0.0946667 (at node 8)
	maximum = 0.118667 (at node 2)
Injected packet length average = 1
Accepted packet length average = 1
Total in-flight flits = 36 (36 measured)
latency change    = 0.0102265
throughput change = 0.0015328
Draining all recorded packets ...
Draining remaining packets ...
Time taken is 6077 cycles
Class 0:
Packet latency average = 19.856
	minimum = 7
	maximum = 72
Network latency average = 19.8508
	minimum = 7
	maximum = 72
Slowest packet = 59187
Flit latency average = 19.8508
	minimum = 7
	maximum = 72
Slowest flit = 59187
Fragmentation average = 0
	minimum = 0
	maximum = 0
Injected packet rate average = 0.097
	minimum = 0.076 (at node 8)
	maximum = 0.116 (at node 10)
Accepted packet rate average = 0.0950625
	minimum = 0.073 (at node 2)
	maximum = 0.116 (at node 10)
Injected flit rate average = 0.097
	minimum = 0.076 (at node 8)
	maximum = 0.116 (at node 10)
Accepted flit rate average= 0.0950625
	minimum = 0.073 (at node 2)
	maximum = 0.116 (at node 10)
Injected packet length average = 1
Accepted packet length average = 1
Total in-flight flits = 31 (0 measured)
latency change    = 1
throughput change = 1
Class 0:
Packet latency average = 20.1785
	minimum = 7
	maximum = 76
Network latency average = 20.1711
	minimum = 7
	maximum = 76
Slowest packet = 60358
Flit latency average = 20.1711
	minimum = 7
	maximum = 76
Slowest flit = 60358
Fragmentation average = 0
	minimum = 0
	maximum = 0
Injected packet rate average = 0.0989375
	minimum = 0.086 (at node 8)
	maximum = 0.109 (at node 9)
Accepted packet rate average = 0.0976875
	minimum = 0.084 (at node 2)
	maximum = 0.1085 (at node 10)
Injected flit rate average = 0.0989375
	minimum = 0.086 (at node 8)
	maximum = 0.109 (at node 9)
Accepted flit rate average= 0.0976875
	minimum = 0.084 (at node 2)
	maximum = 0.1085 (at node 10)
Injected packet length average = 1
Accepted packet length average = 1
Total in-flight flits = 40 (0 measured)
latency change    = 0.0159817
throughput change = 0.0268714
Class 0:
Packet latency average = 19.9143
	minimum = 7
	maximum = 78
Network latency average = 19.9137
	minimum = 7
	maximum = 78
Slowest packet = 62415
Flit latency average = 19.9137
	minimum = 7
	maximum = 78
Slowest flit = 62415
Fragmentation average = 0
	minimum = 0
	maximum = 0
Injected packet rate average = 0.099
	minimum = 0.076 (at node 4)
	maximum = 0.115 (at node 11)
Accepted packet rate average = 0.0991875
	minimum = 0.076 (at node 1)
	maximum = 0.116 (at node 14)
Injected flit rate average = 0.099
	minimum = 0.076 (at node 4)
	maximum = 0.115 (at node 11)
Accepted flit rate average= 0.0991875
	minimum = 0.076 (at node 1)
	maximum = 0.116 (at node 14)
Injected packet length average = 1
Accepted packet length average = 1
Total in-flight flits = 37 (0 measured)
latency change    = 0.0132668
throughput change = 0.0151229
Warmed up ...Time used is 3000 cycles
Class 0:
Packet latency average = 20.0498
	minimum = 7
	maximum = 52
Network latency average = 20.0498
	minimum = 7
	maximum = 52
Slowest packet = 63704
Flit latency average = 20.1568
	minimum = 7
	maximum = 52
Slowest flit = 63704
Fragmentation average = 0
	minimum = 0
	maximum = 0
Injected packet rate average = 0.0948125
	minimum = 0.082 (at node 7)
	maximum = 0.11 (at node 13)
Accepted packet rate average = 0.09525
	minimum = 0.085 (at node 14)
	maximum = 0.11 (at node 7)
Injected flit rate average = 0.0948125
	minimum = 0.082 (at node 7)
	maximum = 0.11 (at node 13)
Accepted flit rate average= 0.09525
	minimum = 0.085 (at node 14)
	maximum = 0.11 (at node 7)
Injected packet length average = 1
Accepted packet length average = 1
Total in-flight flits = 30 (30 measured)
latency change    = 0.00675623
throughput change = 0.0413386
Class 0:
Packet latency average = 20.7636
	minimum = 7
	maximum = 87
Network latency average = 20.7293
	minimum = 7
	maximum = 87
Slowest packet = 65143
Flit latency average = 20.7738
	minimum = 7
	maximum = 87
Slowest flit = 65143
Fragmentation average = 0
	minimum = 0
	maximum = 0
Injected packet rate average = 0.0966875
	minimum = 0.088 (at node 7)
	maximum = 0.1105 (at node 3)
Accepted packet rate average = 0.0968438
	minimum = 0.0895 (at node 13)
	maximum = 0.111 (at node 12)
Injected flit rate average = 0.0966875
	minimum = 0.088 (at node 7)
	maximum = 0.1105 (at node 3)
Accepted flit rate average= 0.0968438
	minimum = 0.0895 (at node 13)
	maximum = 0.111 (at node 12)
Injected packet length average = 1
Accepted packet length average = 1
Total in-flight flits = 32 (32 measured)
latency change    = 0.034377
throughput change = 0.0164569
Class 0:
Packet latency average = 20.691
	minimum = 7
	maximum = 87
Network latency average = 20.6637
	minimum = 7
	maximum = 87
Slowest packet = 65143
Flit latency average = 20.6935
	minimum = 7
	maximum = 87
Slowest flit = 65143
Fragmentation average = 0
	minimum = 0
	maximum = 0
Injected packet rate average = 0.0981667
	minimum = 0.091 (at node 6)
	maximum = 0.107 (at node 3)
Accepted packet rate average = 0.0982083
	minimum = 0.0903333 (at node 9)
	maximum = 0.106667 (at node 12)
Injected flit rate average = 0.0981667
	minimum = 0.091 (at node 6)
	maximum = 0.107 (at node 3)
Accepted flit rate average= 0.0982083
	minimum = 0.0903333 (at node 9)
	maximum = 0.106667 (at node 12)
Injected packet length average = 1
Accepted packet length average = 1
Total in-flight flits = 35 (35 measured)
latency change    = 0.00350451
throughput change = 0.0138948
Draining all recorded packets ...
Draining remaining packets ...
Time taken is 6065 cycles
Class 0:
Packet latency average = 20.0924
	minimum = 7
	maximum = 61
Network latency average = 20.0917
	minimum = 7
	maximum = 61
Slowest packet = 68714
Flit latency average = 20.0917
	minimum = 7
	maximum = 61
Slowest flit = 68714
Fragmentation average = 0
	minimum = 0
	maximum = 0
Injected packet rate average = 0.0985
	minimum = 0.088 (at node 5)
	maximum = 0.111 (at node 11)
Accepted packet rate average = 0.09675
	minimum = 0.087 (at node 9)
	maximum = 0.109 (at node 14)
Injected flit rate average = 0.0985
	minimum = 0.088 (at node 5)
	maximum = 0.111 (at node 11)
Accepted flit rate average= 0.09675
	minimum = 0.087 (at node 9)
	maximum = 0.109 (at node 14)
Injected packet length average = 1
Accepted packet length average = 1
Total in-flight flits = 28 (0 measured)
latency change    = 1
throughput change = 1
Class 0:
Packet latency average = 20.1427
	minimum = 7
	maximum = 71
Network latency average = 20.1382
	minimum = 7
	maximum = 71
Slowest packet = 70556
Flit latency average = 20.1382
	minimum = 7
	maximum = 71
Slowest flit = 70556
Fragmentation average = 0
	minimum = 0
	maximum = 0
Injected packet rate average = 0.0988437
	minimum = 0.0875 (at node 6)
	maximum = 0.1065 (at node 2)
Accepted packet rate average = 0.098125
	minimum = 0.0875 (at node 9)
	maximum = 0.1055 (at node 1)
Injected flit rate average = 0.0988437
	minimum = 0.0875 (at node 6)
	maximum = 0.1065 (at node 2)
Accepted flit rate average= 0.098125
	minimum = 0.0875 (at node 9)
	maximum = 0.1055 (at node 1)
Injected packet length average = 1
Accepted packet length average = 1
Total in-flight flits = 23 (0 measured)
latency change    = 0.00249708
throughput change = 0.0140127
Class 0:
Packet latency average = 19.8326
	minimum = 7
	maximum = 54
Network latency average = 19.8326
	minimum = 7
	maximum = 54
Slowest packet = 72195
Flit latency average = 19.8326
	minimum = 7
	maximum = 54
Slowest flit = 72195
Fragmentation average = 0
	minimum = 0
	maximum = 0
Injected packet rate average = 0.100187
	minimum = 0.076 (at node 8)
	maximum = 0.118 (at node 0)
Accepted packet rate average = 0.0993125
	minimum = 0.072 (at node 2)
	maximum = 0.116 (at node 0)
Injected flit rate average = 0.100187
	minimum = 0.076 (at node 8)
	maximum = 0.118 (at node 0)
Accepted flit rate average= 0.0993125
	minimum = 0.072 (at node 2)
	maximum = 0.116 (at node 0)
Injected packet length average = 1
Accepted packet length average = 1
Total in-flight flits = 37 (0 measured)
latency change    = 0.0156347
throughput change = 0.0119572
Warmed up ...Time used is 3000 cycles
Class 0:
Packet latency average = 21.125
	minimum = 7
	maximum = 75
Network latency average = 21.1113
	minimum = 7
	maximum = 75
Slowest packet = 72595
Flit latency average = 21.1933
	minimum = 7
	maximum = 75
Slowest flit = 72595
Fragmentation average = 0
	minimum = 0
	maximum = 0
Injected packet rate average = 0.103063
	minimum = 0.08 (at node 4)
	maximum = 0.116 (at node 12)
Accepted packet rate average = 0.102813
	minimum = 0.082 (at node 1)
	maximum = 0.116 (at node 7)
Injected flit rate average = 0.103063
	minimum = 0.08 (at node 4)
	maximum = 0.116 (at node 12)
Accepted flit rate average= 0.102813
	minimum = 0.082 (at node 1)
	maximum = 0.116 (at node 7)
Injected packet length average = 1
Accepted packet length average = 1
Total in-flight flits = 41 (41 measured)
latency change    = 0.0611787
throughput change = 0.0340426
Class 0:
Packet latency average = 21.0712
	minimum = 7
	maximum = 77
Network latency average = 21.0628
	minimum = 7
	maximum = 77
Slowest packet = 74141
Flit latency average = 21.1048
	minimum = 7
	maximum = 77
Slowest flit = 74141
Fragmentation average = 0
	minimum = 0
	maximum = 0
Injected packet rate average = 0.101344
	minimum = 0.09 (at node 4)
	maximum = 0.112 (at node 12)
Accepted packet rate average = 0.101688
	minimum = 0.089 (at node 1)
	maximum = 0.112 (at node 3)
Injected flit rate average = 0.101344
	minimum = 0.09 (at node 4)
	maximum = 0.112 (at node 12)
Accepted flit rate average= 0.101688
	minimum = 0.089 (at node 1)
	maximum = 0.112 (at node 3)
Injected packet length average = 1
Accepted packet length average = 1
Total in-flight flits = 26 (26 measured)
latency change    = 0.00255399
throughput change = 0.0110633
Class 0:
Packet latency average = 21.0231
	minimum = 7
	maximum = 77
Network latency average = 21.0175
	minimum = 7
	maximum = 77
Slowest packet = 74141
Flit latency average = 21.0459
	minimum = 7
	maximum = 77
Slowest flit = 74141
Fragmentation average = 0
	minimum = 0
	maximum = 0
Injected packet rate average = 0.101688
	minimum = 0.0913333 (at node 10)
	maximum = 0.11 (at node 12)
Accepted packet rate average = 0.10175
	minimum = 0.0916667 (at node 10)
	maximum = 0.109333 (at node 3)
Injected flit rate average = 0.101688
	minimum = 0.0913333 (at node 10)
	maximum = 0.11 (at node 12)
Accepted flit rate average= 0.10175
	minimum = 0.0916667 (at node 10)
	maximum = 0.109333 (at node 3)
Injected packet length average = 1
Accepted packet length average = 1
Total in-flight flits = 34 (34 measured)
latency change    = 0.00228688
throughput change = 0.000614251
Class 0:
Packet latency average = 21.0069
	minimum = 7
	maximum = 108
Network latency average = 20.9909
	minimum = 7
	maximum = 108
Slowest packet = 78351
Flit latency average = 21.0126
	minimum = 7
	maximum = 108
Slowest flit = 78351
Fragmentation average = 0
	minimum = 0
	maximum = 0
Injected packet rate average = 0.100422
	minimum = 0.0925 (at node 15)
	maximum = 0.1085 (at node 1)
Accepted packet rate average = 0.100359
	minimum = 0.0925 (at node 15)
	maximum = 0.108 (at node 4)
Injected flit rate average = 0.100422
	minimum = 0.0925 (at node 15)
	maximum = 0.1085 (at node 1)
Accepted flit rate average= 0.100359
	minimum = 0.0925 (at node 15)
	maximum = 0.108 (at node 4)
Injected packet length average = 1
Accepted packet length average = 1
Total in-flight flits = 41 (41 measured)
latency change    = 0.000771985
throughput change = 0.0138565
Draining all recorded packets ...
Draining remaining packets ...
Time taken is 7065 cycles
Class 0:
Packet latency average = 20.1405
	minimum = 7
	maximum = 66
Network latency average = 20.1357
	minimum = 7
	maximum = 66
Slowest packet = 80263
Flit latency average = 20.1357
	minimum = 7
	maximum = 66
Slowest flit = 80263
Fragmentation average = 0
	minimum = 0
	maximum = 0
Injected packet rate average = 0.106
	minimum = 0.084 (at node 9)
	maximum = 0.128 (at node 7)
Accepted packet rate average = 0.104125
	minimum = 0.082 (at node 6)
	maximum = 0.124 (at node 13)
Injected flit rate average = 0.106
	minimum = 0.084 (at node 9)
	maximum = 0.128 (at node 7)
Accepted flit rate average= 0.104125
	minimum = 0.082 (at node 6)
	maximum = 0.124 (at node 13)
Injected packet length average = 1
Accepted packet length average = 1
Total in-flight flits = 30 (0 measured)
latency change    = 1
throughput change = 1
Class 0:
Packet latency average = 20.223
	minimum = 7
	maximum = 66
Network latency average = 20.2194
	minimum = 7
	maximum = 66
Slowest packet = 80263
Flit latency average = 20.2194
	minimum = 7
	maximum = 66
Slowest flit = 80263
Fragmentation average = 0
	minimum = 0
	maximum = 0
Injected packet rate average = 0.105656
	minimum = 0.0915 (at node 12)
	maximum = 0.1205 (at node 7)
Accepted packet rate average = 0.104406
	minimum = 0.089 (at node 3)
	maximum = 0.12 (at node 13)
Injected flit rate average = 0.105656
	minimum = 0.0915 (at node 12)
	maximum = 0.1205 (at node 7)
Accepted flit rate average= 0.104406
	minimum = 0.089 (at node 3)
	maximum = 0.12 (at node 13)
Injected packet length average = 1
Accepted packet length average = 1
Total in-flight flits = 40 (0 measured)
latency change    = 0.00408105
throughput change = 0.0026938
Class 0:
Packet latency average = 20.3756
	minimum = 7
	maximum = 56
Network latency average = 20.3749
	minimum = 7
	maximum = 56
Slowest packet = 82967
Flit latency average = 20.3749
	minimum = 7
	maximum = 56
Slowest flit = 82967
Fragmentation average = 0
	minimum = 0
	maximum = 0
Injected packet rate average = 0.096875
	minimum = 0.087 (at node 10)
	maximum = 0.107 (at node 6)
Accepted packet rate average = 0.0981875
	minimum = 0.088 (at node 10)
	maximum = 0.108 (at node 9)
Injected flit rate average = 0.096875
	minimum = 0.087 (at node 10)
	maximum = 0.107 (at node 6)
Accepted flit rate average= 0.0981875
	minimum = 0.088 (at node 10)
	maximum = 0.108 (at node 9)
Injected packet length average = 1
Accepted packet length average = 1
Total in-flight flits = 19 (0 measured)
latency change    = 0.00748789
throughput change = 0.0633355
Warmed up ...Time used is 3000 cycles
Class 0:
Packet latency average = 20.3107
	minimum = 7
	maximum = 54
Network latency average = 20.31
	minimum = 7
	maximum = 54
Slowest packet = 84376
Flit latency average = 20.412
	minimum = 7
	maximum = 54
Slowest flit = 84376
Fragmentation average = 0
	minimum = 0
	maximum = 0
Injected packet rate average = 0.095375
	minimum = 0.079 (at node 3)
	maximum = 0.108 (at node 12)
Accepted packet rate average = 0.095125
	minimum = 0.078 (at node 12)
	maximum = 0.11 (at node 3)
Injected flit rate average = 0.095375
	minimum = 0.079 (at node 3)
	maximum = 0.108 (at node 12)
Accepted flit rate average= 0.095125
	minimum = 0.078 (at node 12)
	maximum = 0.11 (at node 3)
Injected packet length average = 1
Accepted packet length average = 1
Total in-flight flits = 23 (23 measured)
latency change    = 0.00319265
throughput change = 0.0321945
Class 0:
Packet latency average = 20.4176
	minimum = 7
	maximum = 63
Network latency average = 20.4118
	minimum = 7
	maximum = 63
Slowest packet = 85900
Flit latency average = 20.4607
	minimum = 7
	maximum = 63
Slowest flit = 85900
Fragmentation average = 0
	minimum = 0
	maximum = 0
Injected packet rate average = 0.097875
	minimum = 0.083 (at node 3)
	maximum = 0.1075 (at node 12)
Accepted packet rate average = 0.0978125
	minimum = 0.084 (at node 12)
	maximum = 0.107 (at node 3)
Injected flit rate average = 0.097875
	minimum = 0.083 (at node 3)
	maximum = 0.1075 (at node 12)
Accepted flit rate average= 0.0978125
	minimum = 0.084 (at node 12)
	maximum = 0.107 (at node 3)
Injected packet length average = 1
Accepted packet length average = 1
Total in-flight flits = 21 (21 measured)
latency change    = 0.00523269
throughput change = 0.027476
Class 0:
Packet latency average = 20.3217
	minimum = 7
	maximum = 63
Network latency average = 20.3177
	minimum = 7
	maximum = 63
Slowest packet = 85900
Flit latency average = 20.3503
	minimum = 7
	maximum = 63
Slowest flit = 85900
Fragmentation average = 0
	minimum = 0
	maximum = 0
Injected packet rate average = 0.0993958
	minimum = 0.09 (at node 3)
	maximum = 0.108667 (at node 13)
Accepted packet rate average = 0.0992708
	minimum = 0.09 (at node 12)
	maximum = 0.109667 (at node 7)
Injected flit rate average = 0.0993958
	minimum = 0.09 (at node 3)
	maximum = 0.108667 (at node 13)
Accepted flit rate average= 0.0992708
	minimum = 0.09 (at node 12)
	maximum = 0.109667 (at node 7)
Injected packet length average = 1
Accepted packet length average = 1
Total in-flight flits = 25 (25 measured)
latency change    = 0.00471446
throughput change = 0.0146905
Draining all recorded packets ...
Draining remaining packets ...
Time taken is 6067 cycles
Class 0:
Packet latency average = 20.5313
	minimum = 7
	maximum = 62
Network latency average = 20.5307
	minimum = 7
	maximum = 62
Slowest packet = 89923
Flit latency average = 20.5307
	minimum = 7
	maximum = 62
Slowest flit = 89923
Fragmentation average = 0
	minimum = 0
	maximum = 0
Injected packet rate average = 0.100125
	minimum = 0.083 (at node 14)
	maximum = 0.117 (at node 4)
Accepted packet rate average = 0.09775
	minimum = 0.081 (at node 11)
	maximum = 0.114 (at node 1)
Injected flit rate average = 0.100125
	minimum = 0.083 (at node 14)
	maximum = 0.117 (at node 4)
Accepted flit rate average= 0.09775
	minimum = 0.081 (at node 11)
	maximum = 0.114 (at node 1)
Injected packet length average = 1
Accepted packet length average = 1
Total in-flight flits = 38 (0 measured)
latency change    = 1
throughput change = 1
Class 0:
Packet latency average = 20.301
	minimum = 7
	maximum = 68
Network latency average = 20.2988
	minimum = 7
	maximum = 68
Slowest packet = 91352
Flit latency average = 20.2988
	minimum = 7
	maximum = 68
Slowest flit = 91352
Fragmentation average = 0
	minimum = 0
	maximum = 0
Injected packet rate average = 0.100906
	minimum = 0.088 (at node 8)
	maximum = 0.1125 (at node 10)
Accepted packet rate average = 0.100094
	minimum = 0.087 (at node 2)
	maximum = 0.112 (at node 10)
Injected flit rate average = 0.100906
	minimum = 0.088 (at node 8)
	maximum = 0.1125 (at node 10)
Accepted flit rate average= 0.100094
	minimum = 0.087 (at node 2)
	maximum = 0.112 (at node 10)
Injected packet length average = 1
Accepted packet length average = 1
Total in-flight flits = 26 (0 measured)
latency change    = 0.0113473
throughput change = 0.0234155
Class 0:
Packet latency average = 20.2184
	minimum = 7
	maximum = 50
Network latency average = 20.2184
	minimum = 7
	maximum = 50
Slowest packet = 92510
Flit latency average = 20.2184
	minimum = 7
	maximum = 50
Slowest flit = 92510
Fragmentation average = 0
	minimum = 0
	maximum = 0
Injected packet rate average = 0.0985
	minimum = 0.085 (at node 1)
	maximum = 0.109 (at node 0)
Accepted packet rate average = 0.09875
	minimum = 0.087 (at node 4)
	maximum = 0.11 (at node 12)
Injected flit rate average = 0.0985
	minimum = 0.085 (at node 1)
	maximum = 0.109 (at node 0)
Accepted flit rate average= 0.09875
	minimum = 0.087 (at node 4)
	maximum = 0.11 (at node 12)
Injected packet length average = 1
Accepted packet length average = 1
Total in-flight flits = 22 (0 measured)
latency change    = 0.00408606
throughput change = 0.0136076
Warmed up ...Time used is 3000 cycles
Class 0:
Packet latency average = 20.866
	minimum = 7
	maximum = 70
Network latency average = 20.8653
	minimum = 7
	maximum = 70
Slowest packet = 93601
Flit latency average = 20.9434
	minimum = 7
	maximum = 70
Slowest flit = 93601
Fragmentation average = 0
	minimum = 0
	maximum = 0
Injected packet rate average = 0.102438
	minimum = 0.091 (at node 9)
	maximum = 0.117 (at node 7)
Accepted packet rate average = 0.101625
	minimum = 0.088 (at node 6)
	maximum = 0.117 (at node 13)
Injected flit rate average = 0.102438
	minimum = 0.091 (at node 9)
	maximum = 0.117 (at node 7)
Accepted flit rate average= 0.101625
	minimum = 0.088 (at node 6)
	maximum = 0.117 (at node 13)
Injected packet length average = 1
Accepted packet length average = 1
Total in-flight flits = 35 (35 measured)
latency change    = 0.0310365
throughput change = 0.0282903
Class 0:
Packet latency average = 20.3438
	minimum = 7
	maximum = 70
Network latency average = 20.3435
	minimum = 7
	maximum = 70
Slowest packet = 93601
Flit latency average = 20.387
	minimum = 7
	maximum = 70
Slowest flit = 93601
Fragmentation average = 0
	minimum = 0
	maximum = 0
Injected packet rate average = 0.09975
	minimum = 0.0905 (at node 0)
	maximum = 0.108 (at node 7)
Accepted packet rate average = 0.0994063
	minimum = 0.09 (at node 7)
	maximum = 0.107 (at node 13)
Injected flit rate average = 0.09975
	minimum = 0.0905 (at node 0)
	maximum = 0.108 (at node 7)
Accepted flit rate average= 0.0994063
	minimum = 0.09 (at node 7)
	maximum = 0.107 (at node 13)
Injected packet length average = 1
Accepted packet length average = 1
Total in-flight flits = 33 (33 measured)
latency change    = 0.0256678
throughput change = 0.02232
Class 0:
Packet latency average = 20.1079
	minimum = 7
	maximum = 70
Network latency average = 20.1073
	minimum = 7
	maximum = 70
Slowest packet = 93601
Flit latency average = 20.1372
	minimum = 7
	maximum = 70
Slowest flit = 93601
Fragmentation average = 0
	minimum = 0
	maximum = 0
Injected packet rate average = 0.100333
	minimum = 0.087 (at node 13)
	maximum = 0.109 (at node 2)
Accepted packet rate average = 0.100083
	minimum = 0.0863333 (at node 7)
	maximum = 0.108333 (at node 8)
Injected flit rate average = 0.100333
	minimum = 0.087 (at node 13)
	maximum = 0.109 (at node 2)
Accepted flit rate average= 0.100083
	minimum = 0.0863333 (at node 7)
	maximum = 0.108333 (at node 8)
Injected packet length average = 1
Accepted packet length average = 1
Total in-flight flits = 34 (34 measured)
latency change    = 0.0117305
throughput change = 0.0067652
Draining all recorded packets ...
Draining remaining packets ...
Time taken is 6079 cycles
Class 0:
Packet latency average = 20.6541
	minimum = 7
	maximum = 52
Network latency average = 20.6535
	minimum = 7
	maximum = 52
Slowest packet = 99021
Flit latency average = 20.6535
	minimum = 7
	maximum = 52
Slowest flit = 99021
Fragmentation average = 0
	minimum = 0
	maximum = 0
Injected packet rate average = 0.101375
	minimum = 0.086 (at node 0)
	maximum = 0.115 (at node 11)
Accepted packet rate average = 0.0995625
	minimum = 0.086 (at node 0)
	maximum = 0.112 (at node 9)
Injected flit rate average = 0.101375
	minimum = 0.086 (at node 0)
	maximum = 0.115 (at node 11)
Accepted flit rate average= 0.0995625
	minimum = 0.086 (at node 0)
	maximum = 0.112 (at node 9)
Injected packet length average = 1
Accepted packet length average = 1
Total in-flight flits = 29 (0 measured)
latency change    = 1
throughput change = 1
Class 0:
Packet latency average = 20.5408
	minimum = 7
	maximum = 52
Network latency average = 20.5323
	minimum = 7
	maximum = 52
Slowest packet = 99021
Flit latency average = 20.5323
	minimum = 7
	maximum = 52
Slowest flit = 99021
Fragmentation average = 0
	minimum = 0
	maximum = 0
Injected packet rate average = 0.099625
	minimum = 0.0875 (at node 10)
	maximum = 0.1115 (at node 2)
Accepted packet rate average = 0.0986875
	minimum = 0.087 (at node 10)
	maximum = 0.11 (at node 8)
Injected flit rate average = 0.099625
	minimum = 0.0875 (at node 10)
	maximum = 0.1115 (at node 2)
Accepted flit rate average= 0.0986875
	minimum = 0.087 (at node 10)
	maximum = 0.11 (at node 8)
Injected packet length average = 1
Accepted packet length average = 1
Total in-flight flits = 30 (0 measured)
latency change    = 0.00551404
throughput change = 0.00886637
Class 0:
Packet latency average = 20.2749
	minimum = 7
	maximum = 50
Network latency average = 20.2749
	minimum = 7
	maximum = 50
Slowest packet = 101860
Flit latency average = 20.2749
	minimum = 7
	maximum = 50
Slowest flit = 101860
Fragmentation average = 0
	minimum = 0
	maximum = 0
Injected packet rate average = 0.10275
	minimum = 0.089 (at node 14)
	maximum = 0.117 (at node 8)
Accepted packet rate average = 0.10275
	minimum = 0.088 (at node 11)
	maximum = 0.117 (at node 9)
Injected flit rate average = 0.10275
	minimum = 0.089 (at node 14)
	maximum = 0.117 (at node 8)
Accepted flit rate average= 0.10275
	minimum = 0.088 (at node 11)
	maximum = 0.117 (at node 9)
Injected packet length average = 1
Accepted packet length average = 1
Total in-flight flits = 30 (0 measured)
latency change    = 0.0131152
throughput change = 0.0395377
Warmed up ...Time used is 3000 cycles
Class 0:
Packet latency average = 20.1207
	minimum = 7
	maximum = 72
Network latency average = 20.115
	minimum = 7
	maximum = 72
Slowest packet = 104493
Flit latency average = 20.2406
	minimum = 7
	maximum = 72
Slowest flit = 104493
Fragmentation average = 0
	minimum = 0
	maximum = 0
Injected packet rate average = 0.100812
	minimum = 0.082 (at node 2)
	maximum = 0.117 (at node 15)
Accepted packet rate average = 0.101312
	minimum = 0.08 (at node 8)
	maximum = 0.117 (at node 15)
Injected flit rate average = 0.100812
	minimum = 0.082 (at node 2)
	maximum = 0.117 (at node 15)
Accepted flit rate average= 0.101312
	minimum = 0.08 (at node 8)
	maximum = 0.117 (at node 15)
Injected packet length average = 1
Accepted packet length average = 1
Total in-flight flits = 22 (22 measured)
latency change    = 0.00766676
throughput change = 0.0141888
Class 0:
Packet latency average = 20.3748
	minimum = 7
	maximum = 91
Network latency average = 20.3405
	minimum = 7
	maximum = 91
Slowest packet = 106204
Flit latency average = 20.4013
	minimum = 7
	maximum = 91
Slowest flit = 106204
Fragmentation average = 0
	minimum = 0
	maximum = 0
Injected packet rate average = 0.101219
	minimum = 0.0875 (at node 13)
	maximum = 0.1165 (at node 7)
Accepted packet rate average = 0.101156
	minimum = 0.0875 (at node 7)
	maximum = 0.1165 (at node 13)
Injected flit rate average = 0.101219
	minimum = 0.0875 (at node 13)
	maximum = 0.1165 (at node 7)
Accepted flit rate average= 0.101156
	minimum = 0.0875 (at node 7)
	maximum = 0.1165 (at node 13)
Injected packet length average = 1
Accepted packet length average = 1
Total in-flight flits = 32 (32 measured)
latency change    = 0.0124726
throughput change = 0.00154464
Class 0:
Packet latency average = 20.436
	minimum = 7
	maximum = 91
Network latency average = 20.4024
	minimum = 7
	maximum = 91
Slowest packet = 106204
Flit latency average = 20.4429
	minimum = 7
	maximum = 91
Slowest flit = 106204
Fragmentation average = 0
	minimum = 0
	maximum = 0
Injected packet rate average = 0.100521
	minimum = 0.0903333 (at node 3)
	maximum = 0.11 (at node 7)
Accepted packet rate average = 0.100437
	minimum = 0.0906667 (at node 12)
	maximum = 0.111 (at node 6)
Injected flit rate average = 0.100521
	minimum = 0.0903333 (at node 3)
	maximum = 0.11 (at node 7)
Accepted flit rate average= 0.100437
	minimum = 0.0906667 (at node 12)
	maximum = 0.111 (at node 6)
Injected packet length average = 1
Accepted packet length average = 1
Total in-flight flits = 34 (34 measured)
latency change    = 0.00299573
throughput change = 0.00715619
Draining all recorded packets ...
Draining remaining packets ...
Time taken is 6077 cycles
Class 0:
Packet latency average = 20.4812
	minimum = 7
	maximum = 69
Network latency average = 20.4806
	minimum = 7
	maximum = 69
Slowest packet = 108939
Flit latency average = 20.4806
	minimum = 7
	maximum = 69
Slowest flit = 108939
Fragmentation average = 0
	minimum = 0
	maximum = 0
Injected packet rate average = 0.101813
	minimum = 0.086 (at node 12)
	maximum = 0.113 (at node 8)
Accepted packet rate average = 0.09975
	minimum = 0.085 (at node 3)
	maximum = 0.11 (at node 2)
Injected flit rate average = 0.101813
	minimum = 0.086 (at node 12)
	maximum = 0.113 (at node 8)
Accepted flit rate average= 0.09975
	minimum = 0.085 (at node 3)
	maximum = 0.11 (at node 2)
Injected packet length average = 1
Accepted packet length average = 1
Total in-flight flits = 33 (0 measured)
latency change    = 1
throughput change = 1
Class 0:
Packet latency average = 20.4019
	minimum = 7
	maximum = 73
Network latency average = 20.4003
	minimum = 7
	maximum = 73
Slowest packet = 109997
Flit latency average = 20.4003
	minimum = 7
	maximum = 73
Slowest flit = 109997
Fragmentation average = 0
	minimum = 0
	maximum = 0
Injected packet rate average = 0.101781
	minimum = 0.0935 (at node 13)
	maximum = 0.114 (at node 0)
Accepted packet rate average = 0.100937
	minimum = 0.092 (at node 7)
	maximum = 0.114 (at node 0)
Injected flit rate average = 0.101781
	minimum = 0.0935 (at node 13)
	maximum = 0.114 (at node 0)
Accepted flit rate average= 0.100937
	minimum = 0.092 (at node 7)
	maximum = 0.114 (at node 0)
Injected packet length average = 1
Accepted packet length average = 1
Total in-flight flits = 27 (0 measured)
latency change    = 0.00388913
throughput change = 0.0117647
Class 0:
Packet latency average = 20.3221
	minimum = 7
	maximum = 61
Network latency average = 20.3189
	minimum = 7
	maximum = 61
Slowest packet = 111929
Flit latency average = 20.3189
	minimum = 7
	maximum = 61
Slowest flit = 111929
Fragmentation average = 0
	minimum = 0
	maximum = 0
Injected packet rate average = 0.0985
	minimum = 0.086 (at node 0)
	maximum = 0.112 (at node 4)
Accepted packet rate average = 0.098
	minimum = 0.086 (at node 0)
	maximum = 0.113 (at node 5)
Injected flit rate average = 0.0985
	minimum = 0.086 (at node 0)
	maximum = 0.112 (at node 4)
Accepted flit rate average= 0.098
	minimum = 0.086 (at node 0)
	maximum = 0.113 (at node 5)
Injected packet length average = 1
Accepted packet length average = 1
Total in-flight flits = 35 (0 measured)
latency change    = 0.00392634
throughput change = 0.0299745
Warmed up ...Time used is 3000 cycles
Class 0:
Packet latency average = 19.6116
	minimum = 7
	maximum = 57
Network latency average = 19.6104
	minimum = 7
	maximum = 57
Slowest packet = 113734
Flit latency average = 19.716
	minimum = 7
	maximum = 57
Slowest flit = 113734
Fragmentation average = 0
	minimum = 0
	maximum = 0
Injected packet rate average = 0.1015
	minimum = 0.073 (at node 13)
	maximum = 0.117 (at node 15)
Accepted packet rate average = 0.102125
	minimum = 0.075 (at node 7)
	maximum = 0.117 (at node 15)
Injected flit rate average = 0.1015
	minimum = 0.073 (at node 13)
	maximum = 0.117 (at node 15)
Accepted flit rate average= 0.102125
	minimum = 0.075 (at node 7)
	maximum = 0.117 (at node 15)
Injected packet length average = 1
Accepted packet length average = 1
Total in-flight flits = 25 (25 measured)
latency change    = 0.0362251
throughput change = 0.0403917
Class 0:
Packet latency average = 20.0313
	minimum = 7
	maximum = 57
Network latency average = 20.0297
	minimum = 7
	maximum = 57
Slowest packet = 113734
Flit latency average = 20.0781
	minimum = 7
	maximum = 57
Slowest flit = 113734
Fragmentation average = 0
	minimum = 0
	maximum = 0
Injected packet rate average = 0.101938
	minimum = 0.08 (at node 13)
	maximum = 0.1155 (at node 15)
Accepted packet rate average = 0.102063
	minimum = 0.08 (at node 7)
	maximum = 0.115 (at node 15)
Injected flit rate average = 0.101938
	minimum = 0.08 (at node 13)
	maximum = 0.1155 (at node 15)
Accepted flit rate average= 0.102063
	minimum = 0.08 (at node 7)
	maximum = 0.115 (at node 15)
Injected packet length average = 1
Accepted packet length average = 1
Total in-flight flits = 31 (31 measured)
latency change    = 0.0209486
throughput change = 0.00061237
Class 0:
Packet latency average = 20.0627
	minimum = 7
	maximum = 64
Network latency average = 20.0614
	minimum = 7
	maximum = 64
Slowest packet = 117094
Flit latency average = 20.0938
	minimum = 7
	maximum = 64
Slowest flit = 117094
Fragmentation average = 0
	minimum = 0
	maximum = 0
Injected packet rate average = 0.100708
	minimum = 0.0853333 (at node 13)
	maximum = 0.114667 (at node 15)
Accepted packet rate average = 0.100812
	minimum = 0.086 (at node 7)
	maximum = 0.114 (at node 15)
Injected flit rate average = 0.100708
	minimum = 0.0853333 (at node 13)
	maximum = 0.114667 (at node 15)
Accepted flit rate average= 0.100812
	minimum = 0.086 (at node 7)
	maximum = 0.114 (at node 15)
Injected packet length average = 1
Accepted packet length average = 1
Total in-flight flits = 30 (30 measured)
latency change    = 0.00156492
throughput change = 0.0123993
Draining all recorded packets ...
Draining remaining packets ...
Time taken is 6096 cycles
Class 0:
Packet latency average = 20.4603
	minimum = 7
	maximum = 67
Network latency average = 20.4603
	minimum = 7
	maximum = 67
Slowest packet = 118791
Flit latency average = 20.4603
	minimum = 7
	maximum = 67
Slowest flit = 118791
Fragmentation average = 0
	minimum = 0
	maximum = 0
Injected packet rate average = 0.099125
	minimum = 0.084 (at node 13)
	maximum = 0.113 (at node 2)
Accepted packet rate average = 0.0969375
	minimum = 0.08 (at node 7)
	maximum = 0.111 (at node 8)
Injected flit rate average = 0.099125
	minimum = 0.084 (at node 13)
	maximum = 0.113 (at node 2)
Accepted flit rate average= 0.0969375
	minimum = 0.08 (at node 7)
	maximum = 0.111 (at node 8)
Injected packet length average = 1
Accepted packet length average = 1
Total in-flight flits = 35 (0 measured)
latency change    = 1
throughput change = 1
Class 0:
Packet latency average = 20.6201
	minimum = 7
	maximum = 67
Network latency average = 20.6185
	minimum = 7
	maximum = 67
Slowest packet = 118791
Flit latency average = 20.6185
	minimum = 7
	maximum = 67
Slowest flit = 118791
Fragmentation average = 0
	minimum = 0
	maximum = 0
Injected packet rate average = 0.0985
	minimum = 0.088 (at node 10)
	maximum = 0.11 (at node 14)
Accepted packet rate average = 0.0975625
	minimum = 0.088 (at node 10)
	maximum = 0.1095 (at node 11)
Injected flit rate average = 0.0985
	minimum = 0.088 (at node 10)
	maximum = 0.11 (at node 14)
Accepted flit rate average= 0.0975625
	minimum = 0.088 (at node 10)
	maximum = 0.1095 (at node 11)
Injected packet length average = 1
Accepted packet length average = 1
Total in-flight flits = 30 (0 measured)
latency change    = 0.00774812
throughput change = 0.00640615
Class 0:
Packet latency average = 20.0532
	minimum = 7
	maximum = 54
Network latency average = 20.0526
	minimum = 7
	maximum = 54
Slowest packet = 121932
Flit latency average = 20.0526
	minimum = 7
	maximum = 54
Slowest flit = 121932
Fragmentation average = 0
	minimum = 0
	maximum = 0
Injected packet rate average = 0.100125
	minimum = 0.09 (at node 10)
	maximum = 0.118 (at node 0)
Accepted packet rate average = 0.099875
	minimum = 0.088 (at node 10)
	maximum = 0.117 (at node 0)
Injected flit rate average = 0.100125
	minimum = 0.09 (at node 10)
	maximum = 0.118 (at node 0)
Accepted flit rate average= 0.099875
	minimum = 0.088 (at node 10)
	maximum = 0.117 (at node 0)
Injected packet length average = 1
Accepted packet length average = 1
Total in-flight flits = 34 (0 measured)
latency change    = 0.028271
throughput change = 0.0231539
Warmed up ...Time used is 3000 cycles
Class 0:
Packet latency average = 20.0013
	minimum = 7
	maximum = 69
Network latency average = 20.0006
	minimum = 7
	maximum = 69
Slowest packet = 123403
Flit latency average = 20.0525
	minimum = 7
	maximum = 69
Slowest flit = 123403
Fragmentation average = 0
	minimum = 0
	maximum = 0
Injected packet rate average = 0.101312
	minimum = 0.082 (at node 13)
	maximum = 0.119 (at node 10)
Accepted packet rate average = 0.101187
	minimum = 0.077 (at node 7)
	maximum = 0.118 (at node 10)
Injected flit rate average = 0.101312
	minimum = 0.082 (at node 13)
	maximum = 0.119 (at node 10)
Accepted flit rate average= 0.101187
	minimum = 0.077 (at node 7)
	maximum = 0.118 (at node 10)
Injected packet length average = 1
Accepted packet length average = 1
Total in-flight flits = 36 (36 measured)
latency change    = 0.00259632
throughput change = 0.012971
Class 0:
Packet latency average = 20.2054
	minimum = 7
	maximum = 69
Network latency average = 20.1994
	minimum = 7
	maximum = 69
Slowest packet = 123403
Flit latency average = 20.2238
	minimum = 7
	maximum = 69
Slowest flit = 123403
Fragmentation average = 0
	minimum = 0
	maximum = 0
Injected packet rate average = 0.09875
	minimum = 0.089 (at node 12)
	maximum = 0.11 (at node 2)
Accepted packet rate average = 0.0987187
	minimum = 0.0875 (at node 3)
	maximum = 0.111 (at node 10)
Injected flit rate average = 0.09875
	minimum = 0.089 (at node 12)
	maximum = 0.11 (at node 2)
Accepted flit rate average= 0.0987187
	minimum = 0.0875 (at node 3)
	maximum = 0.111 (at node 10)
Injected packet length average = 1
Accepted packet length average = 1
Total in-flight flits = 35 (35 measured)
latency change    = 0.0101051
throughput change = 0.0250079
Class 0:
Packet latency average = 20.5975
	minimum = 7
	maximum = 80
Network latency average = 20.5923
	minimum = 7
	maximum = 80
Slowest packet = 126216
Flit latency average = 20.6059
	minimum = 7
	maximum = 80
Slowest flit = 126216
Fragmentation average = 0
	minimum = 0
	maximum = 0
Injected packet rate average = 0.0982083
	minimum = 0.088 (at node 5)
	maximum = 0.104667 (at node 2)
Accepted packet rate average = 0.0980625
	minimum = 0.0886667 (at node 5)
	maximum = 0.104 (at node 8)
Injected flit rate average = 0.0982083
	minimum = 0.088 (at node 5)
	maximum = 0.104667 (at node 2)
Accepted flit rate average= 0.0980625
	minimum = 0.0886667 (at node 5)
	maximum = 0.104 (at node 8)
Injected packet length average = 1
Accepted packet length average = 1
Total in-flight flits = 41 (41 measured)
latency change    = 0.0190332
throughput change = 0.00669216
Draining all recorded packets ...
Draining remaining packets ...
Time taken is 6064 cycles
Class 0:
Packet latency average = 20.8071
	minimum = 7
	maximum = 62
Network latency average = 20.7982
	minimum = 7
	maximum = 62
Slowest packet = 127953
Flit latency average = 20.7982
	minimum = 7
	maximum = 62
Slowest flit = 127953
Fragmentation average = 0
	minimum = 0
	maximum = 0
Injected packet rate average = 0.100562
	minimum = 0.085 (at node 10)
	maximum = 0.119 (at node 13)
Accepted packet rate average = 0.0981875
	minimum = 0.084 (at node 10)
	maximum = 0.116 (at node 7)
Injected flit rate average = 0.100562
	minimum = 0.085 (at node 10)
	maximum = 0.119 (at node 13)
Accepted flit rate average= 0.0981875
	minimum = 0.084 (at node 10)
	maximum = 0.116 (at node 7)
Injected packet length average = 1
Accepted packet length average = 1
Total in-flight flits = 38 (0 measured)
latency change    = 1
throughput change = 1
Class 0:
Packet latency average = 21.5788
	minimum = 7
	maximum = 97
Network latency average = 21.5642
	minimum = 7
	maximum = 97
Slowest packet = 129329
Flit latency average = 21.5642
	minimum = 7
	maximum = 97
Slowest flit = 129329
Fragmentation average = 0
	minimum = 0
	maximum = 0
Injected packet rate average = 0.101688
	minimum = 0.088 (at node 9)
	maximum = 0.123 (at node 12)
Accepted packet rate average = 0.100594
	minimum = 0.087 (at node 14)
	maximum = 0.1215 (at node 3)
Injected flit rate average = 0.101688
	minimum = 0.088 (at node 9)
	maximum = 0.123 (at node 12)
Accepted flit rate average= 0.100594
	minimum = 0.087 (at node 14)
	maximum = 0.1215 (at node 3)
Injected packet length average = 1
Accepted packet length average = 1
Total in-flight flits = 35 (0 measured)
latency change    = 0.0357584
throughput change = 0.0239205
Class 0:
Packet latency average = 20.4121
	minimum = 7
	maximum = 56
Network latency average = 20.4024
	minimum = 7
	maximum = 56
Slowest packet = 131242
Flit latency average = 20.4024
	minimum = 7
	maximum = 56
Slowest flit = 131242
Fragmentation average = 0
	minimum = 0
	maximum = 0
Injected packet rate average = 0.103438
	minimum = 0.09 (at node 4)
	maximum = 0.12 (at node 3)
Accepted packet rate average = 0.103438
	minimum = 0.09 (at node 1)
	maximum = 0.122 (at node 12)
Injected flit rate average = 0.103438
	minimum = 0.09 (at node 4)
	maximum = 0.12 (at node 3)
Accepted flit rate average= 0.103438
	minimum = 0.09 (at node 1)
	maximum = 0.122 (at node 12)
Injected packet length average = 1
Accepted packet length average = 1
Total in-flight flits = 35 (0 measured)
latency change    = 0.0571557
throughput change = 0.0274924
Warmed up ...Time used is 3000 cycles
Class 0:
Packet latency average = 20.8157
	minimum = 7
	maximum = 60
Network latency average = 20.8157
	minimum = 7
	maximum = 60
Slowest packet = 133099
Flit latency average = 21.0846
	minimum = 7
	maximum = 64
Slowest flit = 132089
Fragmentation average = 0
	minimum = 0
	maximum = 0
Injected packet rate average = 0.100937
	minimum = 0.082 (at node 5)
	maximum = 0.117 (at node 14)
Accepted packet rate average = 0.101187
	minimum = 0.082 (at node 5)
	maximum = 0.118 (at node 11)
Injected flit rate average = 0.100937
	minimum = 0.082 (at node 5)
	maximum = 0.117 (at node 14)
Accepted flit rate average= 0.101187
	minimum = 0.082 (at node 5)
	maximum = 0.118 (at node 11)
Injected packet length average = 1
Accepted packet length average = 1
Total in-flight flits = 31 (31 measured)
latency change    = 0.0193879
throughput change = 0.0222359
Class 0:
Packet latency average = 20.5845
	minimum = 7
	maximum = 65
Network latency average = 20.5826
	minimum = 7
	maximum = 65
Slowest packet = 134576
Flit latency average = 20.7213
	minimum = 7
	maximum = 65
Slowest flit = 134576
Fragmentation average = 0
	minimum = 0
	maximum = 0
Injected packet rate average = 0.100469
	minimum = 0.0885 (at node 5)
	maximum = 0.115 (at node 2)
Accepted packet rate average = 0.1
	minimum = 0.0875 (at node 5)
	maximum = 0.115 (at node 8)
Injected flit rate average = 0.100469
	minimum = 0.0885 (at node 5)
	maximum = 0.115 (at node 2)
Accepted flit rate average= 0.1
	minimum = 0.0875 (at node 5)
	maximum = 0.115 (at node 8)
Injected packet length average = 1
Accepted packet length average = 1
Total in-flight flits = 50 (50 measured)
latency change    = 0.0112287
throughput change = 0.011875
Class 0:
Packet latency average = 20.3998
	minimum = 7
	maximum = 79
Network latency average = 20.3979
	minimum = 7
	maximum = 79
Slowest packet = 135375
Flit latency average = 20.491
	minimum = 7
	maximum = 79
Slowest flit = 135375
Fragmentation average = 0
	minimum = 0
	maximum = 0
Injected packet rate average = 0.100562
	minimum = 0.0926667 (at node 13)
	maximum = 0.106333 (at node 2)
Accepted packet rate average = 0.100729
	minimum = 0.092 (at node 7)
	maximum = 0.108 (at node 8)
Injected flit rate average = 0.100562
	minimum = 0.0926667 (at node 13)
	maximum = 0.106333 (at node 2)
Accepted flit rate average= 0.100729
	minimum = 0.092 (at node 7)
	maximum = 0.108 (at node 8)
Injected packet length average = 1
Accepted packet length average = 1
Total in-flight flits = 27 (27 measured)
latency change    = 0.00905531
throughput change = 0.00723888
Draining all recorded packets ...
Draining remaining packets ...
Time taken is 6077 cycles
Class 0:
Packet latency average = 21.2632
	minimum = 7
	maximum = 67
Network latency average = 21.2549
	minimum = 7
	maximum = 67
Slowest packet = 137845
Flit latency average = 21.2549
	minimum = 7
	maximum = 67
Slowest flit = 137845
Fragmentation average = 0
	minimum = 0
	maximum = 0
Injected packet rate average = 0.100437
	minimum = 0.076 (at node 15)
	maximum = 0.122 (at node 3)
Accepted packet rate average = 0.0985625
	minimum = 0.076 (at node 15)
	maximum = 0.117 (at node 12)
Injected flit rate average = 0.100437
	minimum = 0.076 (at node 15)
	maximum = 0.122 (at node 3)
Accepted flit rate average= 0.0985625
	minimum = 0.076 (at node 15)
	maximum = 0.117 (at node 12)
Injected packet length average = 1
Accepted packet length average = 1
Total in-flight flits = 30 (0 measured)
latency change    = 1
throughput change = 1
Class 0:
Packet latency average = 20.9078
	minimum = 7
	maximum = 77
Network latency average = 20.9
	minimum = 7
	maximum = 77
Slowest packet = 138960
Flit latency average = 20.9
	minimum = 7
	maximum = 77
Slowest flit = 138960
Fragmentation average = 0
	minimum = 0
	maximum = 0
Injected packet rate average = 0.101375
	minimum = 0.089 (at node 15)
	maximum = 0.117 (at node 3)
Accepted packet rate average = 0.1
	minimum = 0.0885 (at node 15)
	maximum = 0.111 (at node 12)
Injected flit rate average = 0.101375
	minimum = 0.089 (at node 15)
	maximum = 0.117 (at node 3)
Accepted flit rate average= 0.1
	minimum = 0.0885 (at node 15)
	maximum = 0.111 (at node 12)
Injected packet length average = 1
Accepted packet length average = 1
Total in-flight flits = 44 (0 measured)
latency change    = 0.0169958
throughput change = 0.014375
Class 0:
Packet latency average = 20.5207
	minimum = 7
	maximum = 77
Network latency average = 20.511
	minimum = 7
	maximum = 77
Slowest packet = 140223
Flit latency average = 20.511
	minimum = 7
	maximum = 77
Slowest flit = 140223
Fragmentation average = 0
	minimum = 0
	maximum = 0
Injected packet rate average = 0.095125
	minimum = 0.085 (at node 9)
	maximum = 0.111 (at node 11)
Accepted packet rate average = 0.096625
	minimum = 0.087 (at node 6)
	maximum = 0.113 (at node 14)
Injected flit rate average = 0.095125
	minimum = 0.085 (at node 9)
	maximum = 0.111 (at node 11)
Accepted flit rate average= 0.096625
	minimum = 0.087 (at node 6)
	maximum = 0.113 (at node 14)
Injected packet length average = 1
Accepted packet length average = 1
Total in-flight flits = 20 (0 measured)
latency change    = 0.0188646
throughput change = 0.0349288
Warmed up ...Time used is 3000 cycles
Class 0:
Packet latency average = 21.0359
	minimum = 7
	maximum = 86
Network latency average = 21.0333
	minimum = 7
	maximum = 86
Slowest packet = 143197
Flit latency average = 21.0582
	minimum = 7
	maximum = 86
Slowest flit = 143197
Fragmentation average = 0
	minimum = 0
	maximum = 0
Injected packet rate average = 0.099375
	minimum = 0.082 (at node 10)
	maximum = 0.115 (at node 13)
Accepted packet rate average = 0.098875
	minimum = 0.081 (at node 0)
	maximum = 0.115 (at node 15)
Injected flit rate average = 0.099375
	minimum = 0.082 (at node 10)
	maximum = 0.115 (at node 13)
Accepted flit rate average= 0.098875
	minimum = 0.081 (at node 0)
	maximum = 0.115 (at node 15)
Injected packet length average = 1
Accepted packet length average = 1
Total in-flight flits = 28 (28 measured)
latency change    = 0.0244893
throughput change = 0.022756
Class 0:
Packet latency average = 20.4777
	minimum = 7
	maximum = 86
Network latency average = 20.4737
	minimum = 7
	maximum = 86
Slowest packet = 143197
Flit latency average = 20.4893
	minimum = 7
	maximum = 86
Slowest flit = 143197
Fragmentation average = 0
	minimum = 0
	maximum = 0
Injected packet rate average = 0.101062
	minimum = 0.092 (at node 0)
	maximum = 0.1165 (at node 15)
Accepted packet rate average = 0.100844
	minimum = 0.0925 (at node 0)
	maximum = 0.116 (at node 15)
Injected flit rate average = 0.101062
	minimum = 0.092 (at node 0)
	maximum = 0.1165 (at node 15)
Accepted flit rate average= 0.100844
	minimum = 0.0925 (at node 0)
	maximum = 0.116 (at node 15)
Injected packet length average = 1
Accepted packet length average = 1
Total in-flight flits = 27 (27 measured)
latency change    = 0.0272563
throughput change = 0.0195228
Class 0:
Packet latency average = 20.3204
	minimum = 7
	maximum = 86
Network latency average = 20.3177
	minimum = 7
	maximum = 86
Slowest packet = 143197
Flit latency average = 20.3289
	minimum = 7
	maximum = 86
Slowest flit = 143197
Fragmentation average = 0
	minimum = 0
	maximum = 0
Injected packet rate average = 0.0997083
	minimum = 0.0923333 (at node 0)
	maximum = 0.113333 (at node 15)
Accepted packet rate average = 0.0994375
	minimum = 0.092 (at node 0)
	maximum = 0.113333 (at node 15)
Injected flit rate average = 0.0997083
	minimum = 0.0923333 (at node 0)
	maximum = 0.113333 (at node 15)
Accepted flit rate average= 0.0994375
	minimum = 0.092 (at node 0)
	maximum = 0.113333 (at node 15)
Injected packet length average = 1
Accepted packet length average = 1
Total in-flight flits = 33 (33 measured)
latency change    = 0.00773979
throughput change = 0.014142
Draining all recorded packets ...
Draining remaining packets ...
Time taken is 6078 cycles
Class 0:
Packet latency average = 20.4222
	minimum = 7
	maximum = 56
Network latency average = 20.4216
	minimum = 7
	maximum = 56
Slowest packet = 148022
Flit latency average = 20.4216
	minimum = 7
	maximum = 56
Slowest flit = 148022
Fragmentation average = 0
	minimum = 0
	maximum = 0
Injected packet rate average = 0.103375
	minimum = 0.084 (at node 9)
	maximum = 0.119 (at node 10)
Accepted packet rate average = 0.10125
	minimum = 0.079 (at node 6)
	maximum = 0.118 (at node 10)
Injected flit rate average = 0.103375
	minimum = 0.084 (at node 9)
	maximum = 0.119 (at node 10)
[...]
	maximum = 0
Injected packet rate average = 0.101375
	minimum = 0.083 (at node 1)
	maximum = 0.117 (at node 3)
Accepted packet rate average = 0.101187
	minimum = 0.084 (at node 4)
	maximum = 0.116 (at node 12)
Injected flit rate average = 0.101375
	minimum = 0.083 (at node 1)
	maximum = 0.117 (at node 3)
Accepted flit rate average= 0.101187
	minimum = 0.084 (at node 4)
	maximum = 0.116 (at node 12)
Injected packet length average = 1
Accepted packet length average = 1
Total in-flight flits = 29 (29 measured)
latency change    = 0.0151699
throughput change = 0.0382952
Class 0:
Packet latency average = 20.3852
	minimum = 7
	maximum = 54
Network latency average = 20.3849
	minimum = 7
	maximum = 54
Slowest packet = 962114
Flit latency average = 20.4256
	minimum = 7
	maximum = 54
Slowest flit = 962114
Fragmentation average = 0
	minimum = 0
	maximum = 0
Injected packet rate average = 0.100437
	minimum = 0.091 (at node 7)
	maximum = 0.1085 (at node 9)
Accepted packet rate average = 0.100437
	minimum = 0.09 (at node 13)
	maximum = 0.109 (at node 6)
Injected flit rate average = 0.100437
	minimum = 0.091 (at node 7)
	maximum = 0.1085 (at node 9)
Accepted flit rate average= 0.100437
	minimum = 0.09 (at node 13)
	maximum = 0.109 (at node 6)
Injected packet length average = 1
Accepted packet length average = 1
Total in-flight flits = 26 (26 measured)
latency change    = 0.00149706
throughput change = 0.00746733
Class 0:
Packet latency average = 20.4595
	minimum = 7
	maximum = 72
Network latency average = 20.4585
	minimum = 7
	maximum = 72
Slowest packet = 964878
Flit latency average = 20.4854
	minimum = 7
	maximum = 72
Slowest flit = 964878
Fragmentation average = 0
	minimum = 0
	maximum = 0
Injected packet rate average = 0.099875
	minimum = 0.093 (at node 7)
	maximum = 0.108 (at node 12)
Accepted packet rate average = 0.0999167
	minimum = 0.093 (at node 13)
	maximum = 0.11 (at node 3)
Injected flit rate average = 0.099875
	minimum = 0.093 (at node 7)
	maximum = 0.108 (at node 12)
Accepted flit rate average= 0.0999167
	minimum = 0.093 (at node 13)
	maximum = 0.11 (at node 3)
Injected packet length average = 1
Accepted packet length average = 1
Total in-flight flits = 24 (24 measured)
latency change    = 0.00363372
throughput change = 0.00521268
Draining all recorded packets ...
Draining remaining packets ...
Time taken is 6077 cycles
Class 0:
Packet latency average = 19.745
	minimum = 7
	maximum = 53
Network latency average = 19.7438
	minimum = 7
	maximum = 53
Slowest packet = 967850
Flit latency average = 19.7438
	minimum = 7
	maximum = 53
Slowest flit = 967850
Fragmentation average = 0
	minimum = 0
	maximum = 0
Injected packet rate average = 0.099875
	minimum = 0.084 (at node 11)
	maximum = 0.112 (at node 4)
Accepted packet rate average = 0.0975625
	minimum = 0.084 (at node 14)
	maximum = 0.112 (at node 1)
Injected flit rate average = 0.099875
	minimum = 0.084 (at node 11)
	maximum = 0.112 (at node 4)
Accepted flit rate average= 0.0975625
	minimum = 0.084 (at node 14)
	maximum = 0.112 (at node 1)
Injected packet length average = 1
Accepted packet length average = 1
Total in-flight flits = 37 (0 measured)
latency change    = 1
throughput change = 1
Class 0:
Packet latency average = 20.0414
	minimum = 7
	maximum = 77
Network latency average = 20.033
	minimum = 7
	maximum = 77
Slowest packet = 967889
Flit latency average = 20.033
	minimum = 7
	maximum = 77
Slowest flit = 967889
Fragmentation average = 0
	minimum = 0
	maximum = 0
Injected packet rate average = 0.101469
	minimum = 0.091 (at node 1)
	maximum = 0.115 (at node 10)
Accepted packet rate average = 0.100406
	minimum = 0.091 (at node 4)
	maximum = 0.115 (at node 10)
Injected flit rate average = 0.101469
	minimum = 0.091 (at node 1)
	maximum = 0.115 (at node 10)
Accepted flit rate average= 0.100406
	minimum = 0.091 (at node 4)
	maximum = 0.115 (at node 10)
Injected packet length average = 1
Accepted packet length average = 1
Total in-flight flits = 34 (0 measured)
latency change    = 0.0147873
throughput change = 0.0283224
Class 0:
Packet latency average = 20.2651
	minimum = 7
	maximum = 52
Network latency average = 20.2621
	minimum = 7
	maximum = 52
Slowest packet = 969946
Flit latency average = 20.2621
	minimum = 7
	maximum = 52
Slowest flit = 969946
Fragmentation average = 0
	minimum = 0
	maximum = 0
Injected packet rate average = 0.103563
	minimum = 0.092 (at node 0)
	maximum = 0.117 (at node 15)
Accepted packet rate average = 0.104188
	minimum = 0.093 (at node 0)
	maximum = 0.118 (at node 15)
Injected flit rate average = 0.103563
	minimum = 0.092 (at node 0)
	maximum = 0.117 (at node 15)
Accepted flit rate average= 0.104188
	minimum = 0.093 (at node 0)
	maximum = 0.118 (at node 15)
Injected packet length average = 1
Accepted packet length average = 1
Total in-flight flits = 24 (0 measured)
latency change    = 0.0110413
throughput change = 0.0362927
Warmed up ...Time used is 3000 cycles
Class 0:
Packet latency average = 19.8059
	minimum = 7
	maximum = 63
Network latency average = 19.8047
	minimum = 7
	maximum = 63
Slowest packet = 972462
Flit latency average = 19.8979
	minimum = 7
	maximum = 63
Slowest flit = 972462
Fragmentation average = 0
	minimum = 0
	maximum = 0
Injected packet rate average = 0.101375
	minimum = 0.084 (at node 1)
	maximum = 0.115 (at node 10)
Accepted packet rate average = 0.100375
	minimum = 0.085 (at node 4)
	maximum = 0.115 (at node 10)
Injected flit rate average = 0.101375
	minimum = 0.084 (at node 1)
	maximum = 0.115 (at node 10)
Accepted flit rate average= 0.100375
	minimum = 0.085 (at node 4)
	maximum = 0.115 (at node 10)
Injected packet length average = 1
Accepted packet length average = 1
Total in-flight flits = 40 (40 measured)
latency change    = 0.0231852
throughput change = 0.0379826
Class 0:
Packet latency average = 20.0919
	minimum = 7
	maximum = 78
Network latency average = 20.0907
	minimum = 7
	maximum = 78
Slowest packet = 973544
Flit latency average = 20.1346
	minimum = 7
	maximum = 78
Slowest flit = 973544
Fragmentation average = 0
	minimum = 0
	maximum = 0
Injected packet rate average = 0.101719
	minimum = 0.09 (at node 1)
	maximum = 0.114 (at node 14)
Accepted packet rate average = 0.101719
	minimum = 0.0895 (at node 4)
	maximum = 0.114 (at node 11)
Injected flit rate average = 0.101719
	minimum = 0.09 (at node 1)
	maximum = 0.114 (at node 14)
Accepted flit rate average= 0.101719
	minimum = 0.0895 (at node 4)
	maximum = 0.114 (at node 11)
Injected packet length average = 1
Accepted packet length average = 1
Total in-flight flits = 24 (24 measured)
latency change    = 0.0142336
throughput change = 0.0132104
Class 0:
Packet latency average = 20.2871
	minimum = 7
	maximum = 78
Network latency average = 20.2858
	minimum = 7
	maximum = 78
Slowest packet = 973544
Flit latency average = 20.3145
	minimum = 7
	maximum = 78
Slowest flit = 973544
Fragmentation average = 0
	minimum = 0
	maximum = 0
Injected packet rate average = 0.100292
	minimum = 0.0913333 (at node 8)
	maximum = 0.11 (at node 14)
Accepted packet rate average = 0.100146
	minimum = 0.0913333 (at node 2)
	maximum = 0.109667 (at node 11)
Injected flit rate average = 0.100292
	minimum = 0.0913333 (at node 8)
	maximum = 0.11 (at node 14)
Accepted flit rate average= 0.100146
	minimum = 0.0913333 (at node 2)
	maximum = 0.109667 (at node 11)
Injected packet length average = 1
Accepted packet length average = 1
Total in-flight flits = 31 (31 measured)
latency change    = 0.00961876
throughput change = 0.0157063
Draining all recorded packets ...
Draining remaining packets ...
Time taken is 6080 cycles
Class 0:
Packet latency average = 19.9415
	minimum = 7
	maximum = 50
Network latency average = 19.9396
	minimum = 7
	maximum = 50
Slowest packet = 977585
Flit latency average = 19.9396
	minimum = 7
	maximum = 50
Slowest flit = 977585
Fragmentation average = 0
	minimum = 0
	maximum = 0
Injected packet rate average = 0.100875
	minimum = 0.09 (at node 8)
	maximum = 0.126 (at node 6)
Accepted packet rate average = 0.0993125
	minimum = 0.088 (at node 2)
	maximum = 0.124 (at node 9)
Injected flit rate average = 0.100875
	minimum = 0.09 (at node 8)
	maximum = 0.126 (at node 6)
Accepted flit rate average= 0.0993125
	minimum = 0.088 (at node 2)
	maximum = 0.124 (at node 9)
Injected packet length average = 1
Accepted packet length average = 1
Total in-flight flits = 25 (0 measured)
latency change    = 1
throughput change = 1
Class 0:
Packet latency average = 20.1331
	minimum = 7
	maximum = 66
Network latency average = 20.1319
	minimum = 7
	maximum = 66
Slowest packet = 978974
Flit latency average = 20.1319
	minimum = 7
	maximum = 66
Slowest flit = 978974
Fragmentation average = 0
	minimum = 0
	maximum = 0
Injected packet rate average = 0.100625
	minimum = 0.09 (at node 8)
	maximum = 0.1125 (at node 6)
Accepted packet rate average = 0.0997813
	minimum = 0.0885 (at node 2)
	maximum = 0.1115 (at node 9)
Injected flit rate average = 0.100625
	minimum = 0.09 (at node 8)
	maximum = 0.1125 (at node 6)
Accepted flit rate average= 0.0997813
	minimum = 0.0885 (at node 2)
	maximum = 0.1115 (at node 9)
Injected packet length average = 1
Accepted packet length average = 1
Total in-flight flits = 27 (0 measured)
latency change    = 0.00951821
throughput change = 0.00469778
Class 0:
Packet latency average = 20.8288
	minimum = 7
	maximum = 73
Network latency average = 20.8263
	minimum = 7
	maximum = 73
Slowest packet = 979808
Flit latency average = 20.8263
	minimum = 7
	maximum = 73
Slowest flit = 979808
Fragmentation average = 0
	minimum = 0
	maximum = 0
Injected packet rate average = 0.101125
	minimum = 0.086 (at node 7)
	maximum = 0.115 (at node 13)
Accepted packet rate average = 0.10075
	minimum = 0.088 (at node 13)
	maximum = 0.117 (at node 7)
Injected flit rate average = 0.101125
	minimum = 0.086 (at node 7)
	maximum = 0.115 (at node 13)
Accepted flit rate average= 0.10075
	minimum = 0.088 (at node 13)
	maximum = 0.117 (at node 7)
Injected packet length average = 1
Accepted packet length average = 1
Total in-flight flits = 33 (0 measured)
latency change    = 0.0334
throughput change = 0.00961538
Warmed up ...Time used is 3000 cycles
Class 0:
Packet latency average = 20.4669
	minimum = 7
	maximum = 79
Network latency average = 20.4551
	minimum = 7
	maximum = 79
Slowest packet = 982033
Flit latency average = 20.5505
	minimum = 7
	maximum = 79
Slowest flit = 982033
Fragmentation average = 0
	minimum = 0
	maximum = 0
Injected packet rate average = 0.101938
	minimum = 0.084 (at node 15)
	maximum = 0.118 (at node 4)
Accepted packet rate average = 0.102188
	minimum = 0.085 (at node 15)
	maximum = 0.122 (at node 14)
Injected flit rate average = 0.101938
	minimum = 0.084 (at node 15)
	maximum = 0.118 (at node 4)
Accepted flit rate average= 0.102188
	minimum = 0.085 (at node 15)
	maximum = 0.122 (at node 14)
Injected packet length average = 1
Accepted packet length average = 1
Total in-flight flits = 29 (29 measured)
latency change    = 0.0176806
throughput change = 0.0140673
Class 0:
Packet latency average = 20.6052
	minimum = 7
	maximum = 79
Network latency average = 20.5988
	minimum = 7
	maximum = 79
Slowest packet = 982033
Flit latency average = 20.6467
	minimum = 7
	maximum = 79
Slowest flit = 982033
Fragmentation average = 0
	minimum = 0
	maximum = 0
Injected packet rate average = 0.0987187
	minimum = 0.087 (at node 5)
	maximum = 0.11 (at node 4)
Accepted packet rate average = 0.0987187
	minimum = 0.087 (at node 5)
	maximum = 0.1085 (at node 1)
Injected flit rate average = 0.0987187
	minimum = 0.087 (at node 5)
	maximum = 0.11 (at node 4)
Accepted flit rate average= 0.0987187
	minimum = 0.087 (at node 5)
	maximum = 0.1085 (at node 1)
Injected packet length average = 1
Accepted packet length average = 1
Total in-flight flits = 33 (33 measured)
latency change    = 0.00671334
throughput change = 0.0351377
Class 0:
Packet latency average = 20.3737
	minimum = 7
	maximum = 79
Network latency average = 20.36
	minimum = 7
	maximum = 79
Slowest packet = 982033
Flit latency average = 20.3934
	minimum = 7
	maximum = 79
Slowest flit = 982033
Fragmentation average = 0
	minimum = 0
	maximum = 0
Injected packet rate average = 0.0990208
	minimum = 0.089 (at node 12)
	maximum = 0.104333 (at node 13)
Accepted packet rate average = 0.0990208
	minimum = 0.0886667 (at node 3)
	maximum = 0.104 (at node 7)
Injected flit rate average = 0.0990208
	minimum = 0.089 (at node 12)
	maximum = 0.104333 (at node 13)
Accepted flit rate average= 0.0990208
	minimum = 0.0886667 (at node 3)
	maximum = 0.104 (at node 7)
Injected packet length average = 1
Accepted packet length average = 1
Total in-flight flits = 33 (33 measured)
latency change    = 0.0113635
throughput change = 0.0030507
Draining all recorded packets ...
Draining remaining packets ...
Time taken is 6077 cycles
Class 0:
Packet latency average = 20.5343
	minimum = 7
	maximum = 89
Network latency average = 20.5305
	minimum = 7
	maximum = 89
Slowest packet = 986445
Flit latency average = 20.5305
	minimum = 7
	maximum = 89
Slowest flit = 986445
Fragmentation average = 0
	minimum = 0
	maximum = 0
Injected packet rate average = 0.10175
	minimum = 0.091 (at node 15)
	maximum = 0.115 (at node 0)
Accepted packet rate average = 0.0993125
	minimum = 0.09 (at node 7)
	maximum = 0.115 (at node 0)
Injected flit rate average = 0.10175
	minimum = 0.091 (at node 15)
	maximum = 0.115 (at node 0)
Accepted flit rate average= 0.0993125
	minimum = 0.09 (at node 7)
	maximum = 0.115 (at node 0)
Injected packet length average = 1
Accepted packet length average = 1
Total in-flight flits = 40 (0 measured)
latency change    = 1
throughput change = 1
Class 0:
Packet latency average = 20.6574
	minimum = 7
	maximum = 108
Network latency average = 20.6515
	minimum = 7
	maximum = 108
Slowest packet = 988231
Flit latency average = 20.6515
	minimum = 7
	maximum = 108
Slowest flit = 988231
Fragmentation average = 0
	minimum = 0
	maximum = 0
Injected packet rate average = 0.10175
	minimum = 0.0895 (at node 11)
	maximum = 0.1105 (at node 0)
Accepted packet rate average = 0.100969
	minimum = 0.0885 (at node 14)
	maximum = 0.11 (at node 0)
Injected flit rate average = 0.10175
	minimum = 0.0895 (at node 11)
	maximum = 0.1105 (at node 0)
Accepted flit rate average= 0.100969
	minimum = 0.0885 (at node 14)
	maximum = 0.11 (at node 0)
Injected packet length average = 1
Accepted packet length average = 1
Total in-flight flits = 25 (0 measured)
latency change    = 0.00595832
throughput change = 0.0164036
Class 0:
Packet latency average = 19.9541
	minimum = 7
	maximum = 56
Network latency average = 19.9541
	minimum = 7
	maximum = 56
Slowest packet = 989065
Flit latency average = 19.9541
	minimum = 7
	maximum = 56
Slowest flit = 989065
Fragmentation average = 0
	minimum = 0
	maximum = 0
Injected packet rate average = 0.0996875
	minimum = 0.084 (at node 14)
	maximum = 0.118 (at node 11)
Accepted packet rate average = 0.0995
	minimum = 0.085 (at node 11)
	maximum = 0.119 (at node 14)
Injected flit rate average = 0.0996875
	minimum = 0.084 (at node 14)
	maximum = 0.118 (at node 11)
Accepted flit rate average= 0.0995
	minimum = 0.085 (at node 11)
	maximum = 0.119 (at node 14)
Injected packet length average = 1
Accepted packet length average = 1
Total in-flight flits = 28 (0 measured)
latency change    = 0.0352426
throughput change = 0.0147613
Warmed up ...Time used is 3000 cycles
Class 0:
Packet latency average = 21.355
	minimum = 7
	maximum = 100
Network latency average = 21.3317
	minimum = 7
	maximum = 99
Slowest packet = 991624
Flit latency average = 21.4219
	minimum = 7
	maximum = 99
Slowest flit = 991624
Fragmentation average = 0
	minimum = 0
	maximum = 0
Injected packet rate average = 0.1035
	minimum = 0.09 (at node 2)
	maximum = 0.123 (at node 7)
Accepted packet rate average = 0.103688
	minimum = 0.092 (at node 8)
	maximum = 0.122 (at node 13)
Injected flit rate average = 0.1035
	minimum = 0.09 (at node 2)
	maximum = 0.123 (at node 7)
Accepted flit rate average= 0.103688
	minimum = 0.092 (at node 8)
	maximum = 0.122 (at node 13)
Injected packet length average = 1
Accepted packet length average = 1
Total in-flight flits = 25 (25 measured)
latency change    = 0.0655983
throughput change = 0.0403858
Class 0:
Packet latency average = 21.2928
	minimum = 7
	maximum = 100
Network latency average = 21.2513
	minimum = 7
	maximum = 99
Slowest packet = 991624
Flit latency average = 21.2991
	minimum = 7
	maximum = 99
Slowest flit = 991624
Fragmentation average = 0
	minimum = 0
	maximum = 0
Injected packet rate average = 0.0991563
	minimum = 0.0925 (at node 2)
	maximum = 0.1115 (at node 1)
Accepted packet rate average = 0.099375
	minimum = 0.093 (at node 5)
	maximum = 0.111 (at node 4)
Injected flit rate average = 0.0991563
	minimum = 0.0925 (at node 2)
	maximum = 0.1115 (at node 1)
Accepted flit rate average= 0.099375
	minimum = 0.093 (at node 5)
	maximum = 0.111 (at node 4)
Injected packet length average = 1
Accepted packet length average = 1
Total in-flight flits = 21 (21 measured)
latency change    = 0.00291962
throughput change = 0.0433962
Class 0:
Packet latency average = 21.1059
	minimum = 7
	maximum = 100
Network latency average = 21.0657
	minimum = 7
	maximum = 99
Slowest packet = 991624
Flit latency average = 21.0984
	minimum = 7
	maximum = 99
Slowest flit = 991624
Fragmentation average = 0
	minimum = 0
	maximum = 0
Injected packet rate average = 0.100167
	minimum = 0.093 (at node 5)
	maximum = 0.108333 (at node 14)
Accepted packet rate average = 0.100125
	minimum = 0.0933333 (at node 5)
	maximum = 0.108 (at node 11)
Injected flit rate average = 0.100167
	minimum = 0.093 (at node 5)
	maximum = 0.108333 (at node 14)
Accepted flit rate average= 0.100125
	minimum = 0.0933333 (at node 5)
	maximum = 0.108 (at node 11)
Injected packet length average = 1
Accepted packet length average = 1
Total in-flight flits = 30 (30 measured)
latency change    = 0.00885666
throughput change = 0.00749064
Class 0:
Packet latency average = 20.9359
	minimum = 7
	maximum = 100
Network latency average = 20.9058
	minimum = 7
	maximum = 99
Slowest packet = 991624
Flit latency average = 20.931
	minimum = 7
	maximum = 99
Slowest flit = 991624
Fragmentation average = 0
	minimum = 0
	maximum = 0
Injected packet rate average = 0.100031
	minimum = 0.095 (at node 10)
	maximum = 0.106 (at node 14)
Accepted packet rate average = 0.100094
	minimum = 0.09475 (at node 10)
	maximum = 0.1065 (at node 11)
Injected flit rate average = 0.100031
	minimum = 0.095 (at node 10)
	maximum = 0.106 (at node 14)
Accepted flit rate average= 0.100094
	minimum = 0.09475 (at node 10)
	maximum = 0.1065 (at node 11)
Injected packet length average = 1
Accepted packet length average = 1
Total in-flight flits = 24 (24 measured)
latency change    = 0.00812141
throughput change = 0.000312207
Draining all recorded packets ...
Draining remaining packets ...
Time taken is 7059 cycles
====== Overall Traffic Statistics ======
====== Traffic class 0 ======
Packet latency average = 20.5211 (100 samples)
	minimum = 7 (100 samples)
	maximum = 78.64 (100 samples)
Network latency average = 20.5091 (100 samples)
	minimum = 7 (100 samples)
	maximum = 78.33 (100 samples)
Flit latency average = 20.5442 (100 samples)
	minimum = 7 (100 samples)
	maximum = 78.61 (100 samples)
Fragmentation average = 0 (100 samples)
	minimum = 0 (100 samples)
	maximum = 0 (100 samples)
Injected packet rate average = 0.10025 (100 samples)
	minimum = 0.0907767 (100 samples)
	maximum = 0.109647 (100 samples)
Accepted packet rate average = 0.100237 (100 samples)
	minimum = 0.0907967 (100 samples)
	maximum = 0.109693 (100 samples)
Injected flit rate average = 0.10025 (100 samples)
	minimum = 0.0907767 (100 samples)
	maximum = 0.109647 (100 samples)
Accepted flit rate average = 0.100237 (100 samples)
	minimum = 0.0907967 (100 samples)
	maximum = 0.109693 (100 samples)
Injected packet size average = 1 (100 samples)
Accepted packet size average = 1 (100 samples)
Hops average = 3.50199 (100 samples)
Total run time 11.3946
