BEGIN Configuration File: /tmp/tmp807vsxph.cfg
topology = mesh;
k = 4;
n = 2;
routing_function = romm;
num_vcs = 4;
vc_buf_size = 4;
wait_for_tail_credit = 1;
vc_allocator = islip;
sw_allocator = islip;
alloc_iters = 1;
credit_delay = 2;
routing_delay = 1;
vc_alloc_delay = 1;
sw_alloc_delay = 1;
input_speedup = 2;
output_speedup = 1;
internal_speedup = 1.0;
traffic = hotspot;
packet_size = 1;
sim_type = latency;
injection_rate = 0.01;
warmup_periods = 3;
sample_period = 1000;
sim_count = 100;
seed = 3;

END Configuration File: /tmp/tmp807vsxph.cfg
Class 0:
Packet latency average = 19.5
	minimum = 7
	maximum = 39
Network latency average = 19.5
	minimum = 7
	maximum = 39
Slowest packet = 135
Flit latency average = 19.5
	minimum = 7
	maximum = 39
Slowest flit = 135
Fragmentation average = 0
	minimum = 0
	maximum = 0
Injected packet rate average = 0.0100625
	minimum = 0.006 (at node 10)
	maximum = 0.017 (at node 1)
Accepted packet rate average = 0.009625
	minimum = 0 (at node 0)
	maximum = 0.154 (at node 11)
Injected flit rate average = 0.0100625
	minimum = 0.006 (at node 10)
	maximum = 0.017 (at node 1)
Accepted flit rate average= 0.009625
	minimum = 0 (at node 0)
	maximum = 0.154 (at node 11)
Injected packet length average = 1
Accepted packet length average = 1
Total in-flight flits = 7 (0 measured)
latency change    = 1
throughput change = 1
Class 0:
Packet latency average = 19.2596
	minimum = 7
	maximum = 39
Network latency average = 19.2596
	minimum = 7
	maximum = 39
Slowest packet = 135
Flit latency average = 19.2596
	minimum = 7
	maximum = 39
Slowest flit = 135
Fragmentation average = 0
	minimum = 0
	maximum = 0
Injected packet rate average = 0.0089375
	minimum = 0.006 (at node 10)
	maximum = 0.014 (at node 11)
Accepted packet rate average = 0.00890625
	minimum = 0 (at node 0)
	maximum = 0.1425 (at node 11)
Injected flit rate average = 0.0089375
	minimum = 0.006 (at node 10)
	maximum = 0.014 (at node 11)
Accepted flit rate average= 0.00890625
	minimum = 0 (at node 0)
	maximum = 0.1425 (at node 11)
Injected packet length average = 1
Accepted packet length average = 1
Total in-flight flits = 1 (0 measured)
latency change    = 0.0124795
throughput change = 0.0807018
Class 0:
Packet latency average = 20.5211
	minimum = 7
	maximum = 32
Network latency average = 20.5211
	minimum = 7
	maximum = 32
Slowest packet = 291
Flit latency average = 20.5211
	minimum = 7
	maximum = 32
Slowest flit = 291
Fragmentation average = 0
	minimum = 0
	maximum = 0
Injected packet rate average = 0.009125
	minimum = 0.003 (at node 11)
	maximum = 0.016 (at node 12)
Accepted packet rate average = 0.008875
	minimum = 0 (at node 0)
	maximum = 0.142 (at node 11)
Injected flit rate average = 0.009125
	minimum = 0.003 (at node 11)
	maximum = 0.016 (at node 12)
Accepted flit rate average= 0.008875
	minimum = 0 (at node 0)
	maximum = 0.142 (at node 11)
Injected packet length average = 1
Accepted packet length average = 1
Total in-flight flits = 5 (0 measured)
latency change    = 0.0614721
throughput change = 0.00352113
Warmed up ...Time used is 3000 cycles
Class 0:
Packet latency average = 19.6184
	minimum = 7
	maximum = 34
Network latency average = 19.6184
	minimum = 7
	maximum = 34
Slowest packet = 552
Flit latency average = 19.758
	minimum = 7
	maximum = 34
Slowest flit = 552
Fragmentation average = 0
	minimum = 0
	maximum = 0
Injected packet rate average = 0.0098125
	minimum = 0.006 (at node 2)
	maximum = 0.014 (at node 8)
Accepted packet rate average = 0.0098125
	minimum = 0 (at node 0)
	maximum = 0.157 (at node 11)
Injected flit rate average = 0.0098125
	minimum = 0.006 (at node 2)
	maximum = 0.014 (at node 8)
Accepted flit rate average= 0.0098125
	minimum = 0 (at node 0)
	maximum = 0.157 (at node 11)
Injected packet length average = 1
Accepted packet length average = 1
Total in-flight flits = 5 (5 measured)
latency change    = 0.0460132
throughput change = 0.0955414
Class 0:
Packet latency average = 19.4689
	minimum = 7
	maximum = 34
Network latency average = 19.4689
	minimum = 7
	maximum = 34
Slowest packet = 552
Flit latency average = 19.5382
	minimum = 7
	maximum = 34
Slowest flit = 552
Fragmentation average = 0
	minimum = 0
	maximum = 0
Injected packet rate average = 0.0101563
	minimum = 0.008 (at node 2)
	maximum = 0.0125 (at node 1)
Accepted packet rate average = 0.0102188
	minimum = 0 (at node 0)
	maximum = 0.1635 (at node 11)
Injected flit rate average = 0.0101563
	minimum = 0.008 (at node 2)
	maximum = 0.0125 (at node 1)
Accepted flit rate average= 0.0102188
	minimum = 0 (at node 0)
	maximum = 0.1635 (at node 11)
Injected packet length average = 1
Accepted packet length average = 1
Total in-flight flits = 3 (3 measured)
latency change    = 0.00767771
throughput change = 0.0397554
Class 0:
Packet latency average = 19.3466
	minimum = 7
	maximum = 38
Network latency average = 19.3466
	minimum = 7
	maximum = 38
Slowest packet = 832
Flit latency average = 19.3925
	minimum = 7
	maximum = 38
Slowest flit = 832
Fragmentation average = 0
	minimum = 0
	maximum = 0
Injected packet rate average = 0.0105833
	minimum = 0.00666667 (at node 2)
	maximum = 0.013 (at node 10)
Accepted packet rate average = 0.0105625
	minimum = 0 (at node 0)
	maximum = 0.169 (at node 11)
Injected flit rate average = 0.0105833
	minimum = 0.00666667 (at node 2)
	maximum = 0.013 (at node 10)
Accepted flit rate average= 0.0105625
	minimum = 0 (at node 0)
	maximum = 0.169 (at node 11)
Injected packet length average = 1
Accepted packet length average = 1
Total in-flight flits = 6 (6 measured)
latency change    = 0.0063231
throughput change = 0.0325444
Class 0:
Packet latency average = 19.4164
	minimum = 7
	maximum = 38
Network latency average = 19.4164
	minimum = 7
	maximum = 38
Slowest packet = 832
Flit latency average = 19.451
	minimum = 7
	maximum = 38
Slowest flit = 832
Fragmentation average = 0
	minimum = 0
	maximum = 0
Injected packet rate average = 0.0103281
	minimum = 0.007 (at node 2)
	maximum = 0.0125 (at node 6)
Accepted packet rate average = 0.0103594
	minimum = 0 (at node 0)
	maximum = 0.16575 (at node 11)
Injected flit rate average = 0.0103281
	minimum = 0.007 (at node 2)
	maximum = 0.0125 (at node 6)
Accepted flit rate average= 0.0103594
	minimum = 0 (at node 0)
	maximum = 0.16575 (at node 11)
Injected packet length average = 1
Accepted packet length average = 1
Total in-flight flits = 3 (3 measured)
latency change    = 0.00359489
throughput change = 0.0196078
Draining all recorded packets ...
Draining remaining packets ...
Time taken is 7056 cycles
Class 0:
Packet latency average = 21.1173
	minimum = 7
	maximum = 38
Network latency average = 21.1173
	minimum = 7
	maximum = 38
Slowest packet = 1124
Flit latency average = 21.1173
	minimum = 7
	maximum = 38
Slowest flit = 1124
Fragmentation average = 0
	minimum = 0
	maximum = 0
Injected packet rate average = 0.0103125
	minimum = 0.005 (at node 4)
	maximum = 0.019 (at node 0)
Accepted packet rate average = 0.010125
	minimum = 0 (at node 0)
	maximum = 0.162 (at node 11)
Injected flit rate average = 0.0103125
	minimum = 0.005 (at node 4)
	maximum = 0.019 (at node 0)
Accepted flit rate average= 0.010125
	minimum = 0 (at node 0)
	maximum = 0.162 (at node 11)
Injected packet length average = 1
Accepted packet length average = 1
Total in-flight flits = 3 (0 measured)
latency change    = 1
throughput change = 1
Class 0:
Packet latency average = 20.5225
	minimum = 7
	maximum = 38
Network latency average = 20.5225
	minimum = 7
	maximum = 38
Slowest packet = 1124
Flit latency average = 20.5225
	minimum = 7
	maximum = 38
Slowest flit = 1124
Fragmentation average = 0
	minimum = 0
	maximum = 0
Injected packet rate average = 0.0105313
	minimum = 0.0055 (at node 14)
	maximum = 0.016 (at node 0)
Accepted packet rate average = 0.0104063
	minimum = 0 (at node 0)
	maximum = 0.1665 (at node 11)
Injected flit rate average = 0.0105313
	minimum = 0.0055 (at node 14)
	maximum = 0.016 (at node 0)
Accepted flit rate average= 0.0104063
	minimum = 0 (at node 0)
	maximum = 0.1665 (at node 11)
Injected packet length average = 1
Accepted packet length average = 1
Total in-flight flits = 4 (0 measured)
latency change    = 0.0289809
throughput change = 0.027027
Class 0:
Packet latency average = 19.9518
	minimum = 7
	maximum = 34
Network latency average = 19.9518
	minimum = 7
	maximum = 34
Slowest packet = 1447
Flit latency average = 19.9518
	minimum = 7
	maximum = 34
Slowest flit = 1447
Fragmentation average = 0
	minimum = 0
	maximum = 0
Injected packet rate average = 0.0103125
	minimum = 0.004 (at node 8)
	maximum = 0.013 (at node 0)
Accepted packet rate average = 0.010375
	minimum = 0 (at node 0)
	maximum = 0.166 (at node 11)
Injected flit rate average = 0.0103125
	minimum = 0.004 (at node 8)
	maximum = 0.013 (at node 0)
Accepted flit rate average= 0.010375
	minimum = 0 (at node 0)
	maximum = 0.166 (at node 11)
Injected packet length average = 1
Accepted packet length average = 1
Total in-flight flits = 3 (0 measured)
latency change    = 0.0286047
throughput change = 0.00301205
Warmed up ...Time used is 3000 cycles
Class 0:
Packet latency average = 20.2235
	minimum = 7
	maximum = 35
Network latency average = 20.2235
	minimum = 7
	maximum = 35
Slowest packet = 1650
Flit latency average = 20.2832
	minimum = 7
	maximum = 35
Slowest flit = 1650
Fragmentation average = 0
	minimum = 0
	maximum = 0
Injected packet rate average = 0.0108125
	minimum = 0.005 (at node 7)
	maximum = 0.016 (at node 8)
Accepted packet rate average = 0.0108125
	minimum = 0 (at node 0)
	maximum = 0.173 (at node 11)
Injected flit rate average = 0.0108125
	minimum = 0.005 (at node 7)
	maximum = 0.016 (at node 8)
Accepted flit rate average= 0.0108125
	minimum = 0 (at node 0)
	maximum = 0.173 (at node 11)
Injected packet length average = 1
Accepted packet length average = 1
Total in-flight flits = 3 (3 measured)
latency change    = 0.0134359
throughput change = 0.0404624
Class 0:
Packet latency average = 20.2778
	minimum = 7
	maximum = 38
Network latency average = 20.2778
	minimum = 7
	maximum = 38
Slowest packet = 1832
Flit latency average = 20.3107
	minimum = 7
	maximum = 38
Slowest flit = 1832
Fragmentation average = 0
	minimum = 0
	maximum = 0
Injected packet rate average = 0.0096875
	minimum = 0.0045 (at node 15)
	maximum = 0.0125 (at node 0)
Accepted packet rate average = 0.00965625
	minimum = 0 (at node 0)
	maximum = 0.1545 (at node 11)
Injected flit rate average = 0.0096875
	minimum = 0.0045 (at node 15)
	maximum = 0.0125 (at node 0)
Accepted flit rate average= 0.00965625
	minimum = 0 (at node 0)
	maximum = 0.1545 (at node 11)
Injected packet length average = 1
Accepted packet length average = 1
Total in-flight flits = 4 (4 measured)
latency change    = 0.00267526
throughput change = 0.119741
Class 0:
Packet latency average = 20.3547
	minimum = 7
	maximum = 38
Network latency average = 20.3547
	minimum = 7
	maximum = 38
Slowest packet = 1832
Flit latency average = 20.3758
	minimum = 7
	maximum = 38
Slowest flit = 1832
Fragmentation average = 0
	minimum = 0
	maximum = 0
Injected packet rate average = 0.0098125
	minimum = 0.00533333 (at node 15)
	maximum = 0.0123333 (at node 9)
Accepted packet rate average = 0.0098125
	minimum = 0 (at node 0)
	maximum = 0.157 (at node 11)
Injected flit rate average = 0.0098125
	minimum = 0.00533333 (at node 15)
	maximum = 0.0123333 (at node 9)
Accepted flit rate average= 0.0098125
	minimum = 0 (at node 0)
	maximum = 0.157 (at node 11)
Injected packet length average = 1
Accepted packet length average = 1
Total in-flight flits = 3 (3 measured)
latency change    = 0.00377913
throughput change = 0.0159236
Class 0:
Packet latency average = 20.142
	minimum = 7
	maximum = 38
Network latency average = 20.142
	minimum = 7
	maximum = 38
Slowest packet = 1832
Flit latency average = 20.1584
	minimum = 7
	maximum = 38
Slowest flit = 1832
Fragmentation average = 0
	minimum = 0
	maximum = 0
Injected packet rate average = 0.0100781
	minimum = 0.0065 (at node 15)
	maximum = 0.01275 (at node 9)
Accepted packet rate average = 0.0100625
	minimum = 0 (at node 0)
	maximum = 0.161 (at node 11)
Injected flit rate average = 0.0100781
	minimum = 0.0065 (at node 15)
	maximum = 0.01275 (at node 9)
Accepted flit rate average= 0.0100625
	minimum = 0 (at node 0)
	maximum = 0.161 (at node 11)
Injected packet length average = 1
Accepted packet length average = 1
Total in-flight flits = 4 (4 measured)
latency change    = 0.0105618
throughput change = 0.0248447
Class 0:
Packet latency average = 20.026
	minimum = 7
	maximum = 38
Network latency average = 20.026
	minimum = 7
	maximum = 38
Slowest packet = 1832
Flit latency average = 20.0395
	minimum = 7
	maximum = 38
Slowest flit = 1832
Fragmentation average = 0
	minimum = 0
	maximum = 0
Injected packet rate average = 0.0101125
	minimum = 0.0064 (at node 15)
	maximum = 0.0134 (at node 9)
Accepted packet rate average = 0.0101375
	minimum = 0 (at node 0)
	maximum = 0.1622 (at node 11)
Injected flit rate average = 0.0101125
	minimum = 0.0064 (at node 15)
	maximum = 0.0134 (at node 9)
Accepted flit rate average= 0.0101375
	minimum = 0 (at node 0)
	maximum = 0.1622 (at node 11)
Injected packet length average = 1
Accepted packet length average = 1
Total in-flight flits = 1 (1 measured)
latency change    = 0.00579125
throughput change = 0.00739827
Draining all recorded packets ...
Draining remaining packets ...
Time taken is 8007 cycles
Class 0:
Packet latency average = 19.9281
	minimum = 7
	maximum = 37
Network latency average = 19.9281
	minimum = 7
	maximum = 37
Slowest packet = 2450
Flit latency average = 19.9281
	minimum = 7
	maximum = 37
Slowest flit = 2450
Fragmentation average = 0
	minimum = 0
	maximum = 0
Injected packet rate average = 0.009875
	minimum = 0.006 (at node 8)
	maximum = 0.015 (at node 1)
Accepted packet rate average = 0.0095625
	minimum = 0 (at node 0)
	maximum = 0.153 (at node 11)
Injected flit rate average = 0.009875
	minimum = 0.006 (at node 8)
	maximum = 0.015 (at node 1)
Accepted flit rate average= 0.0095625
	minimum = 0 (at node 0)
	maximum = 0.153 (at node 11)
Injected packet length average = 1
Accepted packet length average = 1
Total in-flight flits = 5 (0 measured)
latency change    = 1
throughput change = 1
Class 0:
Packet latency average = 19.8006
	minimum = 7
	maximum = 46
Network latency average = 19.8006
	minimum = 7
	maximum = 46
Slowest packet = 2606
Flit latency average = 19.8006
	minimum = 7
	maximum = 46
Slowest flit = 2606
Fragmentation average = 0
	minimum = 0
	maximum = 0
Injected packet rate average = 0.0100625
	minimum = 0.0075 (at node 5)
	maximum = 0.0135 (at node 9)
Accepted packet rate average = 0.009875
	minimum = 0 (at node 0)
	maximum = 0.158 (at node 11)
Injected flit rate average = 0.0100625
	minimum = 0.0075 (at node 5)
	maximum = 0.0135 (at node 9)
Accepted flit rate average= 0.009875
	minimum = 0 (at node 0)
	maximum = 0.158 (at node 11)
Injected packet length average = 1
Accepted packet length average = 1
Total in-flight flits = 6 (0 measured)
latency change    = 0.00643776
throughput change = 0.0316456
Class 0:
Packet latency average = 18.2242
	minimum = 7
	maximum = 37
Network latency average = 18.2242
	minimum = 7
	maximum = 37
Slowest packet = 2848
Flit latency average = 18.2242
	minimum = 7
	maximum = 37
Slowest flit = 2848
Fragmentation average = 0
	minimum = 0
	maximum = 0
Injected packet rate average = 0.0100625
	minimum = 0.004 (at node 4)
	maximum = 0.016 (at node 11)
Accepted packet rate average = 0.0103125
	minimum = 0 (at node 0)
	maximum = 0.165 (at node 11)
Injected flit rate average = 0.0100625
	minimum = 0.004 (at node 4)
	maximum = 0.016 (at node 11)
Accepted flit rate average= 0.0103125
	minimum = 0 (at node 0)
	maximum = 0.165 (at node 11)
Injected packet length average = 1
Accepted packet length average = 1
Total in-flight flits = 2 (0 measured)
latency change    = 0.0864996
throughput change = 0.0424242
Warmed up ...Time used is 3000 cycles
Class 0:
Packet latency average = 19.4969
	minimum = 7
	maximum = 41
Network latency average = 19.4969
	minimum = 7
	maximum = 41
Slowest packet = 2909
Flit latency average = 19.6182
	minimum = 7
	maximum = 41
Slowest flit = 2909
Fragmentation average = 0
	minimum = 0
	maximum = 0
Injected packet rate average = 0.0104375
	minimum = 0.006 (at node 1)
	maximum = 0.015 (at node 4)
Accepted packet rate average = 0.0103125
	minimum = 0 (at node 0)
	maximum = 0.165 (at node 11)
Injected flit rate average = 0.0104375
	minimum = 0.006 (at node 1)
	maximum = 0.015 (at node 4)
Accepted flit rate average= 0.0103125
	minimum = 0 (at node 0)
	maximum = 0.165 (at node 11)
Injected packet length average = 1
Accepted packet length average = 1
Total in-flight flits = 4 (4 measured)
latency change    = 0.0652764
throughput change = 0
Class 0:
Packet latency average = 19.678
	minimum = 7
	maximum = 41
Network latency average = 19.678
	minimum = 7
	maximum = 41
Slowest packet = 2909
Flit latency average = 19.7385
	minimum = 7
	maximum = 41
Slowest flit = 2909
Fragmentation average = 0
	minimum = 0
	maximum = 0
Injected packet rate average = 0.01025
	minimum = 0.006 (at node 15)
	maximum = 0.015 (at node 5)
Accepted packet rate average = 0.0101563
	minimum = 0 (at node 0)
	maximum = 0.1625 (at node 11)
Injected flit rate average = 0.01025
	minimum = 0.006 (at node 15)
	maximum = 0.015 (at node 5)
Accepted flit rate average= 0.0101563
	minimum = 0 (at node 0)
	maximum = 0.1625 (at node 11)
Injected packet length average = 1
Accepted packet length average = 1
Total in-flight flits = 5 (5 measured)
latency change    = 0.00920245
throughput change = 0.0153846
Class 0:
Packet latency average = 20.0737
	minimum = 7
	maximum = 41
Network latency average = 20.0737
	minimum = 7
	maximum = 41
Slowest packet = 2909
Flit latency average = 20.1111
	minimum = 7
	maximum = 41
Slowest flit = 2909
Fragmentation average = 0
	minimum = 0
	maximum = 0
Injected packet rate average = 0.0105
	minimum = 0.00666667 (at node 15)
	maximum = 0.014 (at node 13)
Accepted packet rate average = 0.0105
	minimum = 0 (at node 0)
	maximum = 0.168 (at node 11)
Injected flit rate average = 0.0105
	minimum = 0.00666667 (at node 15)
	maximum = 0.014 (at node 13)
Accepted flit rate average= 0.0105
	minimum = 0 (at node 0)
	maximum = 0.168 (at node 11)
Injected packet length average = 1
Accepted packet length average = 1
Total in-flight flits = 2 (2 measured)
latency change    = 0.0197117
throughput change = 0.0327381
Class 0:
Packet latency average = 19.9736
	minimum = 7
	maximum = 41
Network latency average = 19.9736
	minimum = 7
	maximum = 41
Slowest packet = 2909
Flit latency average = 20.0015
	minimum = 7
	maximum = 41
Slowest flit = 2909
Fragmentation average = 0
	minimum = 0
	maximum = 0
Injected packet rate average = 0.01075
	minimum = 0.00775 (at node 15)
	maximum = 0.01275 (at node 13)
Accepted packet rate average = 0.0106875
	minimum = 0 (at node 0)
	maximum = 0.171 (at node 11)
Injected flit rate average = 0.01075
	minimum = 0.00775 (at node 15)
	maximum = 0.01275 (at node 13)
Accepted flit rate average= 0.0106875
	minimum = 0 (at node 0)
	maximum = 0.171 (at node 11)
Injected packet length average = 1
Accepted packet length average = 1
Total in-flight flits = 6 (6 measured)
latency change    = 0.00501152
throughput change = 0.0175439
Draining all recorded packets ...
Draining remaining packets ...
Time taken is 7024 cycles
Class 0:
Packet latency average = 19.9607
	minimum = 7
	maximum = 37
Network latency average = 19.9607
	minimum = 7
	maximum = 37
Slowest packet = 3622
Flit latency average = 19.9607
	minimum = 7
	maximum = 37
Slowest flit = 3622
Fragmentation average = 0
	minimum = 0
	maximum = 0
Injected packet rate average = 0.0113125
	minimum = 0.007 (at node 6)
	maximum = 0.016 (at node 3)
Accepted packet rate average = 0.011125
	minimum = 0 (at node 0)
	maximum = 0.178 (at node 11)
Injected flit rate average = 0.0113125
	minimum = 0.007 (at node 6)
	maximum = 0.016 (at node 3)
Accepted flit rate average= 0.011125
	minimum = 0 (at node 0)
	maximum = 0.178 (at node 11)
Injected packet length average = 1
Accepted packet length average = 1
Total in-flight flits = 3 (0 measured)
latency change    = 1
throughput change = 1
Class 0:
Packet latency average = 20.0653
	minimum = 7
	maximum = 37
Network latency average = 20.0653
	minimum = 7
	maximum = 37
Slowest packet = 3622
Flit latency average = 20.0653
	minimum = 7
	maximum = 37
Slowest flit = 3622
Fragmentation average = 0
	minimum = 0
	maximum = 0
Injected packet rate average = 0.0110312
	minimum = 0.0065 (at node 12)
	maximum = 0.016 (at node 2)
Accepted packet rate average = 0.011
	minimum = 0 (at node 0)
	maximum = 0.176 (at node 11)
Injected flit rate average = 0.0110312
	minimum = 0.0065 (at node 12)
	maximum = 0.016 (at node 2)
Accepted flit rate average= 0.011
	minimum = 0 (at node 0)
	maximum = 0.176 (at node 11)
Injected packet length average = 1
Accepted packet length average = 1
Total in-flight flits = 1 (0 measured)
latency change    = 0.0052163
throughput change = 0.0113636
Class 0:
Packet latency average = 19.9255
	minimum = 7
	maximum = 33
Network latency average = 19.9255
	minimum = 7
	maximum = 33
Slowest packet = 3979
Flit latency average = 19.9255
	minimum = 7
	maximum = 33
Slowest flit = 3979
Fragmentation average = 0
	minimum = 0
	maximum = 0
Injected packet rate average = 0.01
	minimum = 0.006 (at node 5)
	maximum = 0.014 (at node 9)
Accepted packet rate average = 0.0100625
	minimum = 0 (at node 0)
	maximum = 0.161 (at node 11)
Injected flit rate average = 0.01
	minimum = 0.006 (at node 5)
	maximum = 0.014 (at node 9)
Accepted flit rate average= 0.0100625
	minimum = 0 (at node 0)
	maximum = 0.161 (at node 11)
Injected packet length average = 1
Accepted packet length average = 1
Total in-flight flits = 0 (0 measured)
latency change    = 0.00701991
throughput change = 0.0931677
Warmed up ...Time used is 3000 cycles
Class 0:
Packet latency average = 20.2699
	minimum = 7
	maximum = 34
Network latency average = 20.2699
	minimum = 7
	maximum = 34
Slowest packet = 4206
Flit latency average = 20.2699
	minimum = 7
	maximum = 34
Slowest flit = 4206
Fragmentation average = 0
	minimum = 0
	maximum = 0
Injected packet rate average = 0.0103125
	minimum = 0.006 (at node 15)
	maximum = 0.016 (at node 9)
Accepted packet rate average = 0.0101875
	minimum = 0 (at node 0)
	maximum = 0.163 (at node 11)
Injected flit rate average = 0.0103125
	minimum = 0.006 (at node 15)
	maximum = 0.016 (at node 9)
Accepted flit rate average= 0.0101875
	minimum = 0 (at node 0)
	maximum = 0.163 (at node 11)
Injected packet length average = 1
Accepted packet length average = 1
Total in-flight flits = 2 (2 measured)
latency change    = 0.0169943
throughput change = 0.0122699
Class 0:
Packet latency average = 19.9704
	minimum = 7
	maximum = 40
Network latency average = 19.9704
	minimum = 7
	maximum = 40
Slowest packet = 4369
Flit latency average = 19.9704
	minimum = 7
	maximum = 40
Slowest flit = 4369
Fragmentation average = 0
	minimum = 0
	maximum = 0
Injected packet rate average = 0.0105938
	minimum = 0.0055 (at node 1)
	maximum = 0.0155 (at node 8)
Accepted packet rate average = 0.0105625
	minimum = 0 (at node 0)
	maximum = 0.169 (at node 11)
Injected flit rate average = 0.0105938
	minimum = 0.0055 (at node 1)
	maximum = 0.0155 (at node 8)
Accepted flit rate average= 0.0105625
	minimum = 0 (at node 0)
	maximum = 0.169 (at node 11)
Injected packet length average = 1
Accepted packet length average = 1
Total in-flight flits = 1 (1 measured)
latency change    = 0.0149984
throughput change = 0.035503
Class 0:
Packet latency average = 19.7617
	minimum = 7
	maximum = 40
Network latency average = 19.7617
	minimum = 7
	maximum = 40
Slowest packet = 4369
Flit latency average = 19.7617
	minimum = 7
	maximum = 40
Slowest flit = 4369
Fragmentation average = 0
	minimum = 0
	maximum = 0
Injected packet rate average = 0.0103542
	minimum = 0.007 (at node 1)
	maximum = 0.0133333 (at node 9)
Accepted packet rate average = 0.0102292
	minimum = 0 (at node 0)
	maximum = 0.163667 (at node 11)
Injected flit rate average = 0.0103542
	minimum = 0.007 (at node 1)
	maximum = 0.0133333 (at node 9)
Accepted flit rate average= 0.0102292
	minimum = 0 (at node 0)
	maximum = 0.163667 (at node 11)
Injected packet length average = 1
Accepted packet length average = 1
Total in-flight flits = 6 (6 measured)
latency change    = 0.010561
throughput change = 0.0325866
Draining all recorded packets ...
Draining remaining packets ...
Time taken is 6033 cycles
Class 0:
Packet latency average = 20.0956
	minimum = 7
	maximum = 36
Network latency average = 20.0956
	minimum = 7
	maximum = 36
Slowest packet = 4635
Flit latency average = 20.0956
	minimum = 7
	maximum = 36
Slowest flit = 4635
Fragmentation average = 0
	minimum = 0
	maximum = 0
Injected packet rate average = 0.0085
	minimum = 0.003 (at node 3)
	maximum = 0.011 (at node 0)
Accepted packet rate average = 0.0085
	minimum = 0 (at node 0)
	maximum = 0.136 (at node 11)
Injected flit rate average = 0.0085
	minimum = 0.003 (at node 3)
	maximum = 0.011 (at node 0)
Accepted flit rate average= 0.0085
	minimum = 0 (at node 0)
	maximum = 0.136 (at node 11)
Injected packet length average = 1
Accepted packet length average = 1
Total in-flight flits = 0 (0 measured)
latency change    = 1
throughput change = 1
Class 0:
Packet latency average = 20.1139
	minimum = 7
	maximum = 41
Network latency average = 20.1139
	minimum = 7
	maximum = 41
Slowest packet = 4756
Flit latency average = 20.1139
	minimum = 7
	maximum = 41
Slowest flit = 4756
Fragmentation average = 0
	minimum = 0
	maximum = 0
Injected packet rate average = 0.0088125
	minimum = 0.005 (at node 3)
	maximum = 0.0125 (at node 15)
Accepted packet rate average = 0.00878125
	minimum = 0 (at node 0)
	maximum = 0.1405 (at node 11)
Injected flit rate average = 0.0088125
	minimum = 0.005 (at node 3)
	maximum = 0.0125 (at node 15)
Accepted flit rate average= 0.00878125
	minimum = 0 (at node 0)
	maximum = 0.1405 (at node 11)
Injected packet length average = 1
Accepted packet length average = 1
Total in-flight flits = 1 (0 measured)
latency change    = 0.000909361
throughput change = 0.0320285
Class 0:
Packet latency average = 19.9939
	minimum = 7
	maximum = 35
Network latency average = 19.9939
	minimum = 7
	maximum = 35
Slowest packet = 4902
Flit latency average = 19.9939
	minimum = 7
	maximum = 35
Slowest flit = 4902
Fragmentation average = 0
	minimum = 0
	maximum = 0
Injected packet rate average = 0.0104375
	minimum = 0.007 (at node 11)
	maximum = 0.015 (at node 1)
Accepted packet rate average = 0.0103125
	minimum = 0 (at node 0)
	maximum = 0.165 (at node 11)
Injected flit rate average = 0.0104375
	minimum = 0.007 (at node 11)
	maximum = 0.015 (at node 1)
Accepted flit rate average= 0.0103125
	minimum = 0 (at node 0)
	maximum = 0.165 (at node 11)
Injected packet length average = 1
Accepted packet length average = 1
Total in-flight flits = 3 (0 measured)
latency change    = 0.0059988
throughput change = 0.148485
Warmed up ...Time used is 3000 cycles
Class 0:
Packet latency average = 19.9211
	minimum = 7
	maximum = 32
Network latency average = 19.9211
	minimum = 7
	maximum = 32
Slowest packet = 5049
Flit latency average = 19.9355
	minimum = 7
	maximum = 32
Slowest flit = 5049
Fragmentation average = 0
	minimum = 0
	maximum = 0
Injected packet rate average = 0.0096875
	minimum = 0.005 (at node 9)
	maximum = 0.013 (at node 8)
Accepted packet rate average = 0.0096875
	minimum = 0 (at node 0)
	maximum = 0.155 (at node 11)
Injected flit rate average = 0.0096875
	minimum = 0.005 (at node 9)
	maximum = 0.013 (at node 8)
Accepted flit rate average= 0.0096875
	minimum = 0 (at node 0)
	maximum = 0.155 (at node 11)
Injected packet length average = 1
Accepted packet length average = 1
Total in-flight flits = 3 (3 measured)
latency change    = 0.00365878
throughput change = 0.0645161
Class 0:
Packet latency average = 19.8528
	minimum = 7
	maximum = 38
Network latency average = 19.8528
	minimum = 7
	maximum = 38
Slowest packet = 5246
Flit latency average = 19.8609
	minimum = 7
	maximum = 38
Slowest flit = 5246
Fragmentation average = 0
	minimum = 0
	maximum = 0
Injected packet rate average = 0.0094375
	minimum = 0.006 (at node 9)
	maximum = 0.013 (at node 3)
Accepted packet rate average = 0.0094375
	minimum = 0 (at node 0)
	maximum = 0.151 (at node 11)
Injected flit rate average = 0.0094375
	minimum = 0.006 (at node 9)
	maximum = 0.013 (at node 3)
Accepted flit rate average= 0.0094375
	minimum = 0 (at node 0)
	maximum = 0.151 (at node 11)
Injected packet length average = 1
Accepted packet length average = 1
Total in-flight flits = 3 (3 measured)
latency change    = 0.00343577
throughput change = 0.0264901
Class 0:
Packet latency average = 20.0269
	minimum = 7
	maximum = 38
Network latency average = 20.0269
	minimum = 7
	maximum = 38
Slowest packet = 5246
Flit latency average = 20.0308
	minimum = 7
	maximum = 38
Slowest flit = 5246
Fragmentation average = 0
	minimum = 0
	maximum = 0
Injected packet rate average = 0.0101667
	minimum = 0.007 (at node 4)
	maximum = 0.0133333 (at node 13)
Accepted packet rate average = 0.0101458
	minimum = 0 (at node 0)
	maximum = 0.162333 (at node 11)
Injected flit rate average = 0.0101667
	minimum = 0.007 (at node 4)
	maximum = 0.0133333 (at node 13)
Accepted flit rate average= 0.0101458
	minimum = 0 (at node 0)
	maximum = 0.162333 (at node 11)
Injected packet length average = 1
Accepted packet length average = 1
Total in-flight flits = 4 (4 measured)
latency change    = 0.00868917
throughput change = 0.0698152
Class 0:
Packet latency average = 20.1151
	minimum = 7
	maximum = 38
Network latency average = 20.1151
	minimum = 7
	maximum = 38
Slowest packet = 5246
Flit latency average = 20.1176
	minimum = 7
	maximum = 38
Slowest flit = 5246
Fragmentation average = 0
	minimum = 0
	maximum = 0
Injected packet rate average = 0.0100469
	minimum = 0.00825 (at node 9)
	maximum = 0.013 (at node 13)
Accepted packet rate average = 0.0100938
	minimum = 0 (at node 0)
	maximum = 0.1615 (at node 11)
Injected flit rate average = 0.0100469
	minimum = 0.00825 (at node 9)
	maximum = 0.013 (at node 13)
Accepted flit rate average= 0.0100938
	minimum = 0 (at node 0)
	maximum = 0.1615 (at node 11)
Injected packet length average = 1
Accepted packet length average = 1
Total in-flight flits = 0 (0 measured)
latency change    = 0.00438606
throughput change = 0.00515996
Class 0:
Packet latency average = 20.079
	minimum = 7
	maximum = 38
Network latency average = 20.079
	minimum = 7
	maximum = 38
Slowest packet = 5246
Flit latency average = 20.0813
	minimum = 7
	maximum = 38
Slowest flit = 5246
Fragmentation average = 0
	minimum = 0
	maximum = 0
Injected packet rate average = 0.010025
	minimum = 0.0086 (at node 9)
	maximum = 0.0122 (at node 13)
Accepted packet rate average = 0.01
	minimum = 0 (at node 0)
	maximum = 0.16 (at node 11)
Injected flit rate average = 0.010025
	minimum = 0.0086 (at node 9)
	maximum = 0.0122 (at node 13)
Accepted flit rate average= 0.01
	minimum = 0 (at node 0)
	maximum = 0.16 (at node 11)
Injected packet length average = 1
Accepted packet length average = 1
Total in-flight flits = 5 (5 measured)
latency change    = 0.00179486
throughput change = 0.009375
Class 0:
Packet latency average = 20.0305
	minimum = 7
	maximum = 38
Network latency average = 20.0305
	minimum = 7
	maximum = 38
Slowest packet = 5246
Flit latency average = 20.0325
	minimum = 7
	maximum = 38
Slowest flit = 5246
Fragmentation average = 0
	minimum = 0
	maximum = 0
Injected packet rate average = 0.00995833
	minimum = 0.00816667 (at node 10)
	maximum = 0.0118333 (at node 13)
Accepted packet rate average = 0.00994792
	minimum = 0 (at node 0)
	maximum = 0.159167 (at node 11)
Injected flit rate average = 0.00995833
	minimum = 0.00816667 (at node 10)
	maximum = 0.0118333 (at node 13)
Accepted flit rate average= 0.00994792
	minimum = 0 (at node 0)
	maximum = 0.159167 (at node 11)
Injected packet length average = 1
Accepted packet length average = 1
Total in-flight flits = 4 (4 measured)
latency change    = 0.00242552
throughput change = 0.0052356
Draining all recorded packets ...
Draining remaining packets ...
Time taken is 9037 cycles
Class 0:
Packet latency average = 19.8011
	minimum = 7
	maximum = 37
Network latency average = 19.8011
	minimum = 7
	maximum = 37
Slowest packet = 6091
Flit latency average = 19.8011
	minimum = 7
	maximum = 37
Slowest flit = 6091
Fragmentation average = 0
	minimum = 0
	maximum = 0
Injected packet rate average = 0.01175
	minimum = 0.007 (at node 4)
	maximum = 0.017 (at node 15)
Accepted packet rate average = 0.011625
	minimum = 0 (at node 0)
	maximum = 0.186 (at node 11)
Injected flit rate average = 0.01175
	minimum = 0.007 (at node 4)
	maximum = 0.017 (at node 15)
Accepted flit rate average= 0.011625
	minimum = 0 (at node 0)
	maximum = 0.186 (at node 11)
Injected packet length average = 1
Accepted packet length average = 1
Total in-flight flits = 2 (0 measured)
latency change    = 1
throughput change = 1
Class 0:
Packet latency average = 20.2353
	minimum = 7
	maximum = 37
Network latency average = 20.2353
	minimum = 7
	maximum = 37
Slowest packet = 6091
Flit latency average = 20.2353
	minimum = 7
	maximum = 37
Slowest flit = 6091
Fragmentation average = 0
	minimum = 0
	maximum = 0
Injected packet rate average = 0.0113125
	minimum = 0.0075 (at node 2)
	maximum = 0.017 (at node 12)
Accepted packet rate average = 0.0111562
	minimum = 0 (at node 0)
	maximum = 0.1785 (at node 11)
Injected flit rate average = 0.0113125
	minimum = 0.0075 (at node 2)
	maximum = 0.017 (at node 12)
Accepted flit rate average= 0.0111562
	minimum = 0 (at node 0)
	maximum = 0.1785 (at node 11)
Injected packet length average = 1
Accepted packet length average = 1
Total in-flight flits = 5 (0 measured)
latency change    = 0.0214585
throughput change = 0.0420168
Class 0:
Packet latency average = 19.8974
	minimum = 7
	maximum = 37
Network latency average = 19.8974
	minimum = 7
	maximum = 37
Slowest packet = 6484
Flit latency average = 19.8974
	minimum = 7
	maximum = 37
Slowest flit = 6484
Fragmentation average = 0
	minimum = 0
	maximum = 0
Injected packet rate average = 0.0095
	minimum = 0.006 (at node 0)
	maximum = 0.016 (at node 3)
Accepted packet rate average = 0.00975
	minimum = 0 (at node 0)
	maximum = 0.156 (at node 11)
Injected flit rate average = 0.0095
	minimum = 0.006 (at node 0)
	maximum = 0.016 (at node 3)
Accepted flit rate average= 0.00975
	minimum = 0 (at node 0)
	maximum = 0.156 (at node 11)
Injected packet length average = 1
Accepted packet length average = 1
Total in-flight flits = 1 (0 measured)
latency change    = 0.01698
throughput change = 0.144231
Warmed up ...Time used is 3000 cycles
Class 0:
Packet latency average = 19.2908
	minimum = 7
	maximum = 34
Network latency average = 19.2908
	minimum = 7
	maximum = 34
Slowest packet = 6568
Flit latency average = 19.2394
	minimum = 7
	maximum = 34
Slowest flit = 6568
Fragmentation average = 0
	minimum = 0
	maximum = 0
Injected packet rate average = 0.009
	minimum = 0.004 (at node 7)
	maximum = 0.014 (at node 13)
Accepted packet rate average = 0.008875
	minimum = 0 (at node 0)
	maximum = 0.142 (at node 11)
Injected flit rate average = 0.009
	minimum = 0.004 (at node 7)
	maximum = 0.014 (at node 13)
Accepted flit rate average= 0.008875
	minimum = 0 (at node 0)
	maximum = 0.142 (at node 11)
Injected packet length average = 1
Accepted packet length average = 1
Total in-flight flits = 3 (3 measured)
latency change    = 0.031448
throughput change = 0.0985915
Class 0:
Packet latency average = 19.5457
	minimum = 7
	maximum = 39
Network latency average = 19.5457
	minimum = 7
	maximum = 39
Slowest packet = 6767
Flit latency average = 19.522
	minimum = 7
	maximum = 39
Slowest flit = 6767
Fragmentation average = 0
	minimum = 0
	maximum = 0
Injected packet rate average = 0.0100625
	minimum = 0.006 (at node 7)
	maximum = 0.013 (at node 15)
Accepted packet rate average = 0.0099375
	minimum = 0 (at node 0)
	maximum = 0.159 (at node 11)
Injected flit rate average = 0.0100625
	minimum = 0.006 (at node 7)
	maximum = 0.013 (at node 15)
Accepted flit rate average= 0.0099375
	minimum = 0 (at node 0)
	maximum = 0.159 (at node 11)
Injected packet length average = 1
Accepted packet length average = 1
Total in-flight flits = 5 (5 measured)
latency change    = 0.0130443
throughput change = 0.106918
Class 0:
Packet latency average = 19.6409
	minimum = 7
	maximum = 39
Network latency average = 19.6409
	minimum = 7
	maximum = 39
Slowest packet = 6767
Flit latency average = 19.625
	minimum = 7
	maximum = 39
Slowest flit = 6767
Fragmentation average = 0
	minimum = 0
	maximum = 0
Injected packet rate average = 0.0100833
	minimum = 0.007 (at node 7)
	maximum = 0.0126667 (at node 13)
Accepted packet rate average = 0.01
	minimum = 0 (at node 0)
	maximum = 0.16 (at node 11)
Injected flit rate average = 0.0100833
	minimum = 0.007 (at node 7)
	maximum = 0.0126667 (at node 13)
Accepted flit rate average= 0.01
	minimum = 0 (at node 0)
	maximum = 0.16 (at node 11)
Injected packet length average = 1
Accepted packet length average = 1
Total in-flight flits = 5 (5 measured)
latency change    = 0.00484587
throughput change = 0.00625
Class 0:
Packet latency average = 19.5023
	minimum = 7
	maximum = 42
Network latency average = 19.5023
	minimum = 7
	maximum = 42
Slowest packet = 7109
Flit latency average = 19.4908
	minimum = 7
	maximum = 42
Slowest flit = 7109
Fragmentation average = 0
	minimum = 0
	maximum = 0
Injected packet rate average = 0.0101875
	minimum = 0.00825 (at node 9)
	maximum = 0.01325 (at node 13)
Accepted packet rate average = 0.0101875
	minimum = 0 (at node 0)
	maximum = 0.163 (at node 11)
Injected flit rate average = 0.0101875
	minimum = 0.00825 (at node 9)
	maximum = 0.01325 (at node 13)
Accepted flit rate average= 0.0101875
	minimum = 0 (at node 0)
	maximum = 0.163 (at node 11)
Injected packet length average = 1
Accepted packet length average = 1
Total in-flight flits = 1 (1 measured)
latency change    = 0.00710759
throughput change = 0.0184049
Class 0:
Packet latency average = 19.5148
	minimum = 7
	maximum = 42
Network latency average = 19.5148
	minimum = 7
	maximum = 42
Slowest packet = 7109
Flit latency average = 19.5055
	minimum = 7
	maximum = 42
Slowest flit = 7109
Fragmentation average = 0
	minimum = 0
	maximum = 0
Injected packet rate average = 0.0101375
	minimum = 0.0082 (at node 12)
	maximum = 0.0134 (at node 15)
Accepted packet rate average = 0.0101375
	minimum = 0 (at node 0)
	maximum = 0.1622 (at node 11)
Injected flit rate average = 0.0101375
	minimum = 0.0082 (at node 12)
	maximum = 0.0134 (at node 15)
Accepted flit rate average= 0.0101375
	minimum = 0 (at node 0)
	maximum = 0.1622 (at node 11)
Injected packet length average = 1
Accepted packet length average = 1
Total in-flight flits = 1 (1 measured)
latency change    = 0.000641086
throughput change = 0.00493218
Draining all recorded packets ...
Draining remaining packets ...
Time taken is 8031 cycles
Class 0:
Packet latency average = 20.8014
	minimum = 7
	maximum = 33
Network latency average = 20.8014
	minimum = 7
	maximum = 33
Slowest packet = 7455
Flit latency average = 20.8014
	minimum = 7
	maximum = 33
Slowest flit = 7455
Fragmentation average = 0
	minimum = 0
	maximum = 0
Injected packet rate average = 0.00925
	minimum = 0.005 (at node 3)
	maximum = 0.013 (at node 0)
Accepted packet rate average = 0.009125
	minimum = 0 (at node 0)
	maximum = 0.146 (at node 11)
Injected flit rate average = 0.00925
	minimum = 0.005 (at node 3)
	maximum = 0.013 (at node 0)
Accepted flit rate average= 0.009125
	minimum = 0 (at node 0)
	maximum = 0.146 (at node 11)
Injected packet length average = 1
Accepted packet length average = 1
Total in-flight flits = 2 (0 measured)
latency change    = 1
throughput change = 1
Class 0:
Packet latency average = 20.6755
	minimum = 7
	maximum = 33
Network latency average = 20.6755
	minimum = 7
	maximum = 33
Slowest packet = 7455
Flit latency average = 20.6755
	minimum = 7
	maximum = 33
Slowest flit = 7455
Fragmentation average = 0
	minimum = 0
	maximum = 0
Injected packet rate average = 0.0095625
	minimum = 0.005 (at node 11)
	maximum = 0.012 (at node 9)
Accepted packet rate average = 0.0094375
	minimum = 0 (at node 0)
	maximum = 0.151 (at node 11)
Injected flit rate average = 0.0095625
	minimum = 0.005 (at node 11)
	maximum = 0.012 (at node 9)
Accepted flit rate average= 0.0094375
	minimum = 0 (at node 0)
	maximum = 0.151 (at node 11)
Injected packet length average = 1
Accepted packet length average = 1
Total in-flight flits = 4 (0 measured)
latency change    = 0.00608804
throughput change = 0.0331126
Class 0:
Packet latency average = 19.4278
	minimum = 7
	maximum = 34
Network latency average = 19.4278
	minimum = 7
	maximum = 34
Slowest packet = 7691
Flit latency average = 19.4278
	minimum = 7
	maximum = 34
Slowest flit = 7691
Fragmentation average = 0
	minimum = 0
	maximum = 0
Injected packet rate average = 0.011375
	minimum = 0.004 (at node 4)
	maximum = 0.017 (at node 7)
Accepted packet rate average = 0.01125
	minimum = 0 (at node 0)
	maximum = 0.18 (at node 11)
Injected flit rate average = 0.011375
	minimum = 0.004 (at node 4)
	maximum = 0.017 (at node 7)
Accepted flit rate average= 0.01125
	minimum = 0 (at node 0)
	maximum = 0.18 (at node 11)
Injected packet length average = 1
Accepted packet length average = 1
Total in-flight flits = 6 (0 measured)
latency change    = 0.0642234
throughput change = 0.161111
Warmed up ...Time used is 3000 cycles
Class 0:
Packet latency average = 20.8938
	minimum = 7
	maximum = 38
Network latency average = 20.8938
	minimum = 7
	maximum = 38
Slowest packet = 7918
Flit latency average = 20.7831
	minimum = 7
	maximum = 38
Slowest flit = 7918
Fragmentation average = 0
	minimum = 0
	maximum = 0
Injected packet rate average = 0.01025
	minimum = 0.006 (at node 10)
	maximum = 0.016 (at node 5)
Accepted packet rate average = 0.010375
	minimum = 0 (at node 0)
	maximum = 0.166 (at node 11)
Injected flit rate average = 0.01025
	minimum = 0.006 (at node 10)
	maximum = 0.016 (at node 5)
Accepted flit rate average= 0.010375
	minimum = 0 (at node 0)
	maximum = 0.166 (at node 11)
Injected packet length average = 1
Accepted packet length average = 1
Total in-flight flits = 4 (4 measured)
latency change    = 0.0701632
throughput change = 0.0843373
Class 0:
Packet latency average = 20.6518
	minimum = 7
	maximum = 38
Network latency average = 20.6518
	minimum = 7
	maximum = 38
Slowest packet = 7918
Flit latency average = 20.5987
	minimum = 7
	maximum = 38
Slowest flit = 7918
Fragmentation average = 0
	minimum = 0
	maximum = 0
Injected packet rate average = 0.009875
	minimum = 0.007 (at node 10)
	maximum = 0.0135 (at node 1)
Accepted packet rate average = 0.00996875
	minimum = 0 (at node 0)
	maximum = 0.1595 (at node 11)
Injected flit rate average = 0.009875
	minimum = 0.007 (at node 10)
	maximum = 0.0135 (at node 1)
Accepted flit rate average= 0.00996875
	minimum = 0 (at node 0)
	maximum = 0.1595 (at node 11)
Injected packet length average = 1
Accepted packet length average = 1
Total in-flight flits = 3 (3 measured)
latency change    = 0.0117178
throughput change = 0.0407524
Class 0:
Packet latency average = 20.1663
	minimum = 7
	maximum = 38
Network latency average = 20.1663
	minimum = 7
	maximum = 38
Slowest packet = 7918
Flit latency average = 20.1379
	minimum = 7
	maximum = 38
Slowest flit = 7918
Fragmentation average = 0
	minimum = 0
	maximum = 0
Injected packet rate average = 0.0101875
	minimum = 0.00766667 (at node 10)
	maximum = 0.013 (at node 5)
Accepted packet rate average = 0.0102708
	minimum = 0 (at node 0)
	maximum = 0.164333 (at node 11)
Injected flit rate average = 0.0101875
	minimum = 0.00766667 (at node 10)
	maximum = 0.013 (at node 5)
Accepted flit rate average= 0.0102708
	minimum = 0 (at node 0)
	maximum = 0.164333 (at node 11)
Injected packet length average = 1
Accepted packet length average = 1
Total in-flight flits = 2 (2 measured)
latency change    = 0.0240715
throughput change = 0.0294118
Class 0:
Packet latency average = 20.2051
	minimum = 7
	maximum = 50
Network latency average = 20.2051
	minimum = 7
	maximum = 50
Slowest packet = 8420
Flit latency average = 20.1839
	minimum = 7
	maximum = 50
Slowest flit = 8420
Fragmentation average = 0
	minimum = 0
	maximum = 0
Injected packet rate average = 0.0104375
	minimum = 0.0085 (at node 8)
	maximum = 0.01325 (at node 5)
Accepted packet rate average = 0.0104531
	minimum = 0 (at node 0)
	maximum = 0.16725 (at node 11)
Injected flit rate average = 0.0104375
	minimum = 0.0085 (at node 8)
	maximum = 0.01325 (at node 5)
Accepted flit rate average= 0.0104531
	minimum = 0 (at node 0)
	maximum = 0.16725 (at node 11)
Injected packet length average = 1
Accepted packet length average = 1
Total in-flight flits = 5 (5 measured)
latency change    = 0.00192049
throughput change = 0.017439
Draining all recorded packets ...
Draining remaining packets ...
Time taken is 7050 cycles
Class 0:
Packet latency average = 20.441
	minimum = 7
	maximum = 42
Network latency average = 20.441
	minimum = 7
	maximum = 42
Slowest packet = 8560
Flit latency average = 20.441
	minimum = 7
	maximum = 42
Slowest flit = 8560
Fragmentation average = 0
	minimum = 0
	maximum = 0
Injected packet rate average = 0.010125
	minimum = 0.005 (at node 4)
	maximum = 0.017 (at node 0)
Accepted packet rate average = 0.0100625
	minimum = 0 (at node 0)
	maximum = 0.161 (at node 11)
Injected flit rate average = 0.010125
	minimum = 0.005 (at node 4)
	maximum = 0.017 (at node 0)
Accepted flit rate average= 0.0100625
	minimum = 0 (at node 0)
	maximum = 0.161 (at node 11)
Injected packet length average = 1
Accepted packet length average = 1
Total in-flight flits = 1 (0 measured)
latency change    = 1
throughput change = 1
Class 0:
Packet latency average = 20.0701
	minimum = 7
	maximum = 42
Network latency average = 20.0701
	minimum = 7
	maximum = 42
Slowest packet = 8560
Flit latency average = 20.0701
	minimum = 7
	maximum = 42
Slowest flit = 8560
Fragmentation average = 0
	minimum = 0
	maximum = 0
Injected packet rate average = 0.010375
	minimum = 0.0065 (at node 4)
	maximum = 0.015 (at node 0)
Accepted packet rate average = 0.01025
	minimum = 0 (at node 0)
	maximum = 0.164 (at node 11)
Injected flit rate average = 0.010375
	minimum = 0.0065 (at node 4)
	maximum = 0.015 (at node 0)
Accepted flit rate average= 0.01025
	minimum = 0 (at node 0)
	maximum = 0.164 (at node 11)
Injected packet length average = 1
Accepted packet length average = 1
Total in-flight flits = 4 (0 measured)
latency change    = 0.0184788
throughput change = 0.0182927
Class 0:
Packet latency average = 19.3919
	minimum = 7
	maximum = 33
Network latency average = 19.3919
	minimum = 7
	maximum = 33
Slowest packet = 8894
Flit latency average = 19.3919
	minimum = 7
	maximum = 33
Slowest flit = 8894
Fragmentation average = 0
	minimum = 0
	maximum = 0
Injected packet rate average = 0.009
	minimum = 0.003 (at node 1)
	maximum = 0.012 (at node 3)
Accepted packet rate average = 0.00925
	minimum = 0 (at node 0)
	maximum = 0.148 (at node 11)
Injected flit rate average = 0.009
	minimum = 0.003 (at node 1)
	maximum = 0.012 (at node 3)
Accepted flit rate average= 0.00925
	minimum = 0 (at node 0)
	maximum = 0.148 (at node 11)
Injected packet length average = 1
Accepted packet length average = 1
Total in-flight flits = 0 (0 measured)
latency change    = 0.0349749
throughput change = 0.108108
Warmed up ...Time used is 3000 cycles
Class 0:
Packet latency average = 20.7658
	minimum = 7
	maximum = 35
Network latency average = 20.7658
	minimum = 7
	maximum = 35
Slowest packet = 9107
Flit latency average = 20.7658
	minimum = 7
	maximum = 35
Slowest flit = 9107
Fragmentation average = 0
	minimum = 0
	maximum = 0
Injected packet rate average = 0.0100625
	minimum = 0.004 (at node 6)
	maximum = 0.017 (at node 2)
Accepted packet rate average = 0.009875
	minimum = 0 (at node 0)
	maximum = 0.158 (at node 11)
Injected flit rate average = 0.0100625
	minimum = 0.004 (at node 6)
	maximum = 0.017 (at node 2)
Accepted flit rate average= 0.009875
	minimum = 0 (at node 0)
	maximum = 0.158 (at node 11)
Injected packet length average = 1
Accepted packet length average = 1
Total in-flight flits = 3 (3 measured)
latency change    = 0.0661631
throughput change = 0.0632911
Class 0:
Packet latency average = 20.6611
	minimum = 7
	maximum = 35
Network latency average = 20.6611
	minimum = 7
	maximum = 35
Slowest packet = 9107
Flit latency average = 20.6611
	minimum = 7
	maximum = 35
Slowest flit = 9107
Fragmentation average = 0
	minimum = 0
	maximum = 0
Injected packet rate average = 0.009625
	minimum = 0.0045 (at node 6)
	maximum = 0.0145 (at node 2)
Accepted packet rate average = 0.00940625
	minimum = 0 (at node 0)
	maximum = 0.1505 (at node 11)
Injected flit rate average = 0.009625
	minimum = 0.0045 (at node 6)
	maximum = 0.0145 (at node 2)
Accepted flit rate average= 0.00940625
	minimum = 0 (at node 0)
	maximum = 0.1505 (at node 11)
Injected packet length average = 1
Accepted packet length average = 1
Total in-flight flits = 7 (7 measured)
latency change    = 0.00506716
throughput change = 0.0498339
Class 0:
Packet latency average = 20.4393
	minimum = 7
	maximum = 39
Network latency average = 20.4393
	minimum = 7
	maximum = 39
Slowest packet = 9335
Flit latency average = 20.4393
	minimum = 7
	maximum = 39
Slowest flit = 9335
Fragmentation average = 0
	minimum = 0
	maximum = 0
Injected packet rate average = 0.00954167
	minimum = 0.00533333 (at node 6)
	maximum = 0.0136667 (at node 2)
Accepted packet rate average = 0.0094375
	minimum = 0 (at node 0)
	maximum = 0.151 (at node 11)
Injected flit rate average = 0.00954167
	minimum = 0.00533333 (at node 6)
	maximum = 0.0136667 (at node 2)
Accepted flit rate average= 0.0094375
	minimum = 0 (at node 0)
	maximum = 0.151 (at node 11)
Injected packet length average = 1
Accepted packet length average = 1
Total in-flight flits = 5 (5 measured)
latency change    = 0.0108534
throughput change = 0.00331126
Class 0:
Packet latency average = 20.5192
	minimum = 7
	maximum = 39
Network latency average = 20.5192
	minimum = 7
	maximum = 39
Slowest packet = 9335
Flit latency average = 20.5192
	minimum = 7
	maximum = 39
Slowest flit = 9335
Fragmentation average = 0
	minimum = 0
	maximum = 0
Injected packet rate average = 0.009875
	minimum = 0.00575 (at node 15)
	maximum = 0.0135 (at node 2)
Accepted packet rate average = 0.00978125
	minimum = 0 (at node 0)
	maximum = 0.1565 (at node 11)
Injected flit rate average = 0.009875
	minimum = 0.00575 (at node 15)
	maximum = 0.0135 (at node 2)
Accepted flit rate average= 0.00978125
	minimum = 0 (at node 0)
	maximum = 0.1565 (at node 11)
Injected packet length average = 1
Accepted packet length average = 1
Total in-flight flits = 6 (6 measured)
latency change    = 0.00389274
throughput change = 0.0351438
Draining all recorded packets ...
Draining remaining packets ...
Time taken is 7052 cycles
Class 0:
Packet latency average = 19.6628
	minimum = 7
	maximum = 35
Network latency average = 19.6628
	minimum = 7
	maximum = 35
Slowest packet = 9757
Flit latency average = 19.6628
	minimum = 7
	maximum = 35
Slowest flit = 9757
Fragmentation average = 0
	minimum = 0
	maximum = 0
Injected packet rate average = 0.0109375
	minimum = 0.005 (at node 7)
	maximum = 0.015 (at node 8)
Accepted packet rate average = 0.01075
	minimum = 0 (at node 0)
	maximum = 0.172 (at node 11)
Injected flit rate average = 0.0109375
	minimum = 0.005 (at node 7)
	maximum = 0.015 (at node 8)
Accepted flit rate average= 0.01075
	minimum = 0 (at node 0)
	maximum = 0.172 (at node 11)
Injected packet length average = 1
Accepted packet length average = 1
Total in-flight flits = 3 (0 measured)
latency change    = 1
throughput change = 1
Class 0:
Packet latency average = 19.7104
	minimum = 7
	maximum = 35
Network latency average = 19.7104
	minimum = 7
	maximum = 35
Slowest packet = 9757
Flit latency average = 19.7104
	minimum = 7
	maximum = 35
Slowest flit = 9757
Fragmentation average = 0
	minimum = 0
	maximum = 0
Injected packet rate average = 0.010375
	minimum = 0.007 (at node 15)
	maximum = 0.013 (at node 3)
Accepted packet rate average = 0.01025
	minimum = 0 (at node 0)
	maximum = 0.164 (at node 11)
Injected flit rate average = 0.010375
	minimum = 0.007 (at node 15)
	maximum = 0.013 (at node 3)
Accepted flit rate average= 0.01025
	minimum = 0 (at node 0)
	maximum = 0.164 (at node 11)
Injected packet length average = 1
Accepted packet length average = 1
Total in-flight flits = 4 (0 measured)
latency change    = 0.00241371
throughput change = 0.0487805
Class 0:
Packet latency average = 20.4013
	minimum = 7
	maximum = 39
Network latency average = 20.4013
	minimum = 7
	maximum = 39
Slowest packet = 10034
Flit latency average = 20.4013
	minimum = 7
	maximum = 39
Slowest flit = 10034
Fragmentation average = 0
	minimum = 0
	maximum = 0
Injected packet rate average = 0.00975
	minimum = 0.004 (at node 8)
	maximum = 0.017 (at node 0)
Accepted packet rate average = 0.0098125
	minimum = 0 (at node 0)
	maximum = 0.157 (at node 11)
Injected flit rate average = 0.00975
	minimum = 0.004 (at node 8)
	maximum = 0.017 (at node 0)
Accepted flit rate average= 0.0098125
	minimum = 0 (at node 0)
	maximum = 0.157 (at node 11)
Injected packet length average = 1
Accepted packet length average = 1
Total in-flight flits = 3 (0 measured)
latency change    = 0.0338659
throughput change = 0.044586
Warmed up ...Time used is 3000 cycles
Class 0:
Packet latency average = 19.3354
	minimum = 7
	maximum = 40
Network latency average = 19.3354
	minimum = 7
	maximum = 40
Slowest packet = 10173
Flit latency average = 19.3832
	minimum = 7
	maximum = 40
Slowest flit = 10173
Fragmentation average = 0
	minimum = 0
	maximum = 0
Injected packet rate average = 0.0104375
	minimum = 0.006 (at node 2)
	maximum = 0.016 (at node 15)
Accepted packet rate average = 0.0104375
	minimum = 0 (at node 0)
	maximum = 0.167 (at node 11)
Injected flit rate average = 0.0104375
	minimum = 0.006 (at node 2)
	maximum = 0.016 (at node 15)
Accepted flit rate average= 0.0104375
	minimum = 0 (at node 0)
	maximum = 0.167 (at node 11)
Injected packet length average = 1
Accepted packet length average = 1
Total in-flight flits = 3 (3 measured)
latency change    = 0.0551274
throughput change = 0.0598802
Class 0:
Packet latency average = 19.7962
	minimum = 7
	maximum = 40
Network latency average = 19.7962
	minimum = 7
	maximum = 40
Slowest packet = 10173
Flit latency average = 19.817
	minimum = 7
	maximum = 40
Slowest flit = 10173
Fragmentation average = 0
	minimum = 0
	maximum = 0
Injected packet rate average = 0.0100313
	minimum = 0.0075 (at node 2)
	maximum = 0.0145 (at node 10)
Accepted packet rate average = 0.00990625
	minimum = 0 (at node 0)
	maximum = 0.1585 (at node 11)
Injected flit rate average = 0.0100313
	minimum = 0.0075 (at node 2)
	maximum = 0.0145 (at node 10)
Accepted flit rate average= 0.00990625
	minimum = 0 (at node 0)
	maximum = 0.1585 (at node 11)
Injected packet length average = 1
Accepted packet length average = 1
Total in-flight flits = 7 (7 measured)
latency change    = 0.0232779
throughput change = 0.0536278
Class 0:
Packet latency average = 19.7267
	minimum = 7
	maximum = 40
Network latency average = 19.7267
	minimum = 7
	maximum = 40
Slowest packet = 10173
Flit latency average = 19.7411
	minimum = 7
	maximum = 40
Slowest flit = 10173
Fragmentation average = 0
	minimum = 0
	maximum = 0
Injected packet rate average = 0.009875
	minimum = 0.00733333 (at node 13)
	maximum = 0.0133333 (at node 10)
Accepted packet rate average = 0.00989583
	minimum = 0 (at node 0)
	maximum = 0.158333 (at node 11)
Injected flit rate average = 0.009875
	minimum = 0.00733333 (at node 13)
	maximum = 0.0133333 (at node 10)
Accepted flit rate average= 0.00989583
	minimum = 0 (at node 0)
	maximum = 0.158333 (at node 11)
Injected packet length average = 1
Accepted packet length average = 1
Total in-flight flits = 2 (2 measured)
latency change    = 0.0035223
throughput change = 0.00105263
Class 0:
Packet latency average = 19.8492
	minimum = 7
	maximum = 41
Network latency average = 19.8492
	minimum = 7
	maximum = 41
Slowest packet = 10654
Flit latency average = 19.8594
	minimum = 7
	maximum = 41
Slowest flit = 10654
Fragmentation average = 0
	minimum = 0
	maximum = 0
Injected packet rate average = 0.009875
	minimum = 0.007 (at node 13)
	maximum = 0.0125 (at node 10)
Accepted packet rate average = 0.00989063
	minimum = 0 (at node 0)
	maximum = 0.15825 (at node 11)
Injected flit rate average = 0.009875
	minimum = 0.007 (at node 13)
	maximum = 0.0125 (at node 10)
Accepted flit rate average= 0.00989063
	minimum = 0 (at node 0)
	maximum = 0.15825 (at node 11)
Injected packet length average = 1
Accepted packet length average = 1
Total in-flight flits = 2 (2 measured)
latency change    = 0.00617211
throughput change = 0.000526593
Class 0:
Packet latency average = 19.6428
	minimum = 7
	maximum = 41
Network latency average = 19.6428
	minimum = 7
	maximum = 41
Slowest packet = 10654
Flit latency average = 19.6518
	minimum = 7
	maximum = 41
Slowest flit = 10654
Fragmentation average = 0
	minimum = 0
	maximum = 0
Injected packet rate average = 0.0098125
	minimum = 0.0072 (at node 13)
	maximum = 0.0116 (at node 10)
Accepted packet rate average = 0.0098
	minimum = 0 (at node 0)
	maximum = 0.1568 (at node 11)
Injected flit rate average = 0.0098125
	minimum = 0.0072 (at node 13)
	maximum = 0.0116 (at node 10)
Accepted flit rate average= 0.0098
	minimum = 0 (at node 0)
	maximum = 0.1568 (at node 11)
Injected packet length average = 1
Accepted packet length average = 1
Total in-flight flits = 4 (4 measured)
latency change    = 0.0105098
throughput change = 0.00924745
Draining all recorded packets ...
Draining remaining packets ...
Time taken is 8045 cycles
Class 0:
Packet latency average = 19.6566
	minimum = 7
	maximum = 42
Network latency average = 19.6566
	minimum = 7
	maximum = 42
Slowest packet = 10989
Flit latency average = 19.6566
	minimum = 7
	maximum = 42
Slowest flit = 10989
Fragmentation average = 0
	minimum = 0
	maximum = 0
Injected packet rate average = 0.0105625
	minimum = 0.005 (at node 9)
	maximum = 0.016 (at node 1)
Accepted packet rate average = 0.010375
	minimum = 0 (at node 0)
	maximum = 0.166 (at node 11)
Injected flit rate average = 0.0105625
	minimum = 0.005 (at node 9)
	maximum = 0.016 (at node 1)
Accepted flit rate average= 0.010375
	minimum = 0 (at node 0)
	maximum = 0.166 (at node 11)
Injected packet length average = 1
Accepted packet length average = 1
Total in-flight flits = 3 (0 measured)
latency change    = 1
throughput change = 1
Class 0:
Packet latency average = 19.6812
	minimum = 7
	maximum = 42
Network latency average = 19.6812
	minimum = 7
	maximum = 42
Slowest packet = 10989
Flit latency average = 19.6812
	minimum = 7
	maximum = 42
Slowest flit = 10989
Fragmentation average = 0
	minimum = 0
	maximum = 0
Injected packet rate average = 0.0100625
	minimum = 0.007 (at node 6)
	maximum = 0.0175 (at node 1)
Accepted packet rate average = 0.01
	minimum = 0 (at node 0)
	maximum = 0.16 (at node 11)
Injected flit rate average = 0.0100625
	minimum = 0.007 (at node 6)
	maximum = 0.0175 (at node 1)
Accepted flit rate average= 0.01
	minimum = 0 (at node 0)
	maximum = 0.16 (at node 11)
Injected packet length average = 1
Accepted packet length average = 1
Total in-flight flits = 2 (0 measured)
latency change    = 0.00125111
throughput change = 0.0375
Class 0:
Packet latency average = 19.8631
	minimum = 7
	maximum = 35
Network latency average = 19.8631
	minimum = 7
	maximum = 35
Slowest packet = 11259
Flit latency average = 19.8631
	minimum = 7
	maximum = 35
Slowest flit = 11259
Fragmentation average = 0
	minimum = 0
	maximum = 0
Injected packet rate average = 0.0105
	minimum = 0.004 (at node 5)
	maximum = 0.015 (at node 7)
Accepted packet rate average = 0.0105
	minimum = 0 (at node 0)
	maximum = 0.168 (at node 11)
Injected flit rate average = 0.0105
	minimum = 0.004 (at node 5)
	maximum = 0.015 (at node 7)
Accepted flit rate average= 0.0105
	minimum = 0 (at node 0)
	maximum = 0.168 (at node 11)
Injected packet length average = 1
Accepted packet length average = 1
Total in-flight flits = 2 (0 measured)
latency change    = 0.00915493
throughput change = 0.047619
Warmed up ...Time used is 3000 cycles
Class 0:
Packet latency average = 19.589
	minimum = 7
	maximum = 36
Network latency average = 19.589
	minimum = 7
	maximum = 36
Slowest packet = 11457
Flit latency average = 19.5879
	minimum = 7
	maximum = 36
Slowest flit = 11457
Fragmentation average = 0
	minimum = 0
	maximum = 0
Injected packet rate average = 0.0103125
	minimum = 0.006 (at node 1)
	maximum = 0.016 (at node 4)
Accepted packet rate average = 0.0103125
	minimum = 0 (at node 0)
	maximum = 0.165 (at node 11)
Injected flit rate average = 0.0103125
	minimum = 0.006 (at node 1)
	maximum = 0.016 (at node 4)
Accepted flit rate average= 0.0103125
	minimum = 0 (at node 0)
	maximum = 0.165 (at node 11)
Injected packet length average = 1
Accepted packet length average = 1
Total in-flight flits = 2 (2 measured)
latency change    = 0.0139945
throughput change = 0.0181818
Class 0:
Packet latency average = 19.3191
	minimum = 7
	maximum = 36
Network latency average = 19.3191
	minimum = 7
	maximum = 36
Slowest packet = 11457
Flit latency average = 19.3203
	minimum = 7
	maximum = 36
Slowest flit = 11457
Fragmentation average = 0
	minimum = 0
	maximum = 0
Injected packet rate average = 0.00959375
	minimum = 0.006 (at node 5)
	maximum = 0.0135 (at node 7)
Accepted packet rate average = 0.0095625
	minimum = 0 (at node 0)
	maximum = 0.153 (at node 11)
Injected flit rate average = 0.00959375
	minimum = 0.006 (at node 5)
	maximum = 0.0135 (at node 7)
Accepted flit rate average= 0.0095625
	minimum = 0 (at node 0)
	maximum = 0.153 (at node 11)
Injected packet length average = 1
Accepted packet length average = 1
Total in-flight flits = 3 (3 measured)
latency change    = 0.0139695
throughput change = 0.0784314
Class 0:
Packet latency average = 19.3719
	minimum = 7
	maximum = 36
Network latency average = 19.3719
	minimum = 7
	maximum = 36
Slowest packet = 11457
Flit latency average = 19.3724
	minimum = 7
	maximum = 36
Slowest flit = 11457
Fragmentation average = 0
	minimum = 0
	maximum = 0
Injected packet rate average = 0.0101458
	minimum = 0.007 (at node 5)
	maximum = 0.0133333 (at node 7)
Accepted packet rate average = 0.010125
	minimum = 0 (at node 0)
	maximum = 0.162 (at node 11)
Injected flit rate average = 0.0101458
	minimum = 0.007 (at node 5)
	maximum = 0.0133333 (at node 7)
Accepted flit rate average= 0.010125
	minimum = 0 (at node 0)
	maximum = 0.162 (at node 11)
Injected packet length average = 1
Accepted packet length average = 1
Total in-flight flits = 3 (3 measured)
latency change    = 0.00272673
throughput change = 0.0555556
Class 0:
Packet latency average = 19.5164
	minimum = 7
	maximum = 36
Network latency average = 19.5164
	minimum = 7
	maximum = 36
Slowest packet = 11457
Flit latency average = 19.5163
	minimum = 7
	maximum = 36
Slowest flit = 11457
Fragmentation average = 0
	minimum = 0
	maximum = 0
Injected packet rate average = 0.0100313
	minimum = 0.00725 (at node 5)
	maximum = 0.01225 (at node 8)
Accepted packet rate average = 0.0100469
	minimum = 0 (at node 0)
	maximum = 0.16075 (at node 11)
Injected flit rate average = 0.0100313
	minimum = 0.00725 (at node 5)
	maximum = 0.01225 (at node 8)
Accepted flit rate average= 0.0100469
	minimum = 0 (at node 0)
	maximum = 0.16075 (at node 11)
Injected packet length average = 1
Accepted packet length average = 1
Total in-flight flits = 1 (1 measured)
latency change    = 0.007403
throughput change = 0.00777605
Class 0:
Packet latency average = 19.7459
	minimum = 7
	maximum = 36
Network latency average = 19.7459
	minimum = 7
	maximum = 36
Slowest packet = 11457
Flit latency average = 19.7453
	minimum = 7
	maximum = 36
Slowest flit = 11457
Fragmentation average = 0
	minimum = 0
	maximum = 0
Injected packet rate average = 0.0099375
	minimum = 0.007 (at node 5)
	maximum = 0.0118 (at node 13)
Accepted packet rate average = 0.0099125
	minimum = 0 (at node 0)
	maximum = 0.1586 (at node 11)
Injected flit rate average = 0.0099375
	minimum = 0.007 (at node 5)
	maximum = 0.0118 (at node 13)
Accepted flit rate average= 0.0099125
	minimum = 0 (at node 0)
	maximum = 0.1586 (at node 11)
Injected packet length average = 1
Accepted packet length average = 1
Total in-flight flits = 4 (4 measured)
latency change    = 0.0116232
throughput change = 0.0135561
Class 0:
Packet latency average = 19.7209
	minimum = 7
	maximum = 36
Network latency average = 19.7209
	minimum = 7
	maximum = 36
Slowest packet = 11457
Flit latency average = 19.7204
	minimum = 7
	maximum = 36
Slowest flit = 11457
Fragmentation average = 0
	minimum = 0
	maximum = 0
Injected packet rate average = 0.00978125
	minimum = 0.00683333 (at node 5)
	maximum = 0.0123333 (at node 13)
Accepted packet rate average = 0.00976042
	minimum = 0 (at node 0)
	maximum = 0.156167 (at node 11)
Injected flit rate average = 0.00978125
	minimum = 0.00683333 (at node 5)
	maximum = 0.0123333 (at node 13)
Accepted flit rate average= 0.00976042
	minimum = 0 (at node 0)
	maximum = 0.156167 (at node 11)
Injected packet length average = 1
Accepted packet length average = 1
Total in-flight flits = 4 (4 measured)
latency change    = 0.0012695
throughput change = 0.0155816
Draining all recorded packets ...
Draining remaining packets ...
Time taken is 9036 cycles
Class 0:
Packet latency average = 19.396
	minimum = 7
	maximum = 32
Network latency average = 19.396
	minimum = 7
	maximum = 32
Slowest packet = 12323
Flit latency average = 19.396
	minimum = 7
	maximum = 32
Slowest flit = 12323
Fragmentation average = 0
	minimum = 0
	maximum = 0
Injected packet rate average = 0.009875
	minimum = 0.005 (at node 7)
	maximum = 0.015 (at node 15)
Accepted packet rate average = 0.0093125
	minimum = 0 (at node 0)
	maximum = 0.149 (at node 11)
Injected flit rate average = 0.009875
	minimum = 0.005 (at node 7)
	maximum = 0.015 (at node 15)
Accepted flit rate average= 0.0093125
	minimum = 0 (at node 0)
	maximum = 0.149 (at node 11)
Injected packet length average = 1
Accepted packet length average = 1
Total in-flight flits = 9 (0 measured)
latency change    = 1
throughput change = 1
Class 0:
Packet latency average = 19.4733
	minimum = 7
	maximum = 34
Network latency average = 19.4733
	minimum = 7
	maximum = 34
Slowest packet = 12467
Flit latency average = 19.4733
	minimum = 7
	maximum = 34
Slowest flit = 12467
Fragmentation average = 0
	minimum = 0
	maximum = 0
Injected packet rate average = 0.0094375
	minimum = 0.0065 (at node 4)
	maximum = 0.0135 (at node 14)
Accepted packet rate average = 0.009375
	minimum = 0 (at node 0)
	maximum = 0.15 (at node 11)
Injected flit rate average = 0.0094375
	minimum = 0.0065 (at node 4)
	maximum = 0.0135 (at node 14)
Accepted flit rate average= 0.009375
	minimum = 0 (at node 0)
	maximum = 0.15 (at node 11)
Injected packet length average = 1
Accepted packet length average = 1
Total in-flight flits = 2 (0 measured)
latency change    = 0.00397262
throughput change = 0.00666667
Class 0:
Packet latency average = 19.7313
	minimum = 7
	maximum = 33
Network latency average = 19.7313
	minimum = 7
	maximum = 33
Slowest packet = 12624
Flit latency average = 19.7313
	minimum = 7
	maximum = 33
Slowest flit = 12624
Fragmentation average = 0
	minimum = 0
	maximum = 0
Injected packet rate average = 0.008625
	minimum = 0.003 (at node 9)
	maximum = 0.015 (at node 1)
Accepted packet rate average = 0.008375
	minimum = 0 (at node 0)
	maximum = 0.134 (at node 11)
Injected flit rate average = 0.008625
	minimum = 0.003 (at node 9)
	maximum = 0.015 (at node 1)
Accepted flit rate average= 0.008375
	minimum = 0 (at node 0)
	maximum = 0.134 (at node 11)
Injected packet length average = 1
Accepted packet length average = 1
Total in-flight flits = 6 (0 measured)
latency change    = 0.0130761
throughput change = 0.119403
Warmed up ...Time used is 3000 cycles
Class 0:
Packet latency average = 19.9508
	minimum = 7
	maximum = 34
Network latency average = 19.9508
	minimum = 7
	maximum = 34
Slowest packet = 12828
Flit latency average = 19.9153
	minimum = 7
	maximum = 34
Slowest flit = 12828
Fragmentation average = 0
	minimum = 0
	maximum = 0
Injected packet rate average = 0.0114375
	minimum = 0.006 (at node 13)
	maximum = 0.018 (at node 3)
Accepted packet rate average = 0.0118125
	minimum = 0 (at node 0)
	maximum = 0.189 (at node 11)
Injected flit rate average = 0.0114375
	minimum = 0.006 (at node 13)
	maximum = 0.018 (at node 3)
Accepted flit rate average= 0.0118125
	minimum = 0 (at node 0)
	maximum = 0.189 (at node 11)
Injected packet length average = 1
Accepted packet length average = 1
Total in-flight flits = 0 (0 measured)
latency change    = 0.0110009
throughput change = 0.291005
Class 0:
Packet latency average = 19.9407
	minimum = 7
	maximum = 40
Network latency average = 19.9407
	minimum = 7
	maximum = 40
Slowest packet = 12967
Flit latency average = 19.9213
	minimum = 7
	maximum = 40
Slowest flit = 12967
Fragmentation average = 0
	minimum = 0
	maximum = 0
Injected packet rate average = 0.010625
	minimum = 0.0075 (at node 11)
	maximum = 0.0155 (at node 3)
Accepted packet rate average = 0.0107188
	minimum = 0 (at node 0)
	maximum = 0.1715 (at node 11)
Injected flit rate average = 0.010625
	minimum = 0.0075 (at node 11)
	maximum = 0.0155 (at node 3)
Accepted flit rate average= 0.0107188
	minimum = 0 (at node 0)
	maximum = 0.1715 (at node 11)
Injected packet length average = 1
Accepted packet length average = 1
Total in-flight flits = 3 (3 measured)
latency change    = 0.000509856
throughput change = 0.102041
Class 0:
Packet latency average = 20.0079
	minimum = 7
	maximum = 40
Network latency average = 20.0079
	minimum = 7
	maximum = 40
Slowest packet = 12967
Flit latency average = 19.9942
	minimum = 7
	maximum = 40
Slowest flit = 12967
Fragmentation average = 0
	minimum = 0
	maximum = 0
Injected packet rate average = 0.0106042
	minimum = 0.008 (at node 7)
	maximum = 0.0133333 (at node 10)
Accepted packet rate average = 0.0106875
	minimum = 0 (at node 0)
	maximum = 0.171 (at node 11)
Injected flit rate average = 0.0106042
	minimum = 0.008 (at node 7)
	maximum = 0.0133333 (at node 10)
Accepted flit rate average= 0.0106875
	minimum = 0 (at node 0)
	maximum = 0.171 (at node 11)
Injected packet length average = 1
Accepted packet length average = 1
Total in-flight flits = 2 (2 measured)
latency change    = 0.00336051
throughput change = 0.00292398
Class 0:
Packet latency average = 19.7459
	minimum = 7
	maximum = 40
Network latency average = 19.7459
	minimum = 7
	maximum = 40
Slowest packet = 12967
Flit latency average = 19.7378
	minimum = 7
	maximum = 40
Slowest flit = 12967
Fragmentation average = 0
	minimum = 0
	maximum = 0
Injected packet rate average = 0.0105313
	minimum = 0.009 (at node 11)
	maximum = 0.0125 (at node 14)
Accepted packet rate average = 0.0105469
	minimum = 0 (at node 0)
	maximum = 0.16875 (at node 11)
Injected flit rate average = 0.0105313
	minimum = 0.009 (at node 11)
	maximum = 0.0125 (at node 14)
Accepted flit rate average= 0.0105469
	minimum = 0 (at node 0)
	maximum = 0.16875 (at node 11)
Injected packet length average = 1
Accepted packet length average = 1
Total in-flight flits = 5 (5 measured)
latency change    = 0.0132686
throughput change = 0.0133333
Class 0:
Packet latency average = 19.7799
	minimum = 7
	maximum = 40
Network latency average = 19.7799
	minimum = 7
	maximum = 40
Slowest packet = 12967
Flit latency average = 19.7731
	minimum = 7
	maximum = 40
Slowest flit = 12967
Fragmentation average = 0
	minimum = 0
	maximum = 0
Injected packet rate average = 0.01035
	minimum = 0.0084 (at node 11)
	maximum = 0.0122 (at node 15)
Accepted packet rate average = 0.0104125
	minimum = 0 (at node 0)
	maximum = 0.1666 (at node 11)
Injected flit rate average = 0.01035
	minimum = 0.0084 (at node 11)
	maximum = 0.0122 (at node 15)
Accepted flit rate average= 0.0104125
	minimum = 0 (at node 0)
	maximum = 0.1666 (at node 11)
Injected packet length average = 1
Accepted packet length average = 1
Total in-flight flits = 1 (1 measured)
latency change    = 0.00172084
throughput change = 0.0129052
Draining all recorded packets ...
Draining remaining packets ...
Time taken is 8035 cycles
Class 0:
Packet latency average = 19.4286
	minimum = 7
	maximum = 34
Network latency average = 19.4286
	minimum = 7
	maximum = 34
Slowest packet = 13653
Flit latency average = 19.4286
	minimum = 7
	maximum = 34
Slowest flit = 13653
Fragmentation average = 0
	minimum = 0
	maximum = 0
Injected packet rate average = 0.0099375
	minimum = 0.006 (at node 0)
	maximum = 0.015 (at node 10)
Accepted packet rate average = 0.009625
	minimum = 0 (at node 0)
	maximum = 0.154 (at node 11)
Injected flit rate average = 0.0099375
	minimum = 0.006 (at node 0)
	maximum = 0.015 (at node 10)
Accepted flit rate average= 0.009625
	minimum = 0 (at node 0)
	maximum = 0.154 (at node 11)
Injected packet length average = 1
Accepted packet length average = 1
Total in-flight flits = 5 (0 measured)
latency change    = 1
throughput change = 1
Class 0:
Packet latency average = 19.5389
	minimum = 7
	maximum = 34
Network latency average = 19.5389
	minimum = 7
	maximum = 34
Slowest packet = 13653
Flit latency average = 19.5389
	minimum = 7
	maximum = 34
Slowest flit = 13653
Fragmentation average = 0
	minimum = 0
	maximum = 0
Injected packet rate average = 0.0100938
	minimum = 0.0065 (at node 7)
	maximum = 0.013 (at node 15)
Accepted packet rate average = 0.0100313
	minimum = 0 (at node 0)
	maximum = 0.1605 (at node 11)
Injected flit rate average = 0.0100938
	minimum = 0.0065 (at node 7)
	maximum = 0.013 (at node 15)
Accepted flit rate average= 0.0100313
	minimum = 0 (at node 0)
	maximum = 0.1605 (at node 11)
Injected packet length average = 1
Accepted packet length average = 1
Total in-flight flits = 2 (0 measured)
latency change    = 0.00564869
throughput change = 0.0404984
Class 0:
Packet latency average = 20.1598
	minimum = 7
	maximum = 35
Network latency average = 20.1598
	minimum = 7
	maximum = 35
Slowest packet = 13972
Flit latency average = 20.1598
	minimum = 7
	maximum = 35
Slowest flit = 13972
Fragmentation average = 0
	minimum = 0
	maximum = 0
Injected packet rate average = 0.0106875
	minimum = 0.007 (at node 3)
	maximum = 0.015 (at node 6)
Accepted packet rate average = 0.0105625
	minimum = 0 (at node 0)
	maximum = 0.169 (at node 11)
Injected flit rate average = 0.0106875
	minimum = 0.007 (at node 3)
	maximum = 0.015 (at node 6)
Accepted flit rate average= 0.0105625
	minimum = 0 (at node 0)
	maximum = 0.169 (at node 11)
Injected packet length average = 1
Accepted packet length average = 1
Total in-flight flits = 4 (0 measured)
latency change    = 0.0307951
throughput change = 0.0502959
Warmed up ...Time used is 3000 cycles
Class 0:
Packet latency average = 19.6688
	minimum = 7
	maximum = 33
Network latency average = 19.6688
	minimum = 7
	maximum = 33
Slowest packet = 14220
Flit latency average = 19.7278
	minimum = 7
	maximum = 33
Slowest flit = 14220
Fragmentation average = 0
	minimum = 0
	maximum = 0
Injected packet rate average = 0.0099375
	minimum = 0.006 (at node 3)
	maximum = 0.014 (at node 2)
Accepted packet rate average = 0.009875
	minimum = 0 (at node 0)
	maximum = 0.158 (at node 11)
Injected flit rate average = 0.0099375
	minimum = 0.006 (at node 3)
	maximum = 0.014 (at node 2)
Accepted flit rate average= 0.009875
	minimum = 0 (at node 0)
	maximum = 0.158 (at node 11)
Injected packet length average = 1
Accepted packet length average = 1
Total in-flight flits = 5 (5 measured)
latency change    = 0.0249599
throughput change = 0.0696203
Class 0:
Packet latency average = 19.6412
	minimum = 7
	maximum = 35
Network latency average = 19.6412
	minimum = 7
	maximum = 35
Slowest packet = 14251
Flit latency average = 19.6721
	minimum = 7
	maximum = 35
Slowest flit = 14251
Fragmentation average = 0
	minimum = 0
	maximum = 0
Injected packet rate average = 0.00940625
	minimum = 0.0065 (at node 3)
	maximum = 0.0115 (at node 0)
Accepted packet rate average = 0.00953125
	minimum = 0 (at node 0)
	maximum = 0.1525 (at node 11)
Injected flit rate average = 0.00940625
	minimum = 0.0065 (at node 3)
	maximum = 0.0115 (at node 0)
Accepted flit rate average= 0.00953125
	minimum = 0 (at node 0)
	maximum = 0.1525 (at node 11)
Injected packet length average = 1
Accepted packet length average = 1
Total in-flight flits = 0 (0 measured)
latency change    = 0.001407
throughput change = 0.0360656
Class 0:
Packet latency average = 19.9728
	minimum = 7
	maximum = 41
Network latency average = 19.9728
	minimum = 7
	maximum = 41
Slowest packet = 14428
Flit latency average = 19.991
	minimum = 7
	maximum = 41
Slowest flit = 14428
Fragmentation average = 0
	minimum = 0
	maximum = 0
Injected packet rate average = 0.00922917
	minimum = 0.00633333 (at node 14)
	maximum = 0.012 (at node 8)
Accepted packet rate average = 0.00927083
	minimum = 0 (at node 0)
	maximum = 0.148333 (at node 11)
Injected flit rate average = 0.00922917
	minimum = 0.00633333 (at node 14)
	maximum = 0.012 (at node 8)
Accepted flit rate average= 0.00927083
	minimum = 0 (at node 0)
	maximum = 0.148333 (at node 11)
Injected packet length average = 1
Accepted packet length average = 1
Total in-flight flits = 2 (2 measured)
latency change    = 0.0166022
throughput change = 0.0280899
Class 0:
Packet latency average = 20.0083
	minimum = 7
	maximum = 41
Network latency average = 20.0083
	minimum = 7
	maximum = 41
Slowest packet = 14428
Flit latency average = 20.0213
	minimum = 7
	maximum = 41
Slowest flit = 14428
Fragmentation average = 0
	minimum = 0
	maximum = 0
Injected packet rate average = 0.00946875
	minimum = 0.00725 (at node 1)
	maximum = 0.01175 (at node 0)
Accepted packet rate average = 0.00951562
	minimum = 0 (at node 0)
	maximum = 0.15225 (at node 11)
Injected flit rate average = 0.00946875
	minimum = 0.00725 (at node 1)
	maximum = 0.01175 (at node 0)
Accepted flit rate average= 0.00951562
	minimum = 0 (at node 0)
	maximum = 0.15225 (at node 11)
Injected packet length average = 1
Accepted packet length average = 1
Total in-flight flits = 1 (1 measured)
latency change    = 0.00177303
throughput change = 0.0257252
Draining all recorded packets ...
Draining remaining packets ...
Time taken is 7035 cycles
Class 0:
Packet latency average = 19.2247
	minimum = 7
	maximum = 32
Network latency average = 19.2247
	minimum = 7
	maximum = 32
Slowest packet = 14716
Flit latency average = 19.2247
	minimum = 7
	maximum = 32
Slowest flit = 14716
Fragmentation average = 0
	minimum = 0
	maximum = 0
Injected packet rate average = 0.011375
	minimum = 0.006 (at node 9)
	maximum = 0.023 (at node 7)
Accepted packet rate average = 0.011125
	minimum = 0 (at node 0)
	maximum = 0.178 (at node 11)
Injected flit rate average = 0.011375
	minimum = 0.006 (at node 9)
	maximum = 0.023 (at node 7)
Accepted flit rate average= 0.011125
	minimum = 0 (at node 0)
	maximum = 0.178 (at node 11)
Injected packet length average = 1
Accepted packet length average = 1
Total in-flight flits = 4 (0 measured)
latency change    = 1
throughput change = 1
Class 0:
Packet latency average = 19.5818
	minimum = 7
	maximum = 41
Network latency average = 19.5818
	minimum = 7
	maximum = 41
Slowest packet = 14973
Flit latency average = 19.5818
	minimum = 7
	maximum = 41
Slowest flit = 14973
Fragmentation average = 0
	minimum = 0
	maximum = 0
Injected packet rate average = 0.0117188
	minimum = 0.008 (at node 10)
	maximum = 0.019 (at node 7)
Accepted packet rate average = 0.0116562
	minimum = 0 (at node 0)
	maximum = 0.1865 (at node 11)
Injected flit rate average = 0.0117188
	minimum = 0.008 (at node 10)
	maximum = 0.019 (at node 7)
Accepted flit rate average= 0.0116562
	minimum = 0 (at node 0)
	maximum = 0.1865 (at node 11)
Injected packet length average = 1
Accepted packet length average = 1
Total in-flight flits = 2 (0 measured)
latency change    = 0.0182338
[...]
	maximum = 32
Network latency average = 19.2086
	minimum = 7
	maximum = 32
Slowest packet = 116258
Flit latency average = 19.2086
	minimum = 7
	maximum = 32
Slowest flit = 116258
Fragmentation average = 0
	minimum = 0
	maximum = 0
Injected packet rate average = 0.00875
	minimum = 0.004 (at node 12)
	maximum = 0.015 (at node 11)
Accepted packet rate average = 0.0086875
	minimum = 0 (at node 0)
	maximum = 0.139 (at node 11)
Injected flit rate average = 0.00875
	minimum = 0.004 (at node 12)
	maximum = 0.015 (at node 11)
Accepted flit rate average= 0.0086875
	minimum = 0 (at node 0)
	maximum = 0.139 (at node 11)
Injected packet length average = 1
Accepted packet length average = 1
Total in-flight flits = 2 (0 measured)
latency change    = 0.0429281
throughput change = 0.0827338
Warmed up ...Time used is 3000 cycles
Class 0:
Packet latency average = 19.4577
	minimum = 7
	maximum = 46
Network latency average = 19.4577
	minimum = 7
	maximum = 46
Slowest packet = 116472
Flit latency average = 19.3889
	minimum = 7
	maximum = 46
Slowest flit = 116472
Fragmentation average = 0
	minimum = 0
	maximum = 0
Injected packet rate average = 0.009
	minimum = 0.004 (at node 2)
	maximum = 0.016 (at node 9)
Accepted packet rate average = 0.009
	minimum = 0 (at node 0)
	maximum = 0.144 (at node 11)
Injected flit rate average = 0.009
	minimum = 0.004 (at node 2)
	maximum = 0.016 (at node 9)
Accepted flit rate average= 0.009
	minimum = 0 (at node 0)
	maximum = 0.144 (at node 11)
Injected packet length average = 1
Accepted packet length average = 1
Total in-flight flits = 2 (2 measured)
latency change    = 0.0128028
throughput change = 0.0347222
Class 0:
Packet latency average = 20.7593
	minimum = 7
	maximum = 46
Network latency average = 20.7593
	minimum = 7
	maximum = 46
Slowest packet = 116472
Flit latency average = 20.7172
	minimum = 7
	maximum = 46
Slowest flit = 116472
Fragmentation average = 0
	minimum = 0
	maximum = 0
Injected packet rate average = 0.0093125
	minimum = 0.006 (at node 7)
	maximum = 0.0135 (at node 0)
Accepted packet rate average = 0.00928125
	minimum = 0 (at node 0)
	maximum = 0.1485 (at node 11)
Injected flit rate average = 0.0093125
	minimum = 0.006 (at node 7)
	maximum = 0.0135 (at node 0)
Accepted flit rate average= 0.00928125
	minimum = 0 (at node 0)
	maximum = 0.1485 (at node 11)
Injected packet length average = 1
Accepted packet length average = 1
Total in-flight flits = 3 (3 measured)
latency change    = 0.0626984
throughput change = 0.030303
Class 0:
Packet latency average = 20.2484
	minimum = 7
	maximum = 46
Network latency average = 20.2484
	minimum = 7
	maximum = 46
Slowest packet = 116472
Flit latency average = 20.2239
	minimum = 7
	maximum = 46
Slowest flit = 116472
Fragmentation average = 0
	minimum = 0
	maximum = 0
Injected packet rate average = 0.00979167
	minimum = 0.00666667 (at node 8)
	maximum = 0.013 (at node 9)
Accepted packet rate average = 0.00977083
	minimum = 0 (at node 0)
	maximum = 0.156333 (at node 11)
Injected flit rate average = 0.00979167
	minimum = 0.00666667 (at node 8)
	maximum = 0.013 (at node 9)
Accepted flit rate average= 0.00977083
	minimum = 0 (at node 0)
	maximum = 0.156333 (at node 11)
Injected packet length average = 1
Accepted packet length average = 1
Total in-flight flits = 3 (3 measured)
latency change    = 0.025233
throughput change = 0.0501066
Class 0:
Packet latency average = 20.0064
	minimum = 7
	maximum = 46
Network latency average = 20.0064
	minimum = 7
	maximum = 46
Slowest packet = 116472
Flit latency average = 19.9888
	minimum = 7
	maximum = 46
Slowest flit = 116472
Fragmentation average = 0
	minimum = 0
	maximum = 0
Injected packet rate average = 0.00973437
	minimum = 0.00575 (at node 8)
	maximum = 0.013 (at node 1)
Accepted packet rate average = 0.00975
	minimum = 0 (at node 0)
	maximum = 0.156 (at node 11)
Injected flit rate average = 0.00973437
	minimum = 0.00575 (at node 8)
	maximum = 0.013 (at node 1)
Accepted flit rate average= 0.00975
	minimum = 0 (at node 0)
	maximum = 0.156 (at node 11)
Injected packet length average = 1
Accepted packet length average = 1
Total in-flight flits = 1 (1 measured)
latency change    = 0.0120943
throughput change = 0.00213675
Class 0:
Packet latency average = 20.0327
	minimum = 7
	maximum = 47
Network latency average = 20.0327
	minimum = 7
	maximum = 47
Slowest packet = 117112
Flit latency average = 20.0188
	minimum = 7
	maximum = 47
Slowest flit = 117112
Fragmentation average = 0
	minimum = 0
	maximum = 0
Injected packet rate average = 0.0099625
	minimum = 0.007 (at node 8)
	maximum = 0.0128 (at node 1)
Accepted packet rate average = 0.009975
	minimum = 0 (at node 0)
	maximum = 0.1596 (at node 11)
Injected flit rate average = 0.0099625
	minimum = 0.007 (at node 8)
	maximum = 0.0128 (at node 1)
Accepted flit rate average= 0.009975
	minimum = 0 (at node 0)
	maximum = 0.1596 (at node 11)
Injected packet length average = 1
Accepted packet length average = 1
Total in-flight flits = 1 (1 measured)
latency change    = 0.00130948
throughput change = 0.0225564
Class 0:
Packet latency average = 19.934
	minimum = 7
	maximum = 47
Network latency average = 19.934
	minimum = 7
	maximum = 47
Slowest packet = 117112
Flit latency average = 19.9226
	minimum = 7
	maximum = 47
Slowest flit = 117112
Fragmentation average = 0
	minimum = 0
	maximum = 0
Injected packet rate average = 0.00996875
	minimum = 0.00733333 (at node 4)
	maximum = 0.0126667 (at node 1)
Accepted packet rate average = 0.00995833
	minimum = 0 (at node 0)
	maximum = 0.159333 (at node 11)
Injected flit rate average = 0.00996875
	minimum = 0.00733333 (at node 4)
	maximum = 0.0126667 (at node 1)
Accepted flit rate average= 0.00995833
	minimum = 0 (at node 0)
	maximum = 0.159333 (at node 11)
Injected packet length average = 1
Accepted packet length average = 1
Total in-flight flits = 3 (3 measured)
latency change    = 0.0049514
throughput change = 0.00167364
Draining all recorded packets ...
Draining remaining packets ...
Time taken is 9048 cycles
Class 0:
Packet latency average = 19.622
	minimum = 7
	maximum = 38
Network latency average = 19.622
	minimum = 7
	maximum = 38
Slowest packet = 117518
Flit latency average = 19.622
	minimum = 7
	maximum = 38
Slowest flit = 117518
Fragmentation average = 0
	minimum = 0
	maximum = 0
Injected packet rate average = 0.0105
	minimum = 0.006 (at node 1)
	maximum = 0.019 (at node 8)
Accepted packet rate average = 0.01025
	minimum = 0 (at node 0)
	maximum = 0.164 (at node 11)
Injected flit rate average = 0.0105
	minimum = 0.006 (at node 1)
	maximum = 0.019 (at node 8)
Accepted flit rate average= 0.01025
	minimum = 0 (at node 0)
	maximum = 0.164 (at node 11)
Injected packet length average = 1
Accepted packet length average = 1
Total in-flight flits = 4 (0 measured)
latency change    = 1
throughput change = 1
Class 0:
Packet latency average = 20.3502
	minimum = 7
	maximum = 41
Network latency average = 20.3502
	minimum = 7
	maximum = 41
Slowest packet = 117660
Flit latency average = 20.3502
	minimum = 7
	maximum = 41
Slowest flit = 117660
Fragmentation average = 0
	minimum = 0
	maximum = 0
Injected packet rate average = 0.0100313
	minimum = 0.0065 (at node 1)
	maximum = 0.0165 (at node 8)
Accepted packet rate average = 0.00990625
	minimum = 0 (at node 0)
	maximum = 0.1585 (at node 11)
Injected flit rate average = 0.0100313
	minimum = 0.0065 (at node 1)
	maximum = 0.0165 (at node 8)
Accepted flit rate average= 0.00990625
	minimum = 0 (at node 0)
	maximum = 0.1585 (at node 11)
Injected packet length average = 1
Accepted packet length average = 1
Total in-flight flits = 4 (0 measured)
latency change    = 0.0357838
throughput change = 0.0347003
Class 0:
Packet latency average = 18.6962
	minimum = 7
	maximum = 37
Network latency average = 18.6962
	minimum = 7
	maximum = 37
Slowest packet = 117749
Flit latency average = 18.6962
	minimum = 7
	maximum = 37
Slowest flit = 117749
Fragmentation average = 0
	minimum = 0
	maximum = 0
Injected packet rate average = 0.0101875
	minimum = 0.005 (at node 4)
	maximum = 0.017 (at node 15)
Accepted packet rate average = 0.009875
	minimum = 0 (at node 0)
	maximum = 0.158 (at node 11)
Injected flit rate average = 0.0101875
	minimum = 0.005 (at node 4)
	maximum = 0.017 (at node 15)
Accepted flit rate average= 0.009875
	minimum = 0 (at node 0)
	maximum = 0.158 (at node 11)
Injected packet length average = 1
Accepted packet length average = 1
Total in-flight flits = 9 (0 measured)
latency change    = 0.0884648
throughput change = 0.00316456
Warmed up ...Time used is 3000 cycles
Class 0:
Packet latency average = 19.8424
	minimum = 7
	maximum = 37
Network latency average = 19.8424
	minimum = 7
	maximum = 37
Slowest packet = 117994
Flit latency average = 20.0674
	minimum = 7
	maximum = 38
Slowest flit = 117847
Fragmentation average = 0
	minimum = 0
	maximum = 0
Injected packet rate average = 0.0115625
	minimum = 0.005 (at node 5)
	maximum = 0.017 (at node 13)
Accepted packet rate average = 0.0120625
	minimum = 0 (at node 0)
	maximum = 0.193 (at node 11)
Injected flit rate average = 0.0115625
	minimum = 0.005 (at node 5)
	maximum = 0.017 (at node 13)
Accepted flit rate average= 0.0120625
	minimum = 0 (at node 0)
	maximum = 0.193 (at node 11)
Injected packet length average = 1
Accepted packet length average = 1
Total in-flight flits = 1 (1 measured)
latency change    = 0.0577646
throughput change = 0.181347
Class 0:
Packet latency average = 20.0312
	minimum = 7
	maximum = 37
Network latency average = 20.0312
	minimum = 7
	maximum = 37
Slowest packet = 117994
Flit latency average = 20.1468
	minimum = 7
	maximum = 38
Slowest flit = 117847
Fragmentation average = 0
	minimum = 0
	maximum = 0
Injected packet rate average = 0.0110312
	minimum = 0.007 (at node 12)
	maximum = 0.0165 (at node 13)
Accepted packet rate average = 0.0112812
	minimum = 0 (at node 0)
	maximum = 0.1805 (at node 11)
Injected flit rate average = 0.0110312
	minimum = 0.007 (at node 12)
	maximum = 0.0165 (at node 13)
Accepted flit rate average= 0.0112812
	minimum = 0 (at node 0)
	maximum = 0.1805 (at node 11)
Injected packet length average = 1
Accepted packet length average = 1
Total in-flight flits = 1 (1 measured)
latency change    = 0.0094282
throughput change = 0.0692521
Class 0:
Packet latency average = 19.7004
	minimum = 7
	maximum = 37
Network latency average = 19.7004
	minimum = 7
	maximum = 37
Slowest packet = 117994
Flit latency average = 19.7859
	minimum = 7
	maximum = 38
Slowest flit = 117847
Fragmentation average = 0
	minimum = 0
	maximum = 0
Injected packet rate average = 0.0107917
	minimum = 0.00766667 (at node 12)
	maximum = 0.014 (at node 9)
Accepted packet rate average = 0.0108958
	minimum = 0 (at node 0)
	maximum = 0.174333 (at node 11)
Injected flit rate average = 0.0107917
	minimum = 0.00766667 (at node 12)
	maximum = 0.014 (at node 9)
Accepted flit rate average= 0.0108958
	minimum = 0 (at node 0)
	maximum = 0.174333 (at node 11)
Injected packet length average = 1
Accepted packet length average = 1
Total in-flight flits = 4 (4 measured)
latency change    = 0.0167946
throughput change = 0.0353728
Class 0:
Packet latency average = 19.6574
	minimum = 7
	maximum = 37
Network latency average = 19.6574
	minimum = 7
	maximum = 37
Slowest packet = 117994
Flit latency average = 19.7228
	minimum = 7
	maximum = 38
Slowest flit = 117847
Fragmentation average = 0
	minimum = 0
	maximum = 0
Injected packet rate average = 0.0106563
	minimum = 0.00775 (at node 10)
	maximum = 0.0135 (at node 14)
Accepted packet rate average = 0.0107656
	minimum = 0 (at node 0)
	maximum = 0.17225 (at node 11)
Injected flit rate average = 0.0106563
	minimum = 0.00775 (at node 10)
	maximum = 0.0135 (at node 14)
Accepted flit rate average= 0.0107656
	minimum = 0 (at node 0)
	maximum = 0.17225 (at node 11)
Injected packet length average = 1
Accepted packet length average = 1
Total in-flight flits = 2 (2 measured)
latency change    = 0.00218932
throughput change = 0.0120948
Class 0:
Packet latency average = 19.6776
	minimum = 7
	maximum = 37
Network latency average = 19.6776
	minimum = 7
	maximum = 37
Slowest packet = 117994
Flit latency average = 19.7314
	minimum = 7
	maximum = 38
Slowest flit = 117847
Fragmentation average = 0
	minimum = 0
	maximum = 0
Injected packet rate average = 0.01035
	minimum = 0.008 (at node 10)
	maximum = 0.0132 (at node 14)
Accepted packet rate average = 0.010425
	minimum = 0 (at node 0)
	maximum = 0.1668 (at node 11)
Injected flit rate average = 0.01035
	minimum = 0.008 (at node 10)
	maximum = 0.0132 (at node 14)
Accepted flit rate average= 0.010425
	minimum = 0 (at node 0)
	maximum = 0.1668 (at node 11)
Injected packet length average = 1
Accepted packet length average = 1
Total in-flight flits = 3 (3 measured)
latency change    = 0.00102771
throughput change = 0.0326739
Draining all recorded packets ...
Draining remaining packets ...
Time taken is 8061 cycles
Class 0:
Packet latency average = 19.5491
	minimum = 7
	maximum = 35
Network latency average = 19.5491
	minimum = 7
	maximum = 35
Slowest packet = 118733
Flit latency average = 19.5491
	minimum = 7
	maximum = 35
Slowest flit = 118733
Fragmentation average = 0
	minimum = 0
	maximum = 0
Injected packet rate average = 0.0109375
	minimum = 0.007 (at node 0)
	maximum = 0.014 (at node 6)
Accepted packet rate average = 0.0108125
	minimum = 0 (at node 0)
	maximum = 0.173 (at node 11)
Injected flit rate average = 0.0109375
	minimum = 0.007 (at node 0)
	maximum = 0.014 (at node 6)
Accepted flit rate average= 0.0108125
	minimum = 0 (at node 0)
	maximum = 0.173 (at node 11)
Injected packet length average = 1
Accepted packet length average = 1
Total in-flight flits = 2 (0 measured)
latency change    = 1
throughput change = 1
Class 0:
Packet latency average = 19.3117
	minimum = 7
	maximum = 35
Network latency average = 19.3117
	minimum = 7
	maximum = 35
Slowest packet = 118733
Flit latency average = 19.3117
	minimum = 7
	maximum = 35
Slowest flit = 118733
Fragmentation average = 0
	minimum = 0
	maximum = 0
Injected packet rate average = 0.00975
	minimum = 0.007 (at node 0)
	maximum = 0.0125 (at node 15)
Accepted packet rate average = 0.009625
	minimum = 0 (at node 0)
	maximum = 0.154 (at node 11)
Injected flit rate average = 0.00975
	minimum = 0.007 (at node 0)
	maximum = 0.0125 (at node 15)
Accepted flit rate average= 0.009625
	minimum = 0 (at node 0)
	maximum = 0.154 (at node 11)
Injected packet length average = 1
Accepted packet length average = 1
Total in-flight flits = 4 (0 measured)
latency change    = 0.0122954
throughput change = 0.123377
Class 0:
Packet latency average = 19.7884
	minimum = 7
	maximum = 32
Network latency average = 19.7884
	minimum = 7
	maximum = 32
Slowest packet = 119085
Flit latency average = 19.7884
	minimum = 7
	maximum = 32
Slowest flit = 119085
Fragmentation average = 0
	minimum = 0
	maximum = 0
Injected packet rate average = 0.0118125
	minimum = 0.006 (at node 3)
	maximum = 0.016 (at node 7)
Accepted packet rate average = 0.0118125
	minimum = 0 (at node 0)
	maximum = 0.189 (at node 11)
Injected flit rate average = 0.0118125
	minimum = 0.006 (at node 3)
	maximum = 0.016 (at node 7)
Accepted flit rate average= 0.0118125
	minimum = 0 (at node 0)
	maximum = 0.189 (at node 11)
Injected packet length average = 1
Accepted packet length average = 1
Total in-flight flits = 4 (0 measured)
latency change    = 0.0240885
throughput change = 0.185185
Warmed up ...Time used is 3000 cycles
Class 0:
Packet latency average = 19.4036
	minimum = 7
	maximum = 32
Network latency average = 19.4036
	minimum = 7
	maximum = 32
Slowest packet = 119214
Flit latency average = 19.4647
	minimum = 7
	maximum = 32
Slowest flit = 119214
Fragmentation average = 0
	minimum = 0
	maximum = 0
Injected packet rate average = 0.0106875
	minimum = 0.006 (at node 2)
	maximum = 0.018 (at node 9)
Accepted packet rate average = 0.010625
	minimum = 0 (at node 0)
	maximum = 0.17 (at node 11)
Injected flit rate average = 0.0106875
	minimum = 0.006 (at node 2)
	maximum = 0.018 (at node 9)
Accepted flit rate average= 0.010625
	minimum = 0 (at node 0)
	maximum = 0.17 (at node 11)
Injected packet length average = 1
Accepted packet length average = 1
Total in-flight flits = 5 (5 measured)
latency change    = 0.0198285
throughput change = 0.111765
Class 0:
Packet latency average = 19.503
	minimum = 7
	maximum = 36
Network latency average = 19.503
	minimum = 7
	maximum = 36
Slowest packet = 119454
Flit latency average = 19.5324
	minimum = 7
	maximum = 36
Slowest flit = 119454
Fragmentation average = 0
	minimum = 0
	maximum = 0
Injected packet rate average = 0.010625
	minimum = 0.005 (at node 0)
	maximum = 0.0145 (at node 9)
Accepted packet rate average = 0.010625
	minimum = 0 (at node 0)
	maximum = 0.17 (at node 11)
Injected flit rate average = 0.010625
	minimum = 0.005 (at node 0)
	maximum = 0.0145 (at node 9)
Accepted flit rate average= 0.010625
	minimum = 0 (at node 0)
	maximum = 0.17 (at node 11)
Injected packet length average = 1
Accepted packet length average = 1
Total in-flight flits = 4 (4 measured)
latency change    = 0.0050947
throughput change = 0
Class 0:
Packet latency average = 19.5941
	minimum = 7
	maximum = 36
Network latency average = 19.5941
	minimum = 7
	maximum = 36
Slowest packet = 119454
Flit latency average = 19.613
	minimum = 7
	maximum = 36
Slowest flit = 119454
Fragmentation average = 0
	minimum = 0
	maximum = 0
Injected packet rate average = 0.010625
	minimum = 0.00633333 (at node 0)
	maximum = 0.0143333 (at node 15)
Accepted packet rate average = 0.0106042
	minimum = 0 (at node 0)
	maximum = 0.169667 (at node 11)
Injected flit rate average = 0.010625
	minimum = 0.00633333 (at node 0)
	maximum = 0.0143333 (at node 15)
Accepted flit rate average= 0.0106042
	minimum = 0 (at node 0)
	maximum = 0.169667 (at node 11)
Injected packet length average = 1
Accepted packet length average = 1
Total in-flight flits = 5 (5 measured)
latency change    = 0.00464851
throughput change = 0.00196464
Class 0:
Packet latency average = 19.8082
	minimum = 7
	maximum = 39
Network latency average = 19.8082
	minimum = 7
	maximum = 39
Slowest packet = 119771
Flit latency average = 19.8215
	minimum = 7
	maximum = 39
Slowest flit = 119771
Fragmentation average = 0
	minimum = 0
	maximum = 0
Injected packet rate average = 0.0103594
	minimum = 0.00725 (at node 5)
	maximum = 0.0135 (at node 9)
Accepted packet rate average = 0.0103281
	minimum = 0 (at node 0)
	maximum = 0.16525 (at node 11)
Injected flit rate average = 0.0103594
	minimum = 0.00725 (at node 5)
	maximum = 0.0135 (at node 9)
Accepted flit rate average= 0.0103281
	minimum = 0 (at node 0)
	maximum = 0.16525 (at node 11)
Injected packet length average = 1
Accepted packet length average = 1
Total in-flight flits = 6 (6 measured)
latency change    = 0.0108117
throughput change = 0.0267272
Draining all recorded packets ...
Draining remaining packets ...
Time taken is 7048 cycles
====== Overall Traffic Statistics ======
====== Traffic class 0 ======
Packet latency average = 19.8436 (100 samples)
	minimum = 7 (100 samples)
	maximum = 39.62 (100 samples)
Network latency average = 19.8436 (100 samples)
	minimum = 7 (100 samples)
	maximum = 39.62 (100 samples)
Flit latency average = 19.8536 (100 samples)
	minimum = 7 (100 samples)
	maximum = 39.67 (100 samples)
Fragmentation average = 0 (100 samples)
	minimum = 0 (100 samples)
	maximum = 0 (100 samples)
Injected packet rate average = 0.00998995 (100 samples)
	minimum = 0.00742467 (100 samples)
	maximum = 0.0127653 (100 samples)
Accepted packet rate average = 0.00998771 (100 samples)
	minimum = 0 (100 samples)
	maximum = 0.159803 (100 samples)
Injected flit rate average = 0.00998995 (100 samples)
	minimum = 0.00742467 (100 samples)
	maximum = 0.0127653 (100 samples)
Accepted flit rate average = 0.00998771 (100 samples)
	minimum = 0 (100 samples)
	maximum = 0.159803 (100 samples)
Injected packet size average = 1 (100 samples)
Accepted packet size average = 1 (100 samples)
Hops average = 3.50277 (100 samples)
Total run time 8.68101
