BEGIN Configuration File: /tmp/tmp7lvg8p9y.cfg
topology = mesh;
k = 4;
n = 2;
routing_function = romm;
num_vcs = 4;
vc_buf_size = 4;
wait_for_tail_credit = 1;
vc_allocator = islip;
sw_allocator = islip;
alloc_iters = 1;
credit_delay = 2;
routing_delay = 1;
vc_alloc_delay = 1;
sw_alloc_delay = 1;
input_speedup = 2;
output_speedup = 1;
internal_speedup = 1.0;
traffic = uniform;
packet_size = 1;
sim_type = latency;
injection_rate = 0.05;
warmup_periods = 3;
sample_period = 1000;
sim_count = 100;
seed = 1;

END Configuration File: /tmp/tmp7lvg8p9y.cfg
Class 0:
Packet latency average = 19.4987
	minimum = 7
	maximum = 45
Network latency average = 19.4987
	minimum = 7
	maximum = 45
Slowest packet = 243
Flit latency average = 19.4987
	minimum = 7
	maximum = 45
Slowest flit = 243
Fragmentation average = 0
	minimum = 0
	maximum = 0
Injected packet rate average = 0.0505
	minimum = 0.038 (at node 9)
	maximum = 0.073 (at node 1)
Accepted packet rate average = 0.04975
	minimum = 0.031 (at node 6)
	maximum = 0.062 (at node 2)
Injected flit rate average = 0.0505
	minimum = 0.038 (at node 9)
	maximum = 0.073 (at node 1)
Accepted flit rate average= 0.04975
	minimum = 0.031 (at node 6)
	maximum = 0.062 (at node 2)
Injected packet length average = 1
Accepted packet length average = 1
Total in-flight flits = 12 (0 measured)
latency change    = 1
throughput change = 1
Class 0:
Packet latency average = 19.6164
	minimum = 7
	maximum = 45
Network latency average = 19.6164
	minimum = 7
	maximum = 45
Slowest packet = 243
Flit latency average = 19.6164
	minimum = 7
	maximum = 45
Slowest flit = 243
Fragmentation average = 0
	minimum = 0
	maximum = 0
Injected packet rate average = 0.0509688
	minimum = 0.0425 (at node 3)
	maximum = 0.064 (at node 1)
Accepted packet rate average = 0.0505937
	minimum = 0.038 (at node 7)
	maximum = 0.057 (at node 13)
Injected flit rate average = 0.0509688
	minimum = 0.0425 (at node 3)
	maximum = 0.064 (at node 1)
Accepted flit rate average= 0.0505937
	minimum = 0.038 (at node 7)
	maximum = 0.057 (at node 13)
Injected packet length average = 1
Accepted packet length average = 1
Total in-flight flits = 12 (0 measured)
latency change    = 0.00599937
throughput change = 0.016677
Class 0:
Packet latency average = 19.7697
	minimum = 7
	maximum = 42
Network latency average = 19.7697
	minimum = 7
	maximum = 42
Slowest packet = 2334
Flit latency average = 19.7697
	minimum = 7
	maximum = 42
Slowest flit = 2334
Fragmentation average = 0
	minimum = 0
	maximum = 0
Injected packet rate average = 0.0524375
	minimum = 0.042 (at node 0)
	maximum = 0.064 (at node 1)
Accepted packet rate average = 0.052375
	minimum = 0.042 (at node 3)
	maximum = 0.067 (at node 4)
Injected flit rate average = 0.0524375
	minimum = 0.042 (at node 0)
	maximum = 0.064 (at node 1)
Accepted flit rate average= 0.052375
	minimum = 0.042 (at node 3)
	maximum = 0.067 (at node 4)
Injected packet length average = 1
Accepted packet length average = 1
Total in-flight flits = 13 (0 measured)
latency change    = 0.00775226
throughput change = 0.0340095
Warmed up ...Time used is 3000 cycles
Class 0:
Packet latency average = 19.9432
	minimum = 7
	maximum = 43
Network latency average = 19.9419
	minimum = 7
	maximum = 43
Slowest packet = 2777
Flit latency average = 19.9764
	minimum = 7
	maximum = 43
Slowest flit = 2777
Fragmentation average = 0
	minimum = 0
	maximum = 0
Injected packet rate average = 0.05075
	minimum = 0.041 (at node 6)
	maximum = 0.065 (at node 5)
Accepted packet rate average = 0.0503125
	minimum = 0.032 (at node 7)
	maximum = 0.061 (at node 5)
Injected flit rate average = 0.05075
	minimum = 0.041 (at node 6)
	maximum = 0.065 (at node 5)
Accepted flit rate average= 0.0503125
	minimum = 0.032 (at node 7)
	maximum = 0.061 (at node 5)
Injected packet length average = 1
Accepted packet length average = 1
Total in-flight flits = 20 (20 measured)
latency change    = 0.00869932
throughput change = 0.0409938
Class 0:
Packet latency average = 19.9252
	minimum = 7
	maximum = 43
Network latency average = 19.9246
	minimum = 7
	maximum = 43
Slowest packet = 2777
Flit latency average = 19.9415
	minimum = 7
	maximum = 43
Slowest flit = 2777
Fragmentation average = 0
	minimum = 0
	maximum = 0
Injected packet rate average = 0.0520938
	minimum = 0.0415 (at node 6)
	maximum = 0.0615 (at node 2)
Accepted packet rate average = 0.0518125
	minimum = 0.0395 (at node 7)
	maximum = 0.064 (at node 5)
Injected flit rate average = 0.0520938
	minimum = 0.0415 (at node 6)
	maximum = 0.0615 (at node 2)
Accepted flit rate average= 0.0518125
	minimum = 0.0395 (at node 7)
	maximum = 0.064 (at node 5)
Injected packet length average = 1
Accepted packet length average = 1
Total in-flight flits = 22 (22 measured)
latency change    = 0.000901061
throughput change = 0.0289505
Class 0:
Packet latency average = 19.9836
	minimum = 7
	maximum = 43
Network latency average = 19.9832
	minimum = 7
	maximum = 43
Slowest packet = 2777
Flit latency average = 19.9943
	minimum = 7
	maximum = 43
Slowest flit = 2777
Fragmentation average = 0
	minimum = 0
	maximum = 0
Injected packet rate average = 0.0512708
	minimum = 0.0443333 (at node 11)
	maximum = 0.0606667 (at node 5)
Accepted packet rate average = 0.0510833
	minimum = 0.0436667 (at node 7)
	maximum = 0.062 (at node 5)
Injected flit rate average = 0.0512708
	minimum = 0.0443333 (at node 11)
	maximum = 0.0606667 (at node 5)
Accepted flit rate average= 0.0510833
	minimum = 0.0436667 (at node 7)
	maximum = 0.062 (at node 5)
Injected packet length average = 1
Accepted packet length average = 1
Total in-flight flits = 22 (22 measured)
latency change    = 0.00292099
throughput change = 0.0142741
Draining all recorded packets ...
Draining remaining packets ...
Time taken is 6059 cycles
Class 0:
Packet latency average = 19.5481
	minimum = 7
	maximum = 37
Network latency average = 19.5481
	minimum = 7
	maximum = 37
Slowest packet = 5030
Flit latency average = 19.5481
	minimum = 7
	maximum = 37
Slowest flit = 5030
Fragmentation average = 0
	minimum = 0
	maximum = 0
Injected packet rate average = 0.0495
	minimum = 0.039 (at node 14)
	maximum = 0.059 (at node 2)
Accepted packet rate average = 0.0486875
	minimum = 0.034 (at node 12)
	maximum = 0.061 (at node 11)
Injected flit rate average = 0.0495
	minimum = 0.039 (at node 14)
	maximum = 0.059 (at node 2)
Accepted flit rate average= 0.0486875
	minimum = 0.034 (at node 12)
	maximum = 0.061 (at node 11)
Injected packet length average = 1
Accepted packet length average = 1
Total in-flight flits = 13 (0 measured)
latency change    = 1
throughput change = 1
Class 0:
Packet latency average = 19.7527
	minimum = 7
	maximum = 38
Network latency average = 19.7527
	minimum = 7
	maximum = 38
Slowest packet = 5850
Flit latency average = 19.7527
	minimum = 7
	maximum = 38
Slowest flit = 5850
Fragmentation average = 0
	minimum = 0
	maximum = 0
Injected packet rate average = 0.0493125
	minimum = 0.0405 (at node 15)
	maximum = 0.056 (at node 4)
Accepted packet rate average = 0.0489062
	minimum = 0.039 (at node 8)
	maximum = 0.0575 (at node 6)
Injected flit rate average = 0.0493125
	minimum = 0.0405 (at node 15)
	maximum = 0.056 (at node 4)
Accepted flit rate average= 0.0489062
	minimum = 0.039 (at node 8)
	maximum = 0.0575 (at node 6)
Injected packet length average = 1
Accepted packet length average = 1
Total in-flight flits = 13 (0 measured)
latency change    = 0.0103569
throughput change = 0.00447284
Class 0:
Packet latency average = 19.435
	minimum = 7
	maximum = 40
Network latency average = 19.435
	minimum = 7
	maximum = 40
Slowest packet = 7257
Flit latency average = 19.435
	minimum = 7
	maximum = 40
Slowest flit = 7257
Fragmentation average = 0
	minimum = 0
	maximum = 0
Injected packet rate average = 0.0490625
	minimum = 0.04 (at node 10)
	maximum = 0.056 (at node 6)
Accepted packet rate average = 0.0485625
	minimum = 0.036 (at node 0)
	maximum = 0.06 (at node 12)
Injected flit rate average = 0.0490625
	minimum = 0.04 (at node 10)
	maximum = 0.056 (at node 6)
Accepted flit rate average= 0.0485625
	minimum = 0.036 (at node 0)
	maximum = 0.06 (at node 12)
Injected packet length average = 1
Accepted packet length average = 1
Total in-flight flits = 21 (0 measured)
latency change    = 0.0163473
throughput change = 0.00707851
Warmed up ...Time used is 3000 cycles
Class 0:
Packet latency average = 19.5495
	minimum = 7
	maximum = 44
Network latency average = 19.5495
	minimum = 7
	maximum = 44
Slowest packet = 8046
Flit latency average = 19.7243
	minimum = 7
	maximum = 44
Slowest flit = 7303
Fragmentation average = 0
	minimum = 0
	maximum = 0
Injected packet rate average = 0.049625
	minimum = 0.032 (at node 3)
	maximum = 0.069 (at node 14)
Accepted packet rate average = 0.049875
	minimum = 0.032 (at node 2)
	maximum = 0.063 (at node 15)
Injected flit rate average = 0.049625
	minimum = 0.032 (at node 3)
	maximum = 0.069 (at node 14)
Accepted flit rate average= 0.049875
	minimum = 0.032 (at node 2)
	maximum = 0.063 (at node 15)
Injected packet length average = 1
Accepted packet length average = 1
Total in-flight flits = 17 (17 measured)
latency change    = 0.00585912
throughput change = 0.0263158
Class 0:
Packet latency average = 19.4613
	minimum = 7
	maximum = 44
Network latency average = 19.4613
	minimum = 7
	maximum = 44
Slowest packet = 8046
Flit latency average = 19.5512
	minimum = 7
	maximum = 44
Slowest flit = 7303
Fragmentation average = 0
	minimum = 0
	maximum = 0
Injected packet rate average = 0.048875
	minimum = 0.0415 (at node 3)
	maximum = 0.0605 (at node 14)
Accepted packet rate average = 0.0491562
	minimum = 0.04 (at node 0)
	maximum = 0.0595 (at node 6)
Injected flit rate average = 0.048875
	minimum = 0.0415 (at node 3)
	maximum = 0.0605 (at node 14)
Accepted flit rate average= 0.0491562
	minimum = 0.04 (at node 0)
	maximum = 0.0595 (at node 6)
Injected packet length average = 1
Accepted packet length average = 1
Total in-flight flits = 12 (12 measured)
latency change    = 0.00453254
throughput change = 0.0146217
Class 0:
Packet latency average = 19.5142
	minimum = 7
	maximum = 45
Network latency average = 19.5142
	minimum = 7
	maximum = 45
Slowest packet = 9084
Flit latency average = 19.574
	minimum = 7
	maximum = 45
Slowest flit = 9084
Fragmentation average = 0
	minimum = 0
	maximum = 0
Injected packet rate average = 0.0488542
	minimum = 0.0443333 (at node 11)
	maximum = 0.0563333 (at node 9)
Accepted packet rate average = 0.0488542
	minimum = 0.039 (at node 0)
	maximum = 0.056 (at node 6)
Injected flit rate average = 0.0488542
	minimum = 0.0443333 (at node 11)
	maximum = 0.0563333 (at node 9)
Accepted flit rate average= 0.0488542
	minimum = 0.039 (at node 0)
	maximum = 0.056 (at node 6)
Injected packet length average = 1
Accepted packet length average = 1
Total in-flight flits = 21 (21 measured)
latency change    = 0.00270877
throughput change = 0.00618337
Draining all recorded packets ...
Draining remaining packets ...
Time taken is 6059 cycles
Class 0:
Packet latency average = 19.712
	minimum = 7
	maximum = 38
Network latency average = 19.712
	minimum = 7
	maximum = 38
Slowest packet = 9980
Flit latency average = 19.712
	minimum = 7
	maximum = 38
Slowest flit = 9980
Fragmentation average = 0
	minimum = 0
	maximum = 0
Injected packet rate average = 0.0480625
	minimum = 0.038 (at node 14)
	maximum = 0.061 (at node 15)
Accepted packet rate average = 0.046875
	minimum = 0.037 (at node 3)
	maximum = 0.059 (at node 15)
Injected flit rate average = 0.0480625
	minimum = 0.038 (at node 14)
	maximum = 0.061 (at node 15)
Accepted flit rate average= 0.046875
	minimum = 0.037 (at node 3)
	maximum = 0.059 (at node 15)
Injected packet length average = 1
Accepted packet length average = 1
Total in-flight flits = 19 (0 measured)
latency change    = 1
throughput change = 1
Class 0:
Packet latency average = 19.6367
	minimum = 7
	maximum = 42
Network latency average = 19.6367
	minimum = 7
	maximum = 42
Slowest packet = 10914
Flit latency average = 19.6367
	minimum = 7
	maximum = 42
Slowest flit = 10914
Fragmentation average = 0
	minimum = 0
	maximum = 0
Injected packet rate average = 0.0479687
	minimum = 0.0425 (at node 7)
	maximum = 0.0545 (at node 1)
Accepted packet rate average = 0.0472187
	minimum = 0.0395 (at node 3)
	maximum = 0.0595 (at node 7)
Injected flit rate average = 0.0479687
	minimum = 0.0425 (at node 7)
	maximum = 0.0545 (at node 1)
Accepted flit rate average= 0.0472187
	minimum = 0.0395 (at node 3)
	maximum = 0.0595 (at node 7)
Injected packet length average = 1
Accepted packet length average = 1
Total in-flight flits = 24 (0 measured)
latency change    = 0.00383647
throughput change = 0.00727995
Class 0:
Packet latency average = 20.1186
	minimum = 7
	maximum = 50
Network latency average = 20.1186
	minimum = 7
	maximum = 50
Slowest packet = 11711
Flit latency average = 20.1186
	minimum = 7
	maximum = 50
Slowest flit = 11711
Fragmentation average = 0
	minimum = 0
	maximum = 0
Injected packet rate average = 0.0506875
	minimum = 0.035 (at node 15)
	maximum = 0.066 (at node 4)
Accepted packet rate average = 0.051625
	minimum = 0.036 (at node 13)
	maximum = 0.062 (at node 6)
Injected flit rate average = 0.0506875
	minimum = 0.035 (at node 15)
	maximum = 0.066 (at node 4)
Accepted flit rate average= 0.051625
	minimum = 0.036 (at node 13)
	maximum = 0.062 (at node 6)
Injected packet length average = 1
Accepted packet length average = 1
Total in-flight flits = 9 (0 measured)
latency change    = 0.0239569
throughput change = 0.0853511
Warmed up ...Time used is 3000 cycles
Class 0:
Packet latency average = 19.736
	minimum = 7
	maximum = 45
Network latency average = 19.736
	minimum = 7
	maximum = 45
Slowest packet = 12188
Flit latency average = 19.7691
	minimum = 7
	maximum = 45
Slowest flit = 12188
Fragmentation average = 0
	minimum = 0
	maximum = 0
Injected packet rate average = 0.050375
	minimum = 0.041 (at node 9)
	maximum = 0.07 (at node 2)
Accepted packet rate average = 0.0498125
	minimum = 0.039 (at node 13)
	maximum = 0.059 (at node 5)
Injected flit rate average = 0.050375
	minimum = 0.041 (at node 9)
	maximum = 0.07 (at node 2)
Accepted flit rate average= 0.0498125
	minimum = 0.039 (at node 13)
	maximum = 0.059 (at node 5)
Injected packet length average = 1
Accepted packet length average = 1
Total in-flight flits = 18 (18 measured)
latency change    = 0.019386
throughput change = 0.0363864
Class 0:
Packet latency average = 19.7203
	minimum = 7
	maximum = 45
Network latency average = 19.7203
	minimum = 7
	maximum = 45
Slowest packet = 12188
Flit latency average = 19.7371
	minimum = 7
	maximum = 45
Slowest flit = 12188
Fragmentation average = 0
	minimum = 0
	maximum = 0
Injected packet rate average = 0.0494687
	minimum = 0.0435 (at node 0)
	maximum = 0.0605 (at node 15)
Accepted packet rate average = 0.0492187
	minimum = 0.0435 (at node 4)
	maximum = 0.0545 (at node 5)
Injected flit rate average = 0.0494687
	minimum = 0.0435 (at node 0)
	maximum = 0.0605 (at node 15)
Accepted flit rate average= 0.0492187
	minimum = 0.0435 (at node 4)
	maximum = 0.0545 (at node 5)
Injected packet length average = 1
Accepted packet length average = 1
Total in-flight flits = 17 (17 measured)
latency change    = 0.000797863
throughput change = 0.0120635
Class 0:
Packet latency average = 19.8715
	minimum = 7
	maximum = 45
Network latency average = 19.8715
	minimum = 7
	maximum = 45
Slowest packet = 12188
Flit latency average = 19.8822
	minimum = 7
	maximum = 45
Slowest flit = 12188
Fragmentation average = 0
	minimum = 0
	maximum = 0
Injected packet rate average = 0.0493958
	minimum = 0.042 (at node 8)
	maximum = 0.0566667 (at node 2)
Accepted packet rate average = 0.0491667
	minimum = 0.043 (at node 4)
	maximum = 0.0576667 (at node 5)
Injected flit rate average = 0.0493958
	minimum = 0.042 (at node 8)
	maximum = 0.0566667 (at node 2)
Accepted flit rate average= 0.0491667
	minimum = 0.043 (at node 4)
	maximum = 0.0576667 (at node 5)
Injected packet length average = 1
Accepted packet length average = 1
Total in-flight flits = 20 (20 measured)
latency change    = 0.00761076
throughput change = 0.00105932
Draining all recorded packets ...
Draining remaining packets ...
Time taken is 6054 cycles
Class 0:
Packet latency average = 19.8172
	minimum = 7
	maximum = 40
Network latency average = 19.8172
	minimum = 7
	maximum = 40
Slowest packet = 14977
Flit latency average = 19.8172
	minimum = 7
	maximum = 40
Slowest flit = 14977
Fragmentation average = 0
	minimum = 0
	maximum = 0
Injected packet rate average = 0.050375
	minimum = 0.04 (at node 8)
	maximum = 0.059 (at node 14)
Accepted packet rate average = 0.0495625
	minimum = 0.042 (at node 6)
	maximum = 0.059 (at node 8)
Injected flit rate average = 0.050375
	minimum = 0.04 (at node 8)
	maximum = 0.059 (at node 14)
Accepted flit rate average= 0.0495625
	minimum = 0.042 (at node 6)
	maximum = 0.059 (at node 8)
Injected packet length average = 1
Accepted packet length average = 1
Total in-flight flits = 13 (0 measured)
latency change    = 1
throughput change = 1
Class 0:
Packet latency average = 19.7711
	minimum = 7
	maximum = 40
Network latency average = 19.7711
	minimum = 7
	maximum = 40
Slowest packet = 14977
Flit latency average = 19.7711
	minimum = 7
	maximum = 40
Slowest flit = 14977
Fragmentation average = 0
	minimum = 0
	maximum = 0
Injected packet rate average = 0.0494687
	minimum = 0.0385 (at node 8)
	maximum = 0.0595 (at node 7)
Accepted packet rate average = 0.0491562
	minimum = 0.0415 (at node 13)
	maximum = 0.056 (at node 3)
Injected flit rate average = 0.0494687
	minimum = 0.0385 (at node 8)
	maximum = 0.0595 (at node 7)
Accepted flit rate average= 0.0491562
	minimum = 0.0415 (at node 13)
	maximum = 0.056 (at node 3)
Injected packet length average = 1
Accepted packet length average = 1
Total in-flight flits = 10 (0 measured)
latency change    = 0.00232724
throughput change = 0.00826446
Class 0:
Packet latency average = 19.5693
	minimum = 7
	maximum = 38
Network latency average = 19.5693
	minimum = 7
	maximum = 38
Slowest packet = 16384
Flit latency average = 19.5693
	minimum = 7
	maximum = 38
Slowest flit = 16384
Fragmentation average = 0
	minimum = 0
	maximum = 0
Injected packet rate average = 0.0495625
	minimum = 0.037 (at node 3)
	maximum = 0.06 (at node 2)
Accepted packet rate average = 0.0491875
	minimum = 0.037 (at node 11)
	maximum = 0.071 (at node 9)
Injected flit rate average = 0.0495625
	minimum = 0.037 (at node 3)
	maximum = 0.06 (at node 2)
Accepted flit rate average= 0.0491875
	minimum = 0.037 (at node 11)
	maximum = 0.071 (at node 9)
Injected packet length average = 1
Accepted packet length average = 1
Total in-flight flits = 16 (0 measured)
latency change    = 0.0103166
throughput change = 0.000635324
Warmed up ...Time used is 3000 cycles
Class 0:
Packet latency average = 19.9018
	minimum = 7
	maximum = 42
Network latency average = 19.9018
	minimum = 7
	maximum = 42
Slowest packet = 17447
Flit latency average = 19.9941
	minimum = 7
	maximum = 42
Slowest flit = 17447
Fragmentation average = 0
	minimum = 0
	maximum = 0
Injected packet rate average = 0.0526875
	minimum = 0.035 (at node 6)
	maximum = 0.063 (at node 12)
Accepted packet rate average = 0.0525625
	minimum = 0.037 (at node 2)
	maximum = 0.066 (at node 9)
Injected flit rate average = 0.0526875
	minimum = 0.035 (at node 6)
	maximum = 0.063 (at node 12)
Accepted flit rate average= 0.0525625
	minimum = 0.037 (at node 2)
	maximum = 0.066 (at node 9)
Injected packet length average = 1
Accepted packet length average = 1
Total in-flight flits = 18 (18 measured)
latency change    = 0.0167104
throughput change = 0.0642093
Class 0:
Packet latency average = 19.7553
	minimum = 7
	maximum = 42
Network latency average = 19.7553
	minimum = 7
	maximum = 42
Slowest packet = 17447
Flit latency average = 19.8044
	minimum = 7
	maximum = 42
Slowest flit = 17447
Fragmentation average = 0
	minimum = 0
	maximum = 0
Injected packet rate average = 0.0507812
	minimum = 0.043 (at node 6)
	maximum = 0.058 (at node 9)
Accepted packet rate average = 0.0508125
	minimum = 0.0405 (at node 2)
	maximum = 0.058 (at node 7)
Injected flit rate average = 0.0507812
	minimum = 0.043 (at node 6)
	maximum = 0.058 (at node 9)
Accepted flit rate average= 0.0508125
	minimum = 0.0405 (at node 2)
	maximum = 0.058 (at node 7)
Injected packet length average = 1
Accepted packet length average = 1
Total in-flight flits = 15 (15 measured)
latency change    = 0.0074177
throughput change = 0.0344403
Class 0:
Packet latency average = 19.7016
	minimum = 7
	maximum = 42
Network latency average = 19.7016
	minimum = 7
	maximum = 42
Slowest packet = 17447
Flit latency average = 19.7344
	minimum = 7
	maximum = 42
Slowest flit = 17447
Fragmentation average = 0
	minimum = 0
	maximum = 0
Injected packet rate average = 0.0513542
	minimum = 0.046 (at node 0)
	maximum = 0.0556667 (at node 9)
Accepted packet rate average = 0.051375
	minimum = 0.0436667 (at node 2)
	maximum = 0.0566667 (at node 9)
Injected flit rate average = 0.0513542
	minimum = 0.046 (at node 0)
	maximum = 0.0556667 (at node 9)
Accepted flit rate average= 0.051375
	minimum = 0.0436667 (at node 2)
	maximum = 0.0566667 (at node 9)
Injected packet length average = 1
Accepted packet length average = 1
Total in-flight flits = 15 (15 measured)
latency change    = 0.00272296
throughput change = 0.0109489
Class 0:
Packet latency average = 19.7203
	minimum = 7
	maximum = 42
Network latency average = 19.7203
	minimum = 7
	maximum = 42
Slowest packet = 17447
Flit latency average = 19.7447
	minimum = 7
	maximum = 42
Slowest flit = 17447
Fragmentation average = 0
	minimum = 0
	maximum = 0
Injected packet rate average = 0.0515
	minimum = 0.0475 (at node 0)
	maximum = 0.0565 (at node 5)
Accepted packet rate average = 0.0514688
	minimum = 0.04375 (at node 12)
	maximum = 0.05525 (at node 15)
Injected flit rate average = 0.0515
	minimum = 0.0475 (at node 0)
	maximum = 0.0565 (at node 5)
Accepted flit rate average= 0.0514688
	minimum = 0.04375 (at node 12)
	maximum = 0.05525 (at node 15)
Injected packet length average = 1
Accepted packet length average = 1
Total in-flight flits = 18 (18 measured)
latency change    = 0.000944389
throughput change = 0.00182149
Draining all recorded packets ...
Draining remaining packets ...
Time taken is 7058 cycles
Class 0:
Packet latency average = 19.6138
	minimum = 7
	maximum = 42
Network latency average = 19.6138
	minimum = 7
	maximum = 42
Slowest packet = 20606
Flit latency average = 19.6138
	minimum = 7
	maximum = 42
Slowest flit = 20606
Fragmentation average = 0
	minimum = 0
	maximum = 0
Injected packet rate average = 0.049125
	minimum = 0.032 (at node 2)
	maximum = 0.074 (at node 10)
Accepted packet rate average = 0.0480625
	minimum = 0.033 (at node 6)
	maximum = 0.059 (at node 8)
Injected flit rate average = 0.049125
	minimum = 0.032 (at node 2)
	maximum = 0.074 (at node 10)
Accepted flit rate average= 0.0480625
	minimum = 0.033 (at node 6)
	maximum = 0.059 (at node 8)
Injected packet length average = 1
Accepted packet length average = 1
Total in-flight flits = 17 (0 measured)
latency change    = 1
throughput change = 1
Class 0:
Packet latency average = 19.5993
	minimum = 7
	maximum = 42
Network latency average = 19.5993
	minimum = 7
	maximum = 42
Slowest packet = 20606
Flit latency average = 19.5993
	minimum = 7
	maximum = 42
Slowest flit = 20606
Fragmentation average = 0
	minimum = 0
	maximum = 0
Injected packet rate average = 0.0504062
	minimum = 0.039 (at node 2)
	maximum = 0.0605 (at node 10)
Accepted packet rate average = 0.0500625
	minimum = 0.0415 (at node 6)
	maximum = 0.062 (at node 8)
Injected flit rate average = 0.0504062
	minimum = 0.039 (at node 2)
	maximum = 0.0605 (at node 10)
Accepted flit rate average= 0.0500625
	minimum = 0.0415 (at node 6)
	maximum = 0.062 (at node 8)
Injected packet length average = 1
Accepted packet length average = 1
Total in-flight flits = 11 (0 measured)
latency change    = 0.000741518
throughput change = 0.0399501
Class 0:
Packet latency average = 19.8308
	minimum = 7
	maximum = 44
Network latency average = 19.8308
	minimum = 7
	maximum = 44
Slowest packet = 22071
Flit latency average = 19.8308
	minimum = 7
	maximum = 44
Slowest flit = 22071
Fragmentation average = 0
	minimum = 0
	maximum = 0
Injected packet rate average = 0.050625
	minimum = 0.039 (at node 4)
	maximum = 0.073 (at node 11)
Accepted packet rate average = 0.049875
	minimum = 0.04 (at node 14)
	maximum = 0.066 (at node 11)
Injected flit rate average = 0.050625
	minimum = 0.039 (at node 4)
	maximum = 0.073 (at node 11)
Accepted flit rate average= 0.049875
	minimum = 0.04 (at node 14)
	maximum = 0.066 (at node 11)
Injected packet length average = 1
Accepted packet length average = 1
Total in-flight flits = 23 (0 measured)
latency change    = 0.0116776
throughput change = 0.0037594
Warmed up ...Time used is 3000 cycles
Class 0:
Packet latency average = 19.4333
	minimum = 7
	maximum = 39
Network latency average = 19.4333
	minimum = 7
	maximum = 39
Slowest packet = 22945
Flit latency average = 19.4981
	minimum = 7
	maximum = 39
Slowest flit = 22945
Fragmentation average = 0
	minimum = 0
	maximum = 0
Injected packet rate average = 0.0495625
	minimum = 0.04 (at node 5)
	maximum = 0.06 (at node 14)
Accepted packet rate average = 0.0501875
	minimum = 0.038 (at node 0)
	maximum = 0.066 (at node 10)
Injected flit rate average = 0.0495625
	minimum = 0.04 (at node 5)
	maximum = 0.06 (at node 14)
Accepted flit rate average= 0.0501875
	minimum = 0.038 (at node 0)
	maximum = 0.066 (at node 10)
Injected packet length average = 1
Accepted packet length average = 1
Total in-flight flits = 13 (13 measured)
latency change    = 0.0204542
throughput change = 0.00622665
Class 0:
Packet latency average = 19.5344
	minimum = 7
	maximum = 39
Network latency average = 19.5344
	minimum = 7
	maximum = 39
Slowest packet = 22945
Flit latency average = 19.5643
	minimum = 7
	maximum = 39
Slowest flit = 22945
Fragmentation average = 0
	minimum = 0
	maximum = 0
Injected packet rate average = 0.0519063
	minimum = 0.043 (at node 5)
	maximum = 0.062 (at node 14)
Accepted packet rate average = 0.052
	minimum = 0.0425 (at node 0)
	maximum = 0.065 (at node 10)
Injected flit rate average = 0.0519063
	minimum = 0.043 (at node 5)
	maximum = 0.062 (at node 14)
Accepted flit rate average= 0.052
	minimum = 0.0425 (at node 0)
	maximum = 0.065 (at node 10)
Injected packet length average = 1
Accepted packet length average = 1
Total in-flight flits = 20 (20 measured)
latency change    = 0.00517532
throughput change = 0.0348558
Class 0:
Packet latency average = 19.7106
	minimum = 7
	maximum = 44
Network latency average = 19.7106
	minimum = 7
	maximum = 44
Slowest packet = 24195
Flit latency average = 19.7287
	minimum = 7
	maximum = 44
Slowest flit = 24195
Fragmentation average = 0
	minimum = 0
	maximum = 0
Injected packet rate average = 0.0524792
	minimum = 0.043 (at node 5)
	maximum = 0.0606667 (at node 14)
Accepted packet rate average = 0.0526042
	minimum = 0.0446667 (at node 0)
	maximum = 0.0603333 (at node 10)
Injected flit rate average = 0.0524792
	minimum = 0.043 (at node 5)
	maximum = 0.0606667 (at node 14)
Accepted flit rate average= 0.0526042
	minimum = 0.0446667 (at node 0)
	maximum = 0.0603333 (at node 10)
Injected packet length average = 1
Accepted packet length average = 1
Total in-flight flits = 17 (17 measured)
latency change    = 0.0089394
throughput change = 0.0114851
Draining all recorded packets ...
Draining remaining packets ...
Time taken is 6047 cycles
Class 0:
Packet latency average = 19.8095
	minimum = 7
	maximum = 41
Network latency average = 19.8095
	minimum = 7
	maximum = 41
Slowest packet = 25263
Flit latency average = 19.8095
	minimum = 7
	maximum = 41
Slowest flit = 25263
Fragmentation average = 0
	minimum = 0
	maximum = 0
Injected packet rate average = 0.049875
	minimum = 0.04 (at node 2)
	maximum = 0.075 (at node 13)
Accepted packet rate average = 0.0485625
	minimum = 0.035 (at node 13)
	maximum = 0.06 (at node 0)
Injected flit rate average = 0.049875
	minimum = 0.04 (at node 2)
	maximum = 0.075 (at node 13)
Accepted flit rate average= 0.0485625
	minimum = 0.035 (at node 13)
	maximum = 0.06 (at node 0)
Injected packet length average = 1
Accepted packet length average = 1
Total in-flight flits = 21 (0 measured)
latency change    = 1
throughput change = 1
Class 0:
Packet latency average = 19.8939
	minimum = 7
	maximum = 41
Network latency average = 19.8939
	minimum = 7
	maximum = 41
Slowest packet = 25263
Flit latency average = 19.8939
	minimum = 7
	maximum = 41
Slowest flit = 25263
Fragmentation average = 0
	minimum = 0
	maximum = 0
Injected packet rate average = 0.0498125
	minimum = 0.0415 (at node 5)
	maximum = 0.061 (at node 13)
Accepted packet rate average = 0.0494687
	minimum = 0.043 (at node 13)
	maximum = 0.0555 (at node 0)
Injected flit rate average = 0.0498125
	minimum = 0.0415 (at node 5)
	maximum = 0.061 (at node 13)
Accepted flit rate average= 0.0494687
	minimum = 0.043 (at node 13)
	maximum = 0.0555 (at node 0)
Injected packet length average = 1
Accepted packet length average = 1
Total in-flight flits = 11 (0 measured)
latency change    = 0.00423993
throughput change = 0.0183196
Class 0:
Packet latency average = 19.293
	minimum = 7
	maximum = 46
Network latency average = 19.293
	minimum = 7
	maximum = 46
Slowest packet = 27317
Flit latency average = 19.293
	minimum = 7
	maximum = 46
Slowest flit = 27317
Fragmentation average = 0
	minimum = 0
	maximum = 0
Injected packet rate average = 0.05125
	minimum = 0.04 (at node 13)
	maximum = 0.065 (at node 8)
Accepted packet rate average = 0.0511875
	minimum = 0.037 (at node 2)
	maximum = 0.062 (at node 9)
Injected flit rate average = 0.05125
	minimum = 0.04 (at node 13)
	maximum = 0.065 (at node 8)
Accepted flit rate average= 0.0511875
	minimum = 0.037 (at node 2)
	maximum = 0.062 (at node 9)
Injected packet length average = 1
Accepted packet length average = 1
Total in-flight flits = 12 (0 measured)
latency change    = 0.0311424
throughput change = 0.0335775
Warmed up ...Time used is 3000 cycles
Class 0:
Packet latency average = 20.0268
	minimum = 7
	maximum = 40
Network latency average = 20.0268
	minimum = 7
	maximum = 40
Slowest packet = 28207
Flit latency average = 20.0577
	minimum = 7
	maximum = 40
Slowest flit = 28207
Fragmentation average = 0
	minimum = 0
	maximum = 0
Injected packet rate average = 0.05025
	minimum = 0.036 (at node 9)
	maximum = 0.066 (at node 11)
Accepted packet rate average = 0.0498125
	minimum = 0.037 (at node 10)
	maximum = 0.062 (at node 4)
Injected flit rate average = 0.05025
	minimum = 0.036 (at node 9)
	maximum = 0.066 (at node 11)
Accepted flit rate average= 0.0498125
	minimum = 0.037 (at node 10)
	maximum = 0.062 (at node 4)
Injected packet length average = 1
Accepted packet length average = 1
Total in-flight flits = 19 (19 measured)
latency change    = 0.0366366
throughput change = 0.0276035
Class 0:
Packet latency average = 19.9278
	minimum = 7
	maximum = 42
Network latency average = 19.9278
	minimum = 7
	maximum = 42
Slowest packet = 28422
Flit latency average = 19.9439
	minimum = 7
	maximum = 42
Slowest flit = 28422
Fragmentation average = 0
	minimum = 0
	maximum = 0
Injected packet rate average = 0.05025
	minimum = 0.0425 (at node 15)
	maximum = 0.06 (at node 8)
Accepted packet rate average = 0.050125
	minimum = 0.0425 (at node 1)
	maximum = 0.0705 (at node 4)
Injected flit rate average = 0.05025
	minimum = 0.0425 (at node 15)
	maximum = 0.06 (at node 8)
Accepted flit rate average= 0.050125
	minimum = 0.0425 (at node 1)
	maximum = 0.0705 (at node 4)
Injected packet length average = 1
Accepted packet length average = 1
Total in-flight flits = 16 (16 measured)
latency change    = 0.00496733
throughput change = 0.00623441
Class 0:
Packet latency average = 19.7905
	minimum = 7
	maximum = 42
Network latency average = 19.7901
	minimum = 7
	maximum = 42
Slowest packet = 28422
Flit latency average = 19.8017
	minimum = 7
	maximum = 42
Slowest flit = 28422
Fragmentation average = 0
	minimum = 0
	maximum = 0
Injected packet rate average = 0.0493958
	minimum = 0.0433333 (at node 6)
	maximum = 0.057 (at node 8)
Accepted packet rate average = 0.049375
	minimum = 0.042 (at node 10)
	maximum = 0.062 (at node 4)
Injected flit rate average = 0.0493958
	minimum = 0.0433333 (at node 6)
	maximum = 0.057 (at node 8)
Accepted flit rate average= 0.049375
	minimum = 0.042 (at node 10)
	maximum = 0.062 (at node 4)
Injected packet length average = 1
Accepted packet length average = 1
Total in-flight flits = 13 (13 measured)
latency change    = 0.00693582
throughput change = 0.0151899
Draining all recorded packets ...
Draining remaining packets ...
Time taken is 6038 cycles
Class 0:
Packet latency average = 19.8573
	minimum = 7
	maximum = 39
Network latency average = 19.8573
	minimum = 7
	maximum = 39
Slowest packet = 30533
Flit latency average = 19.8573
	minimum = 7
	maximum = 39
Slowest flit = 30533
Fragmentation average = 0
	minimum = 0
	maximum = 0
Injected packet rate average = 0.0490625
	minimum = 0.041 (at node 4)
	maximum = 0.06 (at node 1)
Accepted packet rate average = 0.0481875
	minimum = 0.038 (at node 5)
	maximum = 0.062 (at node 3)
Injected flit rate average = 0.0490625
	minimum = 0.041 (at node 4)
	maximum = 0.06 (at node 1)
Accepted flit rate average= 0.0481875
	minimum = 0.038 (at node 5)
	maximum = 0.062 (at node 3)
Injected packet length average = 1
Accepted packet length average = 1
Total in-flight flits = 14 (0 measured)
latency change    = 1
throughput change = 1
Class 0:
Packet latency average = 19.6554
	minimum = 7
	maximum = 42
Network latency average = 19.6554
	minimum = 7
	maximum = 42
Slowest packet = 30957
Flit latency average = 19.6554
	minimum = 7
	maximum = 42
Slowest flit = 30957
Fragmentation average = 0
	minimum = 0
	maximum = 0
Injected packet rate average = 0.0495312
	minimum = 0.0385 (at node 2)
	maximum = 0.06 (at node 11)
Accepted packet rate average = 0.048875
	minimum = 0.0415 (at node 1)
	maximum = 0.058 (at node 9)
Injected flit rate average = 0.0495312
	minimum = 0.0385 (at node 2)
	maximum = 0.06 (at node 11)
Accepted flit rate average= 0.048875
	minimum = 0.0415 (at node 1)
	maximum = 0.058 (at node 9)
Injected packet length average = 1
Accepted packet length average = 1
Total in-flight flits = 21 (0 measured)
latency change    = 0.0102749
throughput change = 0.0140665
Class 0:
Packet latency average = 19.6345
	minimum = 7
	maximum = 37
Network latency average = 19.6345
	minimum = 7
	maximum = 37
Slowest packet = 31421
Flit latency average = 19.6345
	minimum = 7
	maximum = 37
Slowest flit = 31421
Fragmentation average = 0
	minimum = 0
	maximum = 0
Injected packet rate average = 0.046625
	minimum = 0.035 (at node 7)
	maximum = 0.056 (at node 8)
Accepted packet rate average = 0.0466875
	minimum = 0.037 (at node 9)
	maximum = 0.062 (at node 3)
Injected flit rate average = 0.046625
	minimum = 0.035 (at node 7)
	maximum = 0.056 (at node 8)
Accepted flit rate average= 0.0466875
	minimum = 0.037 (at node 9)
	maximum = 0.062 (at node 3)
Injected packet length average = 1
Accepted packet length average = 1
Total in-flight flits = 20 (0 measured)
latency change    = 0.00106102
throughput change = 0.0468541
Warmed up ...Time used is 3000 cycles
Class 0:
Packet latency average = 20.115
	minimum = 7
	maximum = 46
Network latency average = 20.115
	minimum = 7
	maximum = 46
Slowest packet = 32508
Flit latency average = 20.2116
	minimum = 7
	maximum = 46
Slowest flit = 32508
Fragmentation average = 0
	minimum = 0
	maximum = 0
Injected packet rate average = 0.0493125
	minimum = 0.035 (at node 6)
	maximum = 0.06 (at node 2)
Accepted packet rate average = 0.049625
	minimum = 0.039 (at node 5)
	maximum = 0.064 (at node 1)
Injected flit rate average = 0.0493125
	minimum = 0.035 (at node 6)
	maximum = 0.06 (at node 2)
Accepted flit rate average= 0.049625
	minimum = 0.039 (at node 5)
	maximum = 0.064 (at node 1)
Injected packet length average = 1
Accepted packet length average = 1
Total in-flight flits = 15 (15 measured)
latency change    = 0.0238851
throughput change = 0.059194
Class 0:
Packet latency average = 20.0057
	minimum = 7
	maximum = 46
Network latency average = 20.0057
	minimum = 7
	maximum = 46
Slowest packet = 32508
Flit latency average = 20.0547
	minimum = 7
	maximum = 46
Slowest flit = 32508
Fragmentation average = 0
	minimum = 0
	maximum = 0
Injected packet rate average = 0.0502812
	minimum = 0.0365 (at node 6)
	maximum = 0.0595 (at node 4)
Accepted packet rate average = 0.05025
	minimum = 0.043 (at node 9)
	maximum = 0.0585 (at node 1)
Injected flit rate average = 0.0502812
	minimum = 0.0365 (at node 6)
	maximum = 0.0595 (at node 4)
Accepted flit rate average= 0.05025
	minimum = 0.043 (at node 9)
	maximum = 0.0585 (at node 1)
Injected packet length average = 1
Accepted packet length average = 1
Total in-flight flits = 21 (21 measured)
latency change    = 0.00546443
throughput change = 0.0124378
Class 0:
Packet latency average = 20.0815
	minimum = 7
	maximum = 46
Network latency average = 20.0815
	minimum = 7
	maximum = 46
Slowest packet = 32508
Flit latency average = 20.114
	minimum = 7
	maximum = 46
Slowest flit = 32508
Fragmentation average = 0
	minimum = 0
	maximum = 0
Injected packet rate average = 0.049375
	minimum = 0.0403333 (at node 6)
	maximum = 0.0566667 (at node 4)
Accepted packet rate average = 0.0495208
	minimum = 0.0413333 (at node 9)
	maximum = 0.057 (at node 11)
Injected flit rate average = 0.049375
	minimum = 0.0403333 (at node 6)
	maximum = 0.0566667 (at node 4)
Accepted flit rate average= 0.0495208
	minimum = 0.0413333 (at node 9)
	maximum = 0.057 (at node 11)
Injected packet length average = 1
Accepted packet length average = 1
Total in-flight flits = 13 (13 measured)
latency change    = 0.00377423
throughput change = 0.0147244
Class 0:
Packet latency average = 20.0403
	minimum = 7
	maximum = 46
Network latency average = 20.0403
	minimum = 7
	maximum = 46
Slowest packet = 32508
Flit latency average = 20.0646
	minimum = 7
	maximum = 46
Slowest flit = 32508
Fragmentation average = 0
	minimum = 0
	maximum = 0
Injected packet rate average = 0.0501875
	minimum = 0.04225 (at node 6)
	maximum = 0.05575 (at node 4)
Accepted packet rate average = 0.0502969
	minimum = 0.04425 (at node 4)
	maximum = 0.0585 (at node 12)
Injected flit rate average = 0.0501875
	minimum = 0.04225 (at node 6)
	maximum = 0.05575 (at node 4)
Accepted flit rate average= 0.0502969
	minimum = 0.04425 (at node 4)
	maximum = 0.0585 (at node 12)
Injected packet length average = 1
Accepted packet length average = 1
Total in-flight flits = 13 (13 measured)
latency change    = 0.00205258
throughput change = 0.0154292
Draining all recorded packets ...
Draining remaining packets ...
Time taken is 7053 cycles
Class 0:
Packet latency average = 20.0641
	minimum = 7
	maximum = 37
Network latency average = 20.0641
	minimum = 7
	maximum = 37
Slowest packet = 35716
Flit latency average = 20.0641
	minimum = 7
	maximum = 37
Slowest flit = 35716
Fragmentation average = 0
	minimum = 0
	maximum = 0
Injected packet rate average = 0.0506875
	minimum = 0.039 (at node 13)
	maximum = 0.061 (at node 6)
Accepted packet rate average = 0.04975
	minimum = 0.036 (at node 9)
	maximum = 0.059 (at node 6)
Injected flit rate average = 0.0506875
	minimum = 0.039 (at node 13)
	maximum = 0.061 (at node 6)
Accepted flit rate average= 0.04975
	minimum = 0.036 (at node 9)
	maximum = 0.059 (at node 6)
Injected packet length average = 1
Accepted packet length average = 1
Total in-flight flits = 15 (0 measured)
latency change    = 1
throughput change = 1
Class 0:
Packet latency average = 20.0063
	minimum = 7
	maximum = 40
Network latency average = 20.0063
	minimum = 7
	maximum = 40
Slowest packet = 36824
Flit latency average = 20.0063
	minimum = 7
	maximum = 40
Slowest flit = 36824
Fragmentation average = 0
	minimum = 0
	maximum = 0
Injected packet rate average = 0.0500312
	minimum = 0.043 (at node 15)
	maximum = 0.0575 (at node 0)
Accepted packet rate average = 0.0494687
	minimum = 0.041 (at node 4)
	maximum = 0.0585 (at node 13)
Injected flit rate average = 0.0500312
	minimum = 0.043 (at node 15)
	maximum = 0.0575 (at node 0)
Accepted flit rate average= 0.0494687
	minimum = 0.041 (at node 4)
	maximum = 0.0585 (at node 13)
Injected packet length average = 1
Accepted packet length average = 1
Total in-flight flits = 18 (0 measured)
latency change    = 0.00288675
throughput change = 0.00568541
Class 0:
Packet latency average = 19.8619
	minimum = 7
	maximum = 41
Network latency average = 19.8619
	minimum = 7
	maximum = 41
Slowest packet = 37194
Flit latency average = 19.8619
	minimum = 7
	maximum = 41
Slowest flit = 37194
Fragmentation average = 0
	minimum = 0
	maximum = 0
Injected packet rate average = 0.0494375
	minimum = 0.038 (at node 4)
	maximum = 0.06 (at node 12)
Accepted packet rate average = 0.0493125
	minimum = 0.039 (at node 4)
	maximum = 0.057 (at node 2)
Injected flit rate average = 0.0494375
	minimum = 0.038 (at node 4)
	maximum = 0.06 (at node 12)
Accepted flit rate average= 0.0493125
	minimum = 0.039 (at node 4)
	maximum = 0.057 (at node 2)
Injected packet length average = 1
Accepted packet length average = 1
Total in-flight flits = 20 (0 measured)
latency change    = 0.00727358
throughput change = 0.00316857
Warmed up ...Time used is 3000 cycles
Class 0:
Packet latency average = 19.5175
	minimum = 7
	maximum = 39
Network latency average = 19.5175
	minimum = 7
	maximum = 39
Slowest packet = 38594
Flit latency average = 19.6083
	minimum = 7
	maximum = 39
Slowest flit = 37804
Fragmentation average = 0
	minimum = 0
	maximum = 0
Injected packet rate average = 0.0510625
	minimum = 0.044 (at node 6)
	maximum = 0.059 (at node 0)
Accepted packet rate average = 0.051375
	minimum = 0.034 (at node 10)
	maximum = 0.061 (at node 9)
Injected flit rate average = 0.0510625
	minimum = 0.044 (at node 6)
	maximum = 0.059 (at node 0)
Accepted flit rate average= 0.051375
	minimum = 0.034 (at node 10)
	maximum = 0.061 (at node 9)
Injected packet length average = 1
Accepted packet length average = 1
Total in-flight flits = 15 (15 measured)
latency change    = 0.0176454
throughput change = 0.040146
Class 0:
Packet latency average = 19.3899
	minimum = 7
	maximum = 39
Network latency average = 19.3899
	minimum = 7
	maximum = 39
Slowest packet = 38594
Flit latency average = 19.4386
	minimum = 7
	maximum = 39
Slowest flit = 37804
Fragmentation average = 0
	minimum = 0
	maximum = 0
Injected packet rate average = 0.049375
	minimum = 0.041 (at node 15)
	maximum = 0.0575 (at node 5)
Accepted packet rate average = 0.0495937
	minimum = 0.043 (at node 10)
	maximum = 0.053 (at node 7)
Injected flit rate average = 0.049375
	minimum = 0.041 (at node 15)
	maximum = 0.0575 (at node 5)
Accepted flit rate average= 0.0495937
	minimum = 0.043 (at node 10)
	maximum = 0.053 (at node 7)
Injected packet length average = 1
Accepted packet length average = 1
Total in-flight flits = 13 (13 measured)
latency change    = 0.00657761
throughput change = 0.0359168
Class 0:
Packet latency average = 19.5652
	minimum = 7
	maximum = 41
Network latency average = 19.5652
	minimum = 7
	maximum = 41
Slowest packet = 39476
Flit latency average = 19.5956
	minimum = 7
	maximum = 41
Slowest flit = 39476
Fragmentation average = 0
	minimum = 0
	maximum = 0
Injected packet rate average = 0.0504375
	minimum = 0.041 (at node 14)
	maximum = 0.0583333 (at node 5)
Accepted packet rate average = 0.0504375
	minimum = 0.0426667 (at node 5)
	maximum = 0.0583333 (at node 4)
Injected flit rate average = 0.0504375
	minimum = 0.041 (at node 14)
	maximum = 0.0583333 (at node 5)
Accepted flit rate average= 0.0504375
	minimum = 0.0426667 (at node 5)
	maximum = 0.0583333 (at node 4)
Injected packet length average = 1
Accepted packet length average = 1
Total in-flight flits = 20 (20 measured)
latency change    = 0.00895796
throughput change = 0.0167286
Draining all recorded packets ...
Draining remaining packets ...
Time taken is 6062 cycles
Class 0:
Packet latency average = 19.7094
	minimum = 7
	maximum = 45
Network latency average = 19.7094
	minimum = 7
	maximum = 45
Slowest packet = 40804
Flit latency average = 19.7094
	minimum = 7
	maximum = 45
Slowest flit = 40804
Fragmentation average = 0
	minimum = 0
	maximum = 0
Injected packet rate average = 0.0520625
	minimum = 0.039 (at node 10)
	maximum = 0.061 (at node 4)
Accepted packet rate average = 0.05075
	minimum = 0.039 (at node 6)
	maximum = 0.065 (at node 10)
Injected flit rate average = 0.0520625
	minimum = 0.039 (at node 10)
	maximum = 0.061 (at node 4)
Accepted flit rate average= 0.05075
	minimum = 0.039 (at node 6)
	maximum = 0.065 (at node 10)
Injected packet length average = 1
Accepted packet length average = 1
Total in-flight flits = 21 (0 measured)
latency change    = 1
throughput change = 1
Class 0:
Packet latency average = 19.7478
	minimum = 7
	maximum = 46
Network latency average = 19.7478
	minimum = 7
	maximum = 46
Slowest packet = 41109
Flit latency average = 19.7478
	minimum = 7
	maximum = 46
Slowest flit = 41109
Fragmentation average = 0
	minimum = 0
	maximum = 0
Injected packet rate average = 0.0509688
	minimum = 0.0435 (at node 12)
	maximum = 0.0565 (at node 5)
Accepted packet rate average = 0.0501875
	minimum = 0.041 (at node 6)
	maximum = 0.0615 (at node 10)
Injected flit rate average = 0.0509688
	minimum = 0.0435 (at node 12)
	maximum = 0.0565 (at node 5)
Accepted flit rate average= 0.0501875
	minimum = 0.041 (at node 6)
	maximum = 0.0615 (at node 10)
Injected packet length average = 1
Accepted packet length average = 1
Total in-flight flits = 25 (0 measured)
latency change    = 0.00194761
throughput change = 0.011208
Class 0:
Packet latency average = 19.5767
	minimum = 7
	maximum = 37
Network latency average = 19.5767
	minimum = 7
	maximum = 37
Slowest packet = 41935
Flit latency average = 19.5767
	minimum = 7
	maximum = 37
Slowest flit = 41935
Fragmentation average = 0
	minimum = 0
	maximum = 0
Injected packet rate average = 0.0486875
	minimum = 0.036 (at node 3)
	maximum = 0.065 (at node 13)
Accepted packet rate average = 0.0493125
	minimum = 0.034 (at node 5)
	maximum = 0.06 (at node 10)
Injected flit rate average = 0.0486875
	minimum = 0.036 (at node 3)
	maximum = 0.065 (at node 13)
Accepted flit rate average= 0.0493125
	minimum = 0.034 (at node 5)
	maximum = 0.06 (at node 10)
Injected packet length average = 1
Accepted packet length average = 1
Total in-flight flits = 15 (0 measured)
latency change    = 0.0087421
throughput change = 0.017744
Warmed up ...Time used is 3000 cycles
Class 0:
Packet latency average = 19.7959
	minimum = 7
	maximum = 46
Network latency average = 19.7959
	minimum = 7
	maximum = 46
Slowest packet = 42916
Flit latency average = 19.8766
	minimum = 7
	maximum = 46
Slowest flit = 42916
Fragmentation average = 0
	minimum = 0
	maximum = 0
Injected packet rate average = 0.0500625
	minimum = 0.037 (at node 10)
	maximum = 0.06 (at node 0)
Accepted packet rate average = 0.049625
	minimum = 0.029 (at node 3)
	maximum = 0.065 (at node 11)
Injected flit rate average = 0.0500625
	minimum = 0.037 (at node 10)
	maximum = 0.06 (at node 0)
Accepted flit rate average= 0.049625
	minimum = 0.029 (at node 3)
	maximum = 0.065 (at node 11)
Injected packet length average = 1
Accepted packet length average = 1
Total in-flight flits = 22 (22 measured)
latency change    = 0.0110737
throughput change = 0.00629723
Class 0:
Packet latency average = 19.597
	minimum = 7
	maximum = 46
Network latency average = 19.597
	minimum = 7
	maximum = 46
Slowest packet = 42916
Flit latency average = 19.6388
	minimum = 7
	maximum = 46
Slowest flit = 42916
Fragmentation average = 0
	minimum = 0
	maximum = 0
Injected packet rate average = 0.0499375
	minimum = 0.0405 (at node 10)
	maximum = 0.056 (at node 0)
Accepted packet rate average = 0.0500937
	minimum = 0.039 (at node 3)
	maximum = 0.0655 (at node 11)
Injected flit rate average = 0.0499375
	minimum = 0.0405 (at node 10)
	maximum = 0.056 (at node 0)
Accepted flit rate average= 0.0500937
	minimum = 0.039 (at node 3)
	maximum = 0.0655 (at node 11)
Injected packet length average = 1
Accepted packet length average = 1
Total in-flight flits = 10 (10 measured)
latency change    = 0.0101503
throughput change = 0.00935745
Class 0:
Packet latency average = 19.7181
	minimum = 7
	maximum = 46
Network latency average = 19.7181
	minimum = 7
	maximum = 46
Slowest packet = 42916
Flit latency average = 19.745
	minimum = 7
	maximum = 46
Slowest flit = 42916
Fragmentation average = 0
	minimum = 0
	maximum = 0
Injected packet rate average = 0.0506458
	minimum = 0.0453333 (at node 10)
	maximum = 0.0553333 (at node 13)
Accepted packet rate average = 0.0506458
	minimum = 0.0423333 (at node 3)
	maximum = 0.065 (at node 11)
Injected flit rate average = 0.0506458
	minimum = 0.0453333 (at node 10)
	maximum = 0.0553333 (at node 13)
Accepted flit rate average= 0.0506458
	minimum = 0.0423333 (at node 3)
	maximum = 0.065 (at node 11)
Injected packet length average = 1
Accepted packet length average = 1
Total in-flight flits = 15 (15 measured)
latency change    = 0.00614418
throughput change = 0.0109009
Draining all recorded packets ...
Draining remaining packets ...
Time taken is 6054 cycles
Class 0:
Packet latency average = 19.4117
	minimum = 7
	maximum = 38
Network latency average = 19.4117
	minimum = 7
	maximum = 38
Slowest packet = 45287
Flit latency average = 19.4117
	minimum = 7
	maximum = 38
Slowest flit = 45287
Fragmentation average = 0
	minimum = 0
	maximum = 0
Injected packet rate average = 0.0514375
	minimum = 0.043 (at node 8)
	maximum = 0.063 (at node 13)
Accepted packet rate average = 0.05025
	minimum = 0.034 (at node 3)
	maximum = 0.072 (at node 5)
Injected flit rate average = 0.0514375
	minimum = 0.043 (at node 8)
	maximum = 0.063 (at node 13)
Accepted flit rate average= 0.05025
	minimum = 0.034 (at node 3)
	maximum = 0.072 (at node 5)
Injected packet length average = 1
Accepted packet length average = 1
Total in-flight flits = 19 (0 measured)
latency change    = 1
throughput change = 1
Class 0:
Packet latency average = 19.5712
	minimum = 7
	maximum = 39
Network latency average = 19.5712
	minimum = 7
	maximum = 39
Slowest packet = 46579
Flit latency average = 19.5712
	minimum = 7
	maximum = 39
Slowest flit = 46579
Fragmentation average = 0
	minimum = 0
	maximum = 0
Injected packet rate average = 0.0496875
	minimum = 0.0435 (at node 7)
	maximum = 0.0555 (at node 13)
Accepted packet rate average = 0.0491875
	minimum = 0.04 (at node 6)
	maximum = 0.0665 (at node 5)
Injected flit rate average = 0.0496875
	minimum = 0.0435 (at node 7)
	maximum = 0.0555 (at node 13)
Accepted flit rate average= 0.0491875
	minimum = 0.04 (at node 6)
	maximum = 0.0665 (at node 5)
Injected packet length average = 1
Accepted packet length average = 1
Total in-flight flits = 16 (0 measured)
latency change    = 0.00814795
throughput change = 0.021601
Class 0:
Packet latency average = 19.5126
	minimum = 7
	maximum = 43
Network latency average = 19.5126
	minimum = 7
	maximum = 43
Slowest packet = 46830
Flit latency average = 19.5126
	minimum = 7
	maximum = 43
Slowest flit = 46830
Fragmentation average = 0
	minimum = 0
	maximum = 0
Injected packet rate average = 0.0498125
	minimum = 0.04 (at node 8)
	maximum = 0.06 (at node 3)
Accepted packet rate average = 0.0495
	minimum = 0.035 (at node 7)
	maximum = 0.06 (at node 14)
Injected flit rate average = 0.0498125
	minimum = 0.04 (at node 8)
	maximum = 0.06 (at node 3)
Accepted flit rate average= 0.0495
	minimum = 0.035 (at node 7)
	maximum = 0.06 (at node 14)
Injected packet length average = 1
Accepted packet length average = 1
Total in-flight flits = 21 (0 measured)
latency change    = 0.0029996
throughput change = 0.00631313
Warmed up ...Time used is 3000 cycles
Class 0:
Packet latency average = 19.4979
	minimum = 7
	maximum = 40
Network latency average = 19.4979
	minimum = 7
	maximum = 40
Slowest packet = 47542
Flit latency average = 19.6747
	minimum = 7
	maximum = 40
Slowest flit = 47542
Fragmentation average = 0
	minimum = 0
	maximum = 0
Injected packet rate average = 0.0465625
	minimum = 0.035 (at node 10)
	maximum = 0.06 (at node 1)
Accepted packet rate average = 0.0465
	minimum = 0.035 (at node 11)
	maximum = 0.061 (at node 15)
Injected flit rate average = 0.0465625
	minimum = 0.035 (at node 10)
	maximum = 0.06 (at node 1)
Accepted flit rate average= 0.0465
	minimum = 0.035 (at node 11)
	maximum = 0.061 (at node 15)
Injected packet length average = 1
Accepted packet length average = 1
Total in-flight flits = 22 (22 measured)
latency change    = 0.000753975
throughput change = 0.0645161
Class 0:
Packet latency average = 19.5055
	minimum = 7
	maximum = 40
Network latency average = 19.5055
	minimum = 7
	maximum = 40
Slowest packet = 47542
Flit latency average = 19.5889
	minimum = 7
	maximum = 40
Slowest flit = 47542
Fragmentation average = 0
	minimum = 0
	maximum = 0
Injected packet rate average = 0.0489062
	minimum = 0.0375 (at node 13)
	maximum = 0.0605 (at node 1)
Accepted packet rate average = 0.0491875
	minimum = 0.042 (at node 14)
	maximum = 0.0625 (at node 12)
Injected flit rate average = 0.0489062
	minimum = 0.0375 (at node 13)
	maximum = 0.0605 (at node 1)
Accepted flit rate average= 0.0491875
	minimum = 0.042 (at node 14)
	maximum = 0.0625 (at node 12)
Injected packet length average = 1
Accepted packet length average = 1
Total in-flight flits = 12 (12 measured)
latency change    = 0.000386967
throughput change = 0.0546379
Class 0:
Packet latency average = 19.5343
	minimum = 7
	maximum = 42
Network latency average = 19.5343
	minimum = 7
	maximum = 42
Slowest packet = 49200
Flit latency average = 19.5899
	minimum = 7
	maximum = 42
Slowest flit = 49200
Fragmentation average = 0
	minimum = 0
	maximum = 0
Injected packet rate average = 0.0488958
	minimum = 0.0386667 (at node 13)
	maximum = 0.0583333 (at node 1)
Accepted packet rate average = 0.0490208
	minimum = 0.041 (at node 8)
	maximum = 0.0596667 (at node 12)
Injected flit rate average = 0.0488958
	minimum = 0.0386667 (at node 13)
	maximum = 0.0583333 (at node 1)
Accepted flit rate average= 0.0490208
	minimum = 0.041 (at node 8)
	maximum = 0.0596667 (at node 12)
Injected packet length average = 1
Accepted packet length average = 1
Total in-flight flits = 15 (15 measured)
latency change    = 0.00147597
throughput change = 0.00339992
Class 0:
Packet latency average = 19.5529
	minimum = 7
	maximum = 43
Network latency average = 19.5529
	minimum = 7
	maximum = 43
Slowest packet = 50068
Flit latency average = 19.5942
	minimum = 7
	maximum = 43
Slowest flit = 50068
Fragmentation average = 0
	minimum = 0
	maximum = 0
Injected packet rate average = 0.049375
	minimum = 0.04225 (at node 13)
	maximum = 0.06075 (at node 2)
Accepted packet rate average = 0.04925
	minimum = 0.04325 (at node 8)
	maximum = 0.05925 (at node 12)
Injected flit rate average = 0.049375
	minimum = 0.04225 (at node 13)
	maximum = 0.06075 (at node 2)
Accepted flit rate average= 0.04925
	minimum = 0.04325 (at node 8)
	maximum = 0.05925 (at node 12)
Injected packet length average = 1
Accepted packet length average = 1
Total in-flight flits = 29 (29 measured)
latency change    = 0.000948874
throughput change = 0.00465313
Class 0:
Packet latency average = 19.6323
	minimum = 7
	maximum = 46
Network latency average = 19.6323
	minimum = 7
	maximum = 46
Slowest packet = 51129
Flit latency average = 19.6647
	minimum = 7
	maximum = 46
Slowest flit = 51129
Fragmentation average = 0
	minimum = 0
	maximum = 0
Injected packet rate average = 0.0495125
	minimum = 0.0414 (at node 13)
	maximum = 0.058 (at node 2)
Accepted packet rate average = 0.0495875
	minimum = 0.0444 (at node 1)
	maximum = 0.0584 (at node 12)
Injected flit rate average = 0.0495125
	minimum = 0.0414 (at node 13)
	maximum = 0.058 (at node 2)
Accepted flit rate average= 0.0495875
	minimum = 0.0444 (at node 1)
	maximum = 0.0584 (at node 12)
Injected packet length average = 1
Accepted packet length average = 1
Total in-flight flits = 15 (15 measured)
latency change    = 0.00404575
throughput change = 0.00680615
Draining all recorded packets ...
Draining remaining packets ...
Time taken is 8049 cycles
Class 0:
Packet latency average = 19.505
	minimum = 7
	maximum = 42
Network latency average = 19.5037
	minimum = 7
	maximum = 42
Slowest packet = 52070
Flit latency average = 19.5037
	minimum = 7
	maximum = 42
Slowest flit = 52070
Fragmentation average = 0
	minimum = 0
	maximum = 0
Injected packet rate average = 0.051125
	minimum = 0.039 (at node 2)
	maximum = 0.064 (at node 7)
Accepted packet rate average = 0.050125
	minimum = 0.044 (at node 4)
	maximum = 0.057 (at node 5)
Injected flit rate average = 0.051125
	minimum = 0.039 (at node 2)
	maximum = 0.064 (at node 7)
Accepted flit rate average= 0.050125
	minimum = 0.044 (at node 4)
	maximum = 0.057 (at node 5)
Injected packet length average = 1
Accepted packet length average = 1
Total in-flight flits = 16 (0 measured)
latency change    = 1
throughput change = 1
Class 0:
Packet latency average = 19.6536
	minimum = 7
	maximum = 49
Network latency average = 19.653
	minimum = 7
	maximum = 49
Slowest packet = 52817
Flit latency average = 19.653
	minimum = 7
	maximum = 49
Slowest flit = 52817
Fragmentation average = 0
	minimum = 0
	maximum = 0
Injected packet rate average = 0.0515938
	minimum = 0.0385 (at node 5)
	maximum = 0.06 (at node 9)
Accepted packet rate average = 0.0511563
	minimum = 0.0455 (at node 4)
	maximum = 0.0585 (at node 5)
Injected flit rate average = 0.0515938
	minimum = 0.0385 (at node 5)
	maximum = 0.06 (at node 9)
Accepted flit rate average= 0.0511563
	minimum = 0.0455 (at node 4)
	maximum = 0.0585 (at node 5)
Injected packet length average = 1
Accepted packet length average = 1
Total in-flight flits = 14 (0 measured)
latency change    = 0.00756334
throughput change = 0.0201588
Class 0:
Packet latency average = 19.5328
	minimum = 7
	maximum = 42
Network latency average = 19.5328
	minimum = 7
	maximum = 42
Slowest packet = 53831
Flit latency average = 19.5328
	minimum = 7
	maximum = 42
Slowest flit = 53831
Fragmentation average = 0
	minimum = 0
	maximum = 0
Injected packet rate average = 0.0505
	minimum = 0.042 (at node 5)
	maximum = 0.063 (at node 14)
Accepted packet rate average = 0.0504375
	minimum = 0.035 (at node 8)
	maximum = 0.058 (at node 3)
Injected flit rate average = 0.0505
	minimum = 0.042 (at node 5)
	maximum = 0.063 (at node 14)
Accepted flit rate average= 0.0504375
	minimum = 0.035 (at node 8)
	maximum = 0.058 (at node 3)
Injected packet length average = 1
Accepted packet length average = 1
Total in-flight flits = 15 (0 measured)
latency change    = 0.00618431
throughput change = 0.0142503
Warmed up ...Time used is 3000 cycles
Class 0:
Packet latency average = 19.8166
	minimum = 7
	maximum = 40
Network latency average = 19.8166
	minimum = 7
	maximum = 40
Slowest packet = 54544
Flit latency average = 19.8725
	minimum = 7
	maximum = 40
Slowest flit = 54544
Fragmentation average = 0
	minimum = 0
	maximum = 0
Injected packet rate average = 0.0501875
	minimum = 0.038 (at node 13)
	maximum = 0.069 (at node 8)
Accepted packet rate average = 0.05
	minimum = 0.043 (at node 6)
	maximum = 0.062 (at node 3)
Injected flit rate average = 0.0501875
	minimum = 0.038 (at node 13)
	maximum = 0.069 (at node 8)
Accepted flit rate average= 0.05
	minimum = 0.043 (at node 6)
	maximum = 0.062 (at node 3)
Injected packet length average = 1
Accepted packet length average = 1
Total in-flight flits = 18 (18 measured)
latency change    = 0.0143175
throughput change = 0.00875
Class 0:
Packet latency average = 19.8545
	minimum = 7
	maximum = 45
Network latency average = 19.8545
	minimum = 7
	maximum = 45
Slowest packet = 55375
Flit latency average = 19.8823
	minimum = 7
	maximum = 45
Slowest flit = 55375
Fragmentation average = 0
	minimum = 0
	maximum = 0
Injected packet rate average = 0.0495937
	minimum = 0.0365 (at node 13)
	maximum = 0.056 (at node 14)
Accepted packet rate average = 0.0496562
	minimum = 0.0405 (at node 6)
	maximum = 0.058 (at node 14)
Injected flit rate average = 0.0495937
	minimum = 0.0365 (at node 13)
	maximum = 0.056 (at node 14)
Accepted flit rate average= 0.0496562
	minimum = 0.0405 (at node 6)
	maximum = 0.058 (at node 14)
Injected packet length average = 1
Accepted packet length average = 1
Total in-flight flits = 13 (13 measured)
latency change    = 0.00191142
throughput change = 0.00692259
Class 0:
Packet latency average = 19.8255
	minimum = 7
	maximum = 45
Network latency average = 19.8255
	minimum = 7
	maximum = 45
Slowest packet = 55375
Flit latency average = 19.8441
	minimum = 7
	maximum = 45
Slowest flit = 55375
Fragmentation average = 0
	minimum = 0
	maximum = 0
Injected packet rate average = 0.0499375
	minimum = 0.04 (at node 13)
	maximum = 0.058 (at node 4)
Accepted packet rate average = 0.0499792
	minimum = 0.0433333 (at node 13)
	maximum = 0.056 (at node 14)
Injected flit rate average = 0.0499375
	minimum = 0.04 (at node 13)
	maximum = 0.058 (at node 4)
Accepted flit rate average= 0.0499792
	minimum = 0.0433333 (at node 13)
	maximum = 0.056 (at node 14)
Injected packet length average = 1
Accepted packet length average = 1
Total in-flight flits = 13 (13 measured)
latency change    = 0.00146314
throughput change = 0.00646103
Draining all recorded packets ...
Draining remaining packets ...
Time taken is 6050 cycles
Class 0:
Packet latency average = 20.1753
	minimum = 7
	maximum = 41
Network latency average = 20.1753
	minimum = 7
	maximum = 41
Slowest packet = 56828
Flit latency average = 20.1753
	minimum = 7
	maximum = 41
Slowest flit = 56828
Fragmentation average = 0
	minimum = 0
	maximum = 0
Injected packet rate average = 0.0495
	minimum = 0.036 (at node 13)
	maximum = 0.061 (at node 1)
Accepted packet rate average = 0.048125
	minimum = 0.037 (at node 4)
	maximum = 0.059 (at node 1)
Injected flit rate average = 0.0495
	minimum = 0.036 (at node 13)
	maximum = 0.061 (at node 1)
Accepted flit rate average= 0.048125
	minimum = 0.037 (at node 4)
	maximum = 0.059 (at node 1)
Injected packet length average = 1
Accepted packet length average = 1
Total in-flight flits = 22 (0 measured)
latency change    = 1
throughput change = 1
Class 0:
Packet latency average = 20.1229
	minimum = 7
	maximum = 41
Network latency average = 20.1229
	minimum = 7
	maximum = 41
Slowest packet = 56828
Flit latency average = 20.1229
	minimum = 7
	maximum = 41
Slowest flit = 56828
Fragmentation average = 0
	minimum = 0
	maximum = 0
Injected packet rate average = 0.0504687
	minimum = 0.0385 (at node 13)
	maximum = 0.0615 (at node 15)
Accepted packet rate average = 0.0498437
	minimum = 0.037 (at node 6)
	maximum = 0.0625 (at node 9)
Injected flit rate average = 0.0504687
	minimum = 0.0385 (at node 13)
	maximum = 0.0615 (at node 15)
Accepted flit rate average= 0.0498437
	minimum = 0.037 (at node 6)
	maximum = 0.0625 (at node 9)
Injected packet length average = 1
Accepted packet length average = 1
Total in-flight flits = 20 (0 measured)
latency change    = 0.00260602
throughput change = 0.0344828
Class 0:
Packet latency average = 19.8275
	minimum = 7
	maximum = 42
Network latency average = 19.8275
	minimum = 7
	maximum = 42
Slowest packet = 58295
Flit latency average = 19.8275
	minimum = 7
	maximum = 42
Slowest flit = 58295
Fragmentation average = 0
	minimum = 0
	maximum = 0
Injected packet rate average = 0.0485
	minimum = 0.04 (at node 12)
	maximum = 0.06 (at node 15)
Accepted packet rate average = 0.0485625
	minimum = 0.035 (at node 5)
	maximum = 0.073 (at node 3)
Injected flit rate average = 0.0485
	minimum = 0.04 (at node 12)
	maximum = 0.06 (at node 15)
Accepted flit rate average= 0.0485625
	minimum = 0.035 (at node 5)
	maximum = 0.073 (at node 3)
Injected packet length average = 1
Accepted packet length average = 1
Total in-flight flits = 19 (0 measured)
latency change    = 0.0148956
throughput change = 0.0263835
Warmed up ...Time used is 3000 cycles
Class 0:
Packet latency average = 19.7759
	minimum = 7
	maximum = 40
Network latency average = 19.7759
	minimum = 7
	maximum = 40
Slowest packet = 58861
Flit latency average = 19.7775
	minimum = 7
	maximum = 40
Slowest flit = 58861
Fragmentation average = 0
	minimum = 0
	maximum = 0
Injected packet rate average = 0.0496875
	minimum = 0.037 (at node 6)
	maximum = 0.061 (at node 15)
Accepted packet rate average = 0.05
	minimum = 0.041 (at node 0)
	maximum = 0.058 (at node 5)
Injected flit rate average = 0.0496875
	minimum = 0.037 (at node 6)
	maximum = 0.061 (at node 15)
Accepted flit rate average= 0.05
	minimum = 0.041 (at node 0)
	maximum = 0.058 (at node 5)
Injected packet length average = 1
Accepted packet length average = 1
Total in-flight flits = 14 (14 measured)
latency change    = 0.00260992
throughput change = 0.02875
Class 0:
Packet latency average = 19.7594
	minimum = 7
	maximum = 42
Network latency average = 19.7594
	minimum = 7
	maximum = 42
Slowest packet = 60253
Flit latency average = 19.7604
	minimum = 7
	maximum = 42
Slowest flit = 60253
Fragmentation average = 0
	minimum = 0
	maximum = 0
Injected packet rate average = 0.0509688
	minimum = 0.0455 (at node 2)
	maximum = 0.0615 (at node 12)
Accepted packet rate average = 0.051125
	minimum = 0.0455 (at node 0)
	maximum = 0.06 (at node 5)
Injected flit rate average = 0.0509688
	minimum = 0.0455 (at node 2)
	maximum = 0.0615 (at node 12)
Accepted flit rate average= 0.051125
	minimum = 0.0455 (at node 0)
	maximum = 0.06 (at node 5)
Injected packet length average = 1
Accepted packet length average = 1
Total in-flight flits = 14 (14 measured)
latency change    = 0.000834905
throughput change = 0.0220049
Class 0:
Packet latency average = 19.9028
	minimum = 7
	maximum = 42
Network latency average = 19.9028
	minimum = 7
	maximum = 42
Slowest packet = 60253
Flit latency average = 19.9023
	minimum = 7
	maximum = 42
Slowest flit = 60253
Fragmentation average = 0
	minimum = 0
	maximum = 0
Injected packet rate average = 0.0508333
	minimum = 0.045 (at node 10)
	maximum = 0.0596667 (at node 12)
Accepted packet rate average = 0.0509792
	minimum = 0.0453333 (at node 15)
	maximum = 0.0563333 (at node 14)
Injected flit rate average = 0.0508333
	minimum = 0.045 (at node 10)
	maximum = 0.0596667 (at node 12)
Accepted flit rate average= 0.0509792
	minimum = 0.0453333 (at node 15)
	maximum = 0.0563333 (at node 14)
Injected packet length average = 1
Accepted packet length average = 1
Total in-flight flits = 12 (12 measured)
latency change    = 0.00720349
throughput change = 0.00286065
Draining all recorded packets ...
Draining remaining packets ...
Time taken is 6046 cycles
Class 0:
Packet latency average = 19.871
	minimum = 7
	maximum = 38
Network latency average = 19.871
	minimum = 7
	maximum = 38
Slowest packet = 61912
Flit latency average = 19.871
	minimum = 7
	maximum = 38
Slowest flit = 61912
Fragmentation average = 0
	minimum = 0
	maximum = 0
Injected packet rate average = 0.05025
	minimum = 0.034 (at node 13)
	maximum = 0.063 (at node 11)
Accepted packet rate average = 0.0494375
	minimum = 0.033 (at node 15)
	maximum = 0.06 (at node 3)
Injected flit rate average = 0.05025
	minimum = 0.034 (at node 13)
	maximum = 0.063 (at node 11)
Accepted flit rate average= 0.0494375
	minimum = 0.033 (at node 15)
	maximum = 0.06 (at node 3)
Injected packet length average = 1
Accepted packet length average = 1
Total in-flight flits = 13 (0 measured)
latency change    = 1
throughput change = 1
Class 0:
Packet latency average = 19.6987
	minimum = 7
	maximum = 41
Network latency average = 19.6987
	minimum = 7
	maximum = 41
Slowest packet = 62253
Flit latency average = 19.6987
	minimum = 7
	maximum = 41
Slowest flit = 62253
Fragmentation average = 0
	minimum = 0
	maximum = 0
Injected packet rate average = 0.0505937
	minimum = 0.043 (at node 15)
	maximum = 0.058 (at node 2)
Accepted packet rate average = 0.0500937
	minimum = 0.036 (at node 15)
	maximum = 0.0615 (at node 13)
Injected flit rate average = 0.0505937
	minimum = 0.043 (at node 15)
	maximum = 0.058 (at node 2)
Accepted flit rate average= 0.0500937
	minimum = 0.036 (at node 15)
	maximum = 0.0615 (at node 13)
Injected packet length average = 1
Accepted packet length average = 1
Total in-flight flits = 16 (0 measured)
latency change    = 0.00874979
throughput change = 0.0131004
Class 0:
Packet latency average = 19.4419
	minimum = 7
	maximum = 38
Network latency average = 19.4419
	minimum = 7
	maximum = 38
Slowest packet = 63082
Flit latency average = 19.4419
	minimum = 7
	maximum = 38
Slowest flit = 63082
Fragmentation average = 0
	minimum = 0
	maximum = 0
Injected packet rate average = 0.04875
	minimum = 0.04 (at node 13)
	maximum = 0.063 (at node 8)
Accepted packet rate average = 0.0489375
	minimum = 0.032 (at node 10)
	maximum = 0.06 (at node 14)
Injected flit rate average = 0.04875
	minimum = 0.04 (at node 13)
	maximum = 0.063 (at node 8)
Accepted flit rate average= 0.0489375
	minimum = 0.032 (at node 10)
	maximum = 0.06 (at node 14)
Injected packet length average = 1
Accepted packet length average = 1
Total in-flight flits = 13 (0 measured)
latency change    = 0.0132086
throughput change = 0.0236271
Warmed up ...Time used is 3000 cycles
Class 0:
Packet latency average = 19.8311
	minimum = 7
	maximum = 48
Network latency average = 19.8311
	minimum = 7
	maximum = 48
Slowest packet = 64088
Flit latency average = 19.8954
	minimum = 7
	maximum = 48
Slowest flit = 64088
Fragmentation average = 0
	minimum = 0
	maximum = 0
Injected packet rate average = 0.048125
	minimum = 0.027 (at node 4)
	maximum = 0.061 (at node 6)
Accepted packet rate average = 0.0478125
	minimum = 0.039 (at node 11)
	maximum = 0.056 (at node 12)
Injected flit rate average = 0.048125
	minimum = 0.027 (at node 4)
	maximum = 0.061 (at node 6)
Accepted flit rate average= 0.0478125
	minimum = 0.039 (at node 11)
	maximum = 0.056 (at node 12)
Injected packet length average = 1
Accepted packet length average = 1
Total in-flight flits = 18 (18 measured)
latency change    = 0.0196271
throughput change = 0.0235294
Class 0:
Packet latency average = 19.6743
	minimum = 7
	maximum = 48
Network latency average = 19.6743
	minimum = 7
	maximum = 48
Slowest packet = 64088
Flit latency average = 19.7064
	minimum = 7
	maximum = 48
Slowest flit = 64088
Fragmentation average = 0
	minimum = 0
	maximum = 0
Injected packet rate average = 0.0498125
	minimum = 0.041 (at node 5)
	maximum = 0.063 (at node 12)
Accepted packet rate average = 0.0498125
	minimum = 0.047 (at node 9)
	maximum = 0.0555 (at node 14)
Injected flit rate average = 0.0498125
	minimum = 0.041 (at node 5)
	maximum = 0.063 (at node 12)
Accepted flit rate average= 0.0498125
	minimum = 0.047 (at node 9)
	maximum = 0.0555 (at node 14)
Injected packet length average = 1
Accepted packet length average = 1
Total in-flight flits = 13 (13 measured)
latency change    = 0.00797287
throughput change = 0.0401506
Class 0:
Packet latency average = 19.6003
	minimum = 7
	maximum = 48
Network latency average = 19.6003
	minimum = 7
	maximum = 48
Slowest packet = 64088
Flit latency average = 19.6219
	minimum = 7
	maximum = 48
Slowest flit = 64088
Fragmentation average = 0
	minimum = 0
	maximum = 0
Injected packet rate average = 0.050375
	minimum = 0.0433333 (at node 10)
	maximum = 0.057 (at node 12)
Accepted packet rate average = 0.05025
	minimum = 0.0446667 (at node 12)
	maximum = 0.0553333 (at node 6)
Injected flit rate average = 0.050375
	minimum = 0.0433333 (at node 10)
	maximum = 0.057 (at node 12)
Accepted flit rate average= 0.05025
	minimum = 0.0446667 (at node 12)
	maximum = 0.0553333 (at node 6)
Injected packet length average = 1
Accepted packet length average = 1
Total in-flight flits = 19 (19 measured)
latency change    = 0.0037758
throughput change = 0.00870647
Draining all recorded packets ...
Draining remaining packets ...
Time taken is 6062 cycles
Class 0:
Packet latency average = 19.3784
	minimum = 7
	maximum = 45
Network latency average = 19.3784
	minimum = 7
	maximum = 45
Slowest packet = 66694
Flit latency average = 19.3784
	minimum = 7
	maximum = 45
Slowest flit = 66694
Fragmentation average = 0
	minimum = 0
	maximum = 0
Injected packet rate average = 0.0509375
	minimum = 0.039 (at node 7)
	maximum = 0.06 (at node 2)
Accepted packet rate average = 0.049875
	minimum = 0.04 (at node 8)
	maximum = 0.06 (at node 6)
Injected flit rate average = 0.0509375
	minimum = 0.039 (at node 7)
	maximum = 0.06 (at node 2)
Accepted flit rate average= 0.049875
	minimum = 0.04 (at node 8)
	maximum = 0.06 (at node 6)
Injected packet length average = 1
Accepted packet length average = 1
Total in-flight flits = 17 (0 measured)
latency change    = 1
throughput change = 1
Class 0:
Packet latency average = 19.6136
	minimum = 7
	maximum = 45
Network latency average = 19.6136
	minimum = 7
	maximum = 45
Slowest packet = 66694
Flit latency average = 19.6136
	minimum = 7
	maximum = 45
Slowest flit = 66694
Fragmentation average = 0
	minimum = 0
	maximum = 0
Injected packet rate average = 0.0509375
	minimum = 0.04 (at node 5)
	maximum = 0.0595 (at node 2)
Accepted packet rate average = 0.0504687
	minimum = 0.0425 (at node 13)
	maximum = 0.057 (at node 12)
Injected flit rate average = 0.0509375
	minimum = 0.04 (at node 5)
	maximum = 0.0595 (at node 2)
Accepted flit rate average= 0.0504687
	minimum = 0.0425 (at node 13)
	maximum = 0.057 (at node 12)
Injected packet length average = 1
Accepted packet length average = 1
Total in-flight flits = 15 (0 measured)
latency change    = 0.0119905
throughput change = 0.0117647
Class 0:
Packet latency average = 20.0106
	minimum = 7
	maximum = 38
Network latency average = 20.0106
	minimum = 7
	maximum = 38
Slowest packet = 67781
Flit latency average = 20.0106
	minimum = 7
	maximum = 38
Slowest flit = 67781
Fragmentation average = 0
	minimum = 0
	maximum = 0
Injected packet rate average = 0.0531875
	minimum = 0.036 (at node 4)
	maximum = 0.073 (at node 5)
Accepted packet rate average = 0.0530625
	minimum = 0.043 (at node 0)
	maximum = 0.066 (at node 14)
Injected flit rate average = 0.0531875
	minimum = 0.036 (at node 4)
	maximum = 0.073 (at node 5)
Accepted flit rate average= 0.0530625
	minimum = 0.043 (at node 0)
	maximum = 0.066 (at node 14)
Injected packet length average = 1
Accepted packet length average = 1
Total in-flight flits = 17 (0 measured)
latency change    = 0.0198384
throughput change = 0.048881
Warmed up ...Time used is 3000 cycles
Class 0:
Packet latency average = 19.854
	minimum = 7
	maximum = 39
Network latency average = 19.854
	minimum = 7
	maximum = 39
Slowest packet = 68578
Flit latency average = 19.9279
	minimum = 7
	maximum = 39
Slowest flit = 68578
Fragmentation average = 0
	minimum = 0
	maximum = 0
Injected packet rate average = 0.0494375
	minimum = 0.041 (at node 1)
	maximum = 0.055 (at node 3)
Accepted packet rate average = 0.0494375
	minimum = 0.036 (at node 5)
	maximum = 0.07 (at node 0)
Injected flit rate average = 0.0494375
	minimum = 0.041 (at node 1)
	maximum = 0.055 (at node 3)
Accepted flit rate average= 0.0494375
	minimum = 0.036 (at node 5)
	maximum = 0.07 (at node 0)
Injected packet length average = 1
Accepted packet length average = 1
Total in-flight flits = 17 (17 measured)
latency change    = 0.00788735
throughput change = 0.0733249
Class 0:
Packet latency average = 19.6718
	minimum = 7
	maximum = 48
Network latency average = 19.6718
	minimum = 7
	maximum = 48
Slowest packet = 69336
Flit latency average = 19.711
	minimum = 7
	maximum = 48
Slowest flit = 69336
Fragmentation average = 0
	minimum = 0
	maximum = 0
Injected packet rate average = 0.0489687
	minimum = 0.04 (at node 2)
	maximum = 0.056 (at node 14)
Accepted packet rate average = 0.0490937
	minimum = 0.0385 (at node 11)
	maximum = 0.058 (at node 0)
Injected flit rate average = 0.0489687
	minimum = 0.04 (at node 2)
	maximum = 0.056 (at node 14)
Accepted flit rate average= 0.0490937
	minimum = 0.0385 (at node 11)
	maximum = 0.058 (at node 0)
Injected packet length average = 1
Accepted packet length average = 1
Total in-flight flits = 13 (13 measured)
latency change    = 0.0092615
throughput change = 0.00700191
Class 0:
Packet latency average = 19.643
	minimum = 7
	maximum = 48
Network latency average = 19.643
	minimum = 7
	maximum = 48
Slowest packet = 69336
Flit latency average = 19.6692
	minimum = 7
	maximum = 48
Slowest flit = 69336
Fragmentation average = 0
	minimum = 0
	maximum = 0
Injected packet rate average = 0.0492292
	minimum = 0.0426667 (at node 9)
	maximum = 0.0546667 (at node 1)
Accepted packet rate average = 0.0493125
	minimum = 0.0426667 (at node 5)
	maximum = 0.056 (at node 12)
Injected flit rate average = 0.0492292
	minimum = 0.0426667 (at node 9)
	maximum = 0.0546667 (at node 1)
Accepted flit rate average= 0.0493125
	minimum = 0.0426667 (at node 5)
	maximum = 0.056 (at node 12)
Injected packet length average = 1
Accepted packet length average = 1
Total in-flight flits = 13 (13 measured)
latency change    = 0.001468
throughput change = 0.00443599
Class 0:
Packet latency average = 19.5599
	minimum = 7
	maximum = 48
Network latency average = 19.5599
	minimum = 7
	maximum = 48
Slowest packet = 69336
Flit latency average = 19.5799
	minimum = 7
	maximum = 48
Slowest flit = 69336
Fragmentation average = 0
	minimum = 0
	maximum = 0
Injected packet rate average = 0.0494062
	minimum = 0.043 (at node 9)
	maximum = 0.05375 (at node 1)
Accepted packet rate average = 0.0494687
	minimum = 0.04475 (at node 5)
	maximum = 0.05475 (at node 13)
Injected flit rate average = 0.0494062
	minimum = 0.043 (at node 9)
	maximum = 0.05375 (at node 1)
Accepted flit rate average= 0.0494687
	minimum = 0.04475 (at node 5)
	maximum = 0.05475 (at node 13)
Injected packet length average = 1
Accepted packet length average = 1
Total in-flight flits = 13 (13 measured)
latency change    = 0.00424944
throughput change = 0.00315856
Draining all recorded packets ...
Draining remaining packets ...
Time taken is 7073 cycles
Class 0:
Packet latency average = 19.7262
	minimum = 7
	maximum = 42
Network latency average = 19.7262
	minimum = 7
	maximum = 42
Slowest packet = 71919
Flit latency average = 19.7262
	minimum = 7
	maximum = 42
Slowest flit = 71919
Fragmentation average = 0
	minimum = 0
	maximum = 0
Injected packet rate average = 0.04975
	minimum = 0.036 (at node 0)
	maximum = 0.066 (at node 15)
Accepted packet rate average = 0.048625
	minimum = 0.035 (at node 11)
	maximum = 0.063 (at node 4)
Injected flit rate average = 0.04975
	minimum = 0.036 (at node 0)
	maximum = 0.066 (at node 15)
Accepted flit rate average= 0.048625
	minimum = 0.035 (at node 11)
	maximum = 0.063 (at node 4)
Injected packet length average = 1
Accepted packet length average = 1
Total in-flight flits = 18 (0 measured)
latency change    = 1
throughput change = 1
Class 0:
Packet latency average = 19.7362
	minimum = 7
	maximum = 42
Network latency average = 19.7362
	minimum = 7
	maximum = 42
Slowest packet = 71919
Flit latency average = 19.7362
	minimum = 7
	maximum = 42
Slowest flit = 71919
Fragmentation average = 0
	minimum = 0
	maximum = 0
Injected packet rate average = 0.0485937
	minimum = 0.04 (at node 7)
	maximum = 0.058 (at node 15)
Accepted packet rate average = 0.0480937
	minimum = 0.035 (at node 15)
	maximum = 0.0595 (at node 4)
Injected flit rate average = 0.0485937
	minimum = 0.04 (at node 7)
	maximum = 0.058 (at node 15)
Accepted flit rate average= 0.0480937
	minimum = 0.035 (at node 15)
	maximum = 0.0595 (at node 4)
Injected packet length average = 1
Accepted packet length average = 1
Total in-flight flits = 16 (0 measured)
latency change    = 0.000505227
throughput change = 0.0110461
Class 0:
Packet latency average = 19.2153
	minimum = 7
	maximum = 41
Network latency average = 19.2153
	minimum = 7
	maximum = 41
Slowest packet = 73394
Flit latency average = 19.2153
	minimum = 7
	maximum = 41
Slowest flit = 73394
Fragmentation average = 0
	minimum = 0
	maximum = 0
Injected packet rate average = 0.0509375
	minimum = 0.041 (at node 8)
	maximum = 0.06 (at node 7)
Accepted packet rate average = 0.0508125
	minimum = 0.042 (at node 9)
[...]
	maximum = 0.0585 (at node 14)
Accepted packet rate average = 0.0507812
	minimum = 0.0405 (at node 14)
	maximum = 0.063 (at node 6)
Injected flit rate average = 0.0509063
	minimum = 0.0385 (at node 9)
	maximum = 0.0585 (at node 14)
Accepted flit rate average= 0.0507812
	minimum = 0.0405 (at node 14)
	maximum = 0.063 (at node 6)
Injected packet length average = 1
Accepted packet length average = 1
Total in-flight flits = 20 (20 measured)
latency change    = 0.00691014
throughput change = 0.0153846
Class 0:
Packet latency average = 19.6473
	minimum = 7
	maximum = 41
Network latency average = 19.6473
	minimum = 7
	maximum = 41
Slowest packet = 496827
Flit latency average = 19.6591
	minimum = 7
	maximum = 41
Slowest flit = 496827
Fragmentation average = 0
	minimum = 0
	maximum = 0
Injected packet rate average = 0.0504792
	minimum = 0.0423333 (at node 9)
	maximum = 0.0546667 (at node 6)
Accepted packet rate average = 0.0504792
	minimum = 0.0433333 (at node 14)
	maximum = 0.058 (at node 6)
Injected flit rate average = 0.0504792
	minimum = 0.0423333 (at node 9)
	maximum = 0.0546667 (at node 6)
Accepted flit rate average= 0.0504792
	minimum = 0.0433333 (at node 14)
	maximum = 0.058 (at node 6)
Injected packet length average = 1
Accepted packet length average = 1
Total in-flight flits = 16 (16 measured)
latency change    = 0.00884235
throughput change = 0.00598432
Class 0:
Packet latency average = 19.7232
	minimum = 7
	maximum = 42
Network latency average = 19.7232
	minimum = 7
	maximum = 42
Slowest packet = 499509
Flit latency average = 19.7317
	minimum = 7
	maximum = 42
Slowest flit = 499509
Fragmentation average = 0
	minimum = 0
	maximum = 0
Injected packet rate average = 0.0504531
	minimum = 0.0415 (at node 9)
	maximum = 0.0565 (at node 6)
Accepted packet rate average = 0.0504375
	minimum = 0.04375 (at node 1)
	maximum = 0.05875 (at node 12)
Injected flit rate average = 0.0504531
	minimum = 0.0415 (at node 9)
	maximum = 0.0565 (at node 6)
Accepted flit rate average= 0.0504375
	minimum = 0.04375 (at node 1)
	maximum = 0.05875 (at node 12)
Injected packet length average = 1
Accepted packet length average = 1
Total in-flight flits = 17 (17 measured)
latency change    = 0.00385062
throughput change = 0.000826105
Draining all recorded packets ...
Draining remaining packets ...
Time taken is 7057 cycles
Class 0:
Packet latency average = 19.6473
	minimum = 7
	maximum = 49
Network latency average = 19.6473
	minimum = 7
	maximum = 49
Slowest packet = 499990
Flit latency average = 19.6473
	minimum = 7
	maximum = 49
Slowest flit = 499990
Fragmentation average = 0
	minimum = 0
	maximum = 0
Injected packet rate average = 0.0493125
	minimum = 0.041 (at node 13)
	maximum = 0.059 (at node 0)
Accepted packet rate average = 0.048375
	minimum = 0.039 (at node 8)
	maximum = 0.061 (at node 12)
Injected flit rate average = 0.0493125
	minimum = 0.041 (at node 13)
	maximum = 0.059 (at node 0)
Accepted flit rate average= 0.048375
	minimum = 0.039 (at node 8)
	maximum = 0.061 (at node 12)
Injected packet length average = 1
Accepted packet length average = 1
Total in-flight flits = 15 (0 measured)
latency change    = 1
throughput change = 1
Class 0:
Packet latency average = 19.633
	minimum = 7
	maximum = 49
Network latency average = 19.633
	minimum = 7
	maximum = 49
Slowest packet = 499990
Flit latency average = 19.633
	minimum = 7
	maximum = 49
Slowest flit = 499990
Fragmentation average = 0
	minimum = 0
	maximum = 0
Injected packet rate average = 0.0495
	minimum = 0.041 (at node 15)
	maximum = 0.056 (at node 0)
Accepted packet rate average = 0.049125
	minimum = 0.045 (at node 9)
	maximum = 0.058 (at node 11)
Injected flit rate average = 0.0495
	minimum = 0.041 (at node 15)
	maximum = 0.056 (at node 0)
Accepted flit rate average= 0.049125
	minimum = 0.045 (at node 9)
	maximum = 0.058 (at node 11)
Injected packet length average = 1
Accepted packet length average = 1
Total in-flight flits = 12 (0 measured)
latency change    = 0.000730159
throughput change = 0.0152672
Class 0:
Packet latency average = 19.5093
	minimum = 7
	maximum = 39
Network latency average = 19.5081
	minimum = 7
	maximum = 39
Slowest packet = 501596
Flit latency average = 19.5081
	minimum = 7
	maximum = 39
Slowest flit = 501596
Fragmentation average = 0
	minimum = 0
	maximum = 0
Injected packet rate average = 0.05
	minimum = 0.036 (at node 7)
	maximum = 0.064 (at node 0)
Accepted packet rate average = 0.0501875
	minimum = 0.04 (at node 7)
	maximum = 0.061 (at node 5)
Injected flit rate average = 0.05
	minimum = 0.036 (at node 7)
	maximum = 0.064 (at node 0)
Accepted flit rate average= 0.0501875
	minimum = 0.04 (at node 7)
	maximum = 0.061 (at node 5)
Injected packet length average = 1
Accepted packet length average = 1
Total in-flight flits = 9 (0 measured)
latency change    = 0.00633603
throughput change = 0.0211706
Warmed up ...Time used is 3000 cycles
Class 0:
Packet latency average = 19.867
	minimum = 7
	maximum = 50
Network latency average = 19.867
	minimum = 7
	maximum = 50
Slowest packet = 502340
Flit latency average = 19.866
	minimum = 7
	maximum = 50
Slowest flit = 502340
Fragmentation average = 0
	minimum = 0
	maximum = 0
Injected packet rate average = 0.046875
	minimum = 0.037 (at node 15)
	maximum = 0.056 (at node 6)
Accepted packet rate average = 0.046625
	minimum = 0.036 (at node 9)
	maximum = 0.06 (at node 12)
Injected flit rate average = 0.046875
	minimum = 0.037 (at node 15)
	maximum = 0.056 (at node 6)
Accepted flit rate average= 0.046625
	minimum = 0.036 (at node 9)
	maximum = 0.06 (at node 12)
Injected packet length average = 1
Accepted packet length average = 1
Total in-flight flits = 13 (13 measured)
latency change    = 0.0180041
throughput change = 0.0764075
Class 0:
Packet latency average = 20.0461
	minimum = 7
	maximum = 50
Network latency average = 20.0461
	minimum = 7
	maximum = 50
Slowest packet = 502340
Flit latency average = 20.0445
	minimum = 7
	maximum = 50
Slowest flit = 502340
Fragmentation average = 0
	minimum = 0
	maximum = 0
Injected packet rate average = 0.0480937
	minimum = 0.0435 (at node 0)
	maximum = 0.057 (at node 1)
Accepted packet rate average = 0.0477812
	minimum = 0.04 (at node 2)
	maximum = 0.0565 (at node 7)
Injected flit rate average = 0.0480937
	minimum = 0.0435 (at node 0)
	maximum = 0.057 (at node 1)
Accepted flit rate average= 0.0477812
	minimum = 0.04 (at node 2)
	maximum = 0.0565 (at node 7)
Injected packet length average = 1
Accepted packet length average = 1
Total in-flight flits = 19 (19 measured)
latency change    = 0.00893064
throughput change = 0.0241988
Class 0:
Packet latency average = 20.0094
	minimum = 7
	maximum = 50
Network latency average = 20.0094
	minimum = 7
	maximum = 50
Slowest packet = 502340
Flit latency average = 20.0086
	minimum = 7
	maximum = 50
Slowest flit = 502340
Fragmentation average = 0
	minimum = 0
	maximum = 0
Injected packet rate average = 0.0487708
	minimum = 0.044 (at node 2)
	maximum = 0.055 (at node 13)
Accepted packet rate average = 0.0487292
	minimum = 0.0383333 (at node 9)
	maximum = 0.0546667 (at node 7)
Injected flit rate average = 0.0487708
	minimum = 0.044 (at node 2)
	maximum = 0.055 (at node 13)
Accepted flit rate average= 0.0487292
	minimum = 0.0383333 (at node 9)
	maximum = 0.0546667 (at node 7)
Injected packet length average = 1
Accepted packet length average = 1
Total in-flight flits = 11 (11 measured)
latency change    = 0.00182966
throughput change = 0.0194528
Class 0:
Packet latency average = 19.9261
	minimum = 7
	maximum = 50
Network latency average = 19.9261
	minimum = 7
	maximum = 50
Slowest packet = 502340
Flit latency average = 19.9257
	minimum = 7
	maximum = 50
Slowest flit = 502340
Fragmentation average = 0
	minimum = 0
	maximum = 0
Injected packet rate average = 0.0485
	minimum = 0.043 (at node 2)
	maximum = 0.05325 (at node 12)
Accepted packet rate average = 0.0483594
	minimum = 0.0395 (at node 9)
	maximum = 0.0545 (at node 7)
Injected flit rate average = 0.0485
	minimum = 0.043 (at node 2)
	maximum = 0.05325 (at node 12)
Accepted flit rate average= 0.0483594
	minimum = 0.0395 (at node 9)
	maximum = 0.0545 (at node 7)
Injected packet length average = 1
Accepted packet length average = 1
Total in-flight flits = 18 (18 measured)
latency change    = 0.00418165
throughput change = 0.00764674
Draining all recorded packets ...
Draining remaining packets ...
Time taken is 7056 cycles
Class 0:
Packet latency average = 19.2506
	minimum = 7
	maximum = 42
Network latency average = 19.2506
	minimum = 7
	maximum = 42
Slowest packet = 505616
Flit latency average = 19.2506
	minimum = 7
	maximum = 42
Slowest flit = 505616
Fragmentation average = 0
	minimum = 0
	maximum = 0
Injected packet rate average = 0.0520625
	minimum = 0.04 (at node 3)
	maximum = 0.068 (at node 5)
Accepted packet rate average = 0.051375
	minimum = 0.036 (at node 7)
	maximum = 0.061 (at node 15)
Injected flit rate average = 0.0520625
	minimum = 0.04 (at node 3)
	maximum = 0.068 (at node 5)
Accepted flit rate average= 0.051375
	minimum = 0.036 (at node 7)
	maximum = 0.061 (at node 15)
Injected packet length average = 1
Accepted packet length average = 1
Total in-flight flits = 11 (0 measured)
latency change    = 1
throughput change = 1
Class 0:
Packet latency average = 19.5522
	minimum = 7
	maximum = 42
Network latency average = 19.5522
	minimum = 7
	maximum = 42
Slowest packet = 505616
Flit latency average = 19.5522
	minimum = 7
	maximum = 42
Slowest flit = 505616
Fragmentation average = 0
	minimum = 0
	maximum = 0
Injected packet rate average = 0.051125
	minimum = 0.04 (at node 13)
	maximum = 0.0655 (at node 5)
Accepted packet rate average = 0.0505937
	minimum = 0.043 (at node 7)
	maximum = 0.0575 (at node 11)
Injected flit rate average = 0.051125
	minimum = 0.04 (at node 13)
	maximum = 0.0655 (at node 5)
Accepted flit rate average= 0.0505937
	minimum = 0.043 (at node 7)
	maximum = 0.0575 (at node 11)
Injected packet length average = 1
Accepted packet length average = 1
Total in-flight flits = 17 (0 measured)
latency change    = 0.0154246
throughput change = 0.0154416
Class 0:
Packet latency average = 19.6809
	minimum = 7
	maximum = 39
Network latency average = 19.6809
	minimum = 7
	maximum = 39
Slowest packet = 507787
Flit latency average = 19.6809
	minimum = 7
	maximum = 39
Slowest flit = 507787
Fragmentation average = 0
	minimum = 0
	maximum = 0
Injected packet rate average = 0.050625
	minimum = 0.043 (at node 10)
	maximum = 0.061 (at node 13)
Accepted packet rate average = 0.051125
	minimum = 0.039 (at node 0)
	maximum = 0.063 (at node 3)
Injected flit rate average = 0.050625
	minimum = 0.043 (at node 10)
	maximum = 0.061 (at node 13)
Accepted flit rate average= 0.051125
	minimum = 0.039 (at node 0)
	maximum = 0.063 (at node 3)
Injected packet length average = 1
Accepted packet length average = 1
Total in-flight flits = 9 (0 measured)
latency change    = 0.00654117
throughput change = 0.0103912
Warmed up ...Time used is 3000 cycles
Class 0:
Packet latency average = 19.6535
	minimum = 7
	maximum = 39
Network latency average = 19.6535
	minimum = 7
	maximum = 39
Slowest packet = 508471
Flit latency average = 19.6927
	minimum = 7
	maximum = 39
Slowest flit = 508471
Fragmentation average = 0
	minimum = 0
	maximum = 0
Injected packet rate average = 0.0501875
	minimum = 0.037 (at node 15)
	maximum = 0.064 (at node 11)
Accepted packet rate average = 0.049625
	minimum = 0.034 (at node 0)
	maximum = 0.062 (at node 8)
Injected flit rate average = 0.0501875
	minimum = 0.037 (at node 15)
	maximum = 0.064 (at node 11)
Accepted flit rate average= 0.049625
	minimum = 0.034 (at node 0)
	maximum = 0.062 (at node 8)
Injected packet length average = 1
Accepted packet length average = 1
Total in-flight flits = 18 (18 measured)
latency change    = 0.00139547
throughput change = 0.0302267
Class 0:
Packet latency average = 19.3631
	minimum = 7
	maximum = 39
Network latency average = 19.3631
	minimum = 7
	maximum = 39
Slowest packet = 508471
Flit latency average = 19.384
	minimum = 7
	maximum = 39
Slowest flit = 508471
Fragmentation average = 0
	minimum = 0
	maximum = 0
Injected packet rate average = 0.0509688
	minimum = 0.0425 (at node 15)
	maximum = 0.0605 (at node 11)
Accepted packet rate average = 0.050625
	minimum = 0.0385 (at node 0)
	maximum = 0.061 (at node 5)
Injected flit rate average = 0.0509688
	minimum = 0.0425 (at node 15)
	maximum = 0.0605 (at node 11)
Accepted flit rate average= 0.050625
	minimum = 0.0385 (at node 0)
	maximum = 0.061 (at node 5)
Injected packet length average = 1
Accepted packet length average = 1
Total in-flight flits = 20 (20 measured)
latency change    = 0.0149963
throughput change = 0.0197531
Class 0:
Packet latency average = 19.4839
	minimum = 7
	maximum = 44
Network latency average = 19.4839
	minimum = 7
	maximum = 44
Slowest packet = 509713
Flit latency average = 19.4971
	minimum = 7
	maximum = 44
Slowest flit = 509713
Fragmentation average = 0
	minimum = 0
	maximum = 0
Injected packet rate average = 0.0514375
	minimum = 0.047 (at node 13)
	maximum = 0.0566667 (at node 11)
Accepted packet rate average = 0.0511667
	minimum = 0.0426667 (at node 0)
	maximum = 0.0586667 (at node 14)
Injected flit rate average = 0.0514375
	minimum = 0.047 (at node 13)
	maximum = 0.0566667 (at node 11)
Accepted flit rate average= 0.0511667
	minimum = 0.0426667 (at node 0)
	maximum = 0.0586667 (at node 14)
Injected packet length average = 1
Accepted packet length average = 1
Total in-flight flits = 22 (22 measured)
latency change    = 0.00619638
throughput change = 0.0105863
Draining all recorded packets ...
Draining remaining packets ...
Time taken is 6052 cycles
Class 0:
Packet latency average = 19.8877
	minimum = 7
	maximum = 45
Network latency average = 19.8877
	minimum = 7
	maximum = 45
Slowest packet = 510886
Flit latency average = 19.8877
	minimum = 7
	maximum = 45
Slowest flit = 510886
Fragmentation average = 0
	minimum = 0
	maximum = 0
Injected packet rate average = 0.0489375
	minimum = 0.032 (at node 1)
	maximum = 0.062 (at node 10)
Accepted packet rate average = 0.047875
	minimum = 0.031 (at node 9)
	maximum = 0.059 (at node 13)
Injected flit rate average = 0.0489375
	minimum = 0.032 (at node 1)
	maximum = 0.062 (at node 10)
Accepted flit rate average= 0.047875
	minimum = 0.031 (at node 9)
	maximum = 0.059 (at node 13)
Injected packet length average = 1
Accepted packet length average = 1
Total in-flight flits = 17 (0 measured)
latency change    = 1
throughput change = 1
Class 0:
Packet latency average = 19.637
	minimum = 7
	maximum = 45
Network latency average = 19.637
	minimum = 7
	maximum = 45
Slowest packet = 510886
Flit latency average = 19.637
	minimum = 7
	maximum = 45
Slowest flit = 510886
Fragmentation average = 0
	minimum = 0
	maximum = 0
Injected packet rate average = 0.0498437
	minimum = 0.042 (at node 5)
	maximum = 0.055 (at node 3)
Accepted packet rate average = 0.0495
	minimum = 0.039 (at node 9)
	maximum = 0.0565 (at node 1)
Injected flit rate average = 0.0498437
	minimum = 0.042 (at node 5)
	maximum = 0.055 (at node 3)
Accepted flit rate average= 0.0495
	minimum = 0.039 (at node 9)
	maximum = 0.0565 (at node 1)
Injected packet length average = 1
Accepted packet length average = 1
Total in-flight flits = 11 (0 measured)
latency change    = 0.0127684
throughput change = 0.0328283
Class 0:
Packet latency average = 19.6136
	minimum = 7
	maximum = 45
Network latency average = 19.6136
	minimum = 7
	maximum = 45
Slowest packet = 512539
Flit latency average = 19.6136
	minimum = 7
	maximum = 45
Slowest flit = 512539
Fragmentation average = 0
	minimum = 0
	maximum = 0
Injected packet rate average = 0.05075
	minimum = 0.025 (at node 11)
	maximum = 0.063 (at node 2)
Accepted packet rate average = 0.050625
	minimum = 0.035 (at node 13)
	maximum = 0.065 (at node 3)
Injected flit rate average = 0.05075
	minimum = 0.025 (at node 11)
	maximum = 0.063 (at node 2)
Accepted flit rate average= 0.050625
	minimum = 0.035 (at node 13)
	maximum = 0.065 (at node 3)
Injected packet length average = 1
Accepted packet length average = 1
Total in-flight flits = 13 (0 measured)
latency change    = 0.0011938
throughput change = 0.0222222
Warmed up ...Time used is 3000 cycles
Class 0:
Packet latency average = 19.4175
	minimum = 7
	maximum = 45
Network latency average = 19.4175
	minimum = 7
	maximum = 45
Slowest packet = 513478
Flit latency average = 19.4277
	minimum = 7
	maximum = 45
Slowest flit = 513478
Fragmentation average = 0
	minimum = 0
	maximum = 0
Injected packet rate average = 0.052625
	minimum = 0.035 (at node 0)
	maximum = 0.063 (at node 11)
Accepted packet rate average = 0.0523125
	minimum = 0.039 (at node 7)
	maximum = 0.065 (at node 3)
Injected flit rate average = 0.052625
	minimum = 0.035 (at node 0)
	maximum = 0.063 (at node 11)
Accepted flit rate average= 0.0523125
	minimum = 0.039 (at node 7)
	maximum = 0.065 (at node 3)
Injected packet length average = 1
Accepted packet length average = 1
Total in-flight flits = 18 (18 measured)
latency change    = 0.0100994
throughput change = 0.0322581
Class 0:
Packet latency average = 19.3159
	minimum = 7
	maximum = 45
Network latency average = 19.3159
	minimum = 7
	maximum = 45
Slowest packet = 513478
Flit latency average = 19.3217
	minimum = 7
	maximum = 45
Slowest flit = 513478
Fragmentation average = 0
	minimum = 0
	maximum = 0
Injected packet rate average = 0.0530313
	minimum = 0.0405 (at node 0)
	maximum = 0.0615 (at node 6)
Accepted packet rate average = 0.0530313
	minimum = 0.046 (at node 0)
	maximum = 0.0625 (at node 4)
Injected flit rate average = 0.0530313
	minimum = 0.0405 (at node 0)
	maximum = 0.0615 (at node 6)
Accepted flit rate average= 0.0530313
	minimum = 0.046 (at node 0)
	maximum = 0.0625 (at node 4)
Injected packet length average = 1
Accepted packet length average = 1
Total in-flight flits = 13 (13 measured)
latency change    = 0.0052579
throughput change = 0.0135533
Class 0:
Packet latency average = 19.3687
	minimum = 7
	maximum = 45
Network latency average = 19.3687
	minimum = 7
	maximum = 45
Slowest packet = 513478
Flit latency average = 19.3724
	minimum = 7
	maximum = 45
Slowest flit = 513478
Fragmentation average = 0
	minimum = 0
	maximum = 0
Injected packet rate average = 0.0526042
	minimum = 0.0443333 (at node 0)
	maximum = 0.0606667 (at node 1)
Accepted packet rate average = 0.0524792
	minimum = 0.0446667 (at node 0)
	maximum = 0.058 (at node 4)
Injected flit rate average = 0.0526042
	minimum = 0.0443333 (at node 0)
	maximum = 0.0606667 (at node 1)
Accepted flit rate average= 0.0524792
	minimum = 0.0446667 (at node 0)
	maximum = 0.058 (at node 4)
Injected packet length average = 1
Accepted packet length average = 1
Total in-flight flits = 19 (19 measured)
latency change    = 0.00272608
throughput change = 0.01052
Draining all recorded packets ...
Draining remaining packets ...
Time taken is 6055 cycles
====== Overall Traffic Statistics ======
====== Traffic class 0 ======
Packet latency average = 19.7272 (100 samples)
	minimum = 7 (100 samples)
	maximum = 45.18 (100 samples)
Network latency average = 19.7272 (100 samples)
	minimum = 7 (100 samples)
	maximum = 45.18 (100 samples)
Flit latency average = 19.7389 (100 samples)
	minimum = 7 (100 samples)
	maximum = 45.21 (100 samples)
Fragmentation average = 0 (100 samples)
	minimum = 0 (100 samples)
	maximum = 0 (100 samples)
Injected packet rate average = 0.0502269 (100 samples)
	minimum = 0.0437813 (100 samples)
	maximum = 0.0567295 (100 samples)
Accepted packet rate average = 0.0502218 (100 samples)
	minimum = 0.0435033 (100 samples)
	maximum = 0.0573953 (100 samples)
Injected flit rate average = 0.0502269 (100 samples)
	minimum = 0.0437813 (100 samples)
	maximum = 0.0567295 (100 samples)
Accepted flit rate average = 0.0502218 (100 samples)
	minimum = 0.0435033 (100 samples)
	maximum = 0.0573953 (100 samples)
Injected packet size average = 1 (100 samples)
Accepted packet size average = 1 (100 samples)
Hops average = 3.50034 (100 samples)
Total run time 7.31463
