BEGIN Configuration File: /tmp/bs_1138183_290119.cfg
topology = mesh;
k = 4;
n = 2;
routing_function = dor;
num_vcs = 4;
vc_buf_size = 4;
wait_for_tail_credit = 1;
vc_allocator = islip;
sw_allocator = islip;
alloc_iters = 1;
credit_delay = 2;
routing_delay = 1;
vc_alloc_delay = 1;
sw_alloc_delay = 1;
input_speedup = 2;
output_speedup = 1;
internal_speedup = 1.0;
traffic = transpose;
packet_size = 1;
sim_type = latency;
injection_rate = 0.02;
warmup_periods = 3;
sample_period = 1000;
sim_count = 100;
seed = 2;

END Configuration File: /tmp/bs_1138183_290119.cfg
Class 0:
Packet latency average = 18.704
	minimum = 7
	maximum = 37
Network latency average = 18.704
	minimum = 7
	maximum = 37
Slowest packet = 2
Flit latency average = 18.704
	minimum = 7
	maximum = 37
Slowest flit = 2
Fragmentation average = 0
	minimum = 0
	maximum = 0
Injected packet rate average = 0.0180625
	minimum = 0.008 (at node 9)
	maximum = 0.025 (at node 10)
Accepted packet rate average = 0.0173125
	minimum = 0.007 (at node 6)
	maximum = 0.025 (at node 10)
Injected flit rate average = 0.0180625
	minimum = 0.008 (at node 9)
	maximum = 0.025 (at node 10)
Accepted flit rate average= 0.0173125
	minimum = 0.007 (at node 6)
	maximum = 0.025 (at node 10)
Injected packet length average = 1
Accepted packet length average = 1
Total in-flight flits = 12 (0 measured)
latency change    = 1
throughput change = 1
Class 0:
Packet latency average = 19.2467
	minimum = 7
	maximum = 38
Network latency average = 19.2467
	minimum = 7
	maximum = 38
Slowest packet = 374
Flit latency average = 19.2467
	minimum = 7
	maximum = 38
Slowest flit = 374
Fragmentation average = 0
	minimum = 0
	maximum = 0
Injected packet rate average = 0.0190937
	minimum = 0.0145 (at node 2)
	maximum = 0.028 (at node 10)
Accepted packet rate average = 0.019
	minimum = 0.014 (at node 6)
	maximum = 0.028 (at node 10)
Injected flit rate average = 0.0190937
	minimum = 0.0145 (at node 2)
	maximum = 0.028 (at node 10)
Accepted flit rate average= 0.019
	minimum = 0.014 (at node 6)
	maximum = 0.028 (at node 10)
Injected packet length average = 1
Accepted packet length average = 1
Total in-flight flits = 3 (0 measured)
latency change    = 0.0281991
throughput change = 0.0888158
Class 0:
Packet latency average = 19.756
	minimum = 7
	maximum = 38
Network latency average = 19.756
	minimum = 7
	maximum = 38
Slowest packet = 823
Flit latency average = 19.756
	minimum = 7
	maximum = 38
Slowest flit = 823
Fragmentation average = 0
	minimum = 0
	maximum = 0
Injected packet rate average = 0.0185
	minimum = 0.011 (at node 6)
	maximum = 0.025 (at node 10)
Accepted packet rate average = 0.0181875
	minimum = 0.01 (at node 2)
	maximum = 0.024 (at node 10)
Injected flit rate average = 0.0185
	minimum = 0.011 (at node 6)
	maximum = 0.025 (at node 10)
Accepted flit rate average= 0.0181875
	minimum = 0.01 (at node 2)
	maximum = 0.024 (at node 10)
Injected packet length average = 1
Accepted packet length average = 1
Total in-flight flits = 8 (0 measured)
latency change    = 0.0257797
throughput change = 0.0446735
Warmed up ...Time used is 3000 cycles
Class 0:
Packet latency average = 19.2798
	minimum = 7
	maximum = 38
Network latency average = 19.2798
	minimum = 7
	maximum = 38
Slowest packet = 1130
Flit latency average = 19.393
	minimum = 7
	maximum = 38
Slowest flit = 1130
Fragmentation average = 0
	minimum = 0
	maximum = 0
Injected packet rate average = 0.0229375
	minimum = 0.013 (at node 6)
	maximum = 0.03 (at node 12)
Accepted packet rate average = 0.0230625
	minimum = 0.013 (at node 9)
	maximum = 0.03 (at node 3)
Injected flit rate average = 0.0229375
	minimum = 0.013 (at node 6)
	maximum = 0.03 (at node 12)
Accepted flit rate average= 0.0230625
	minimum = 0.013 (at node 9)
	maximum = 0.03 (at node 3)
Injected packet length average = 1
Accepted packet length average = 1
Total in-flight flits = 6 (6 measured)
latency change    = 0.0247013
throughput change = 0.211382
Class 0:
Packet latency average = 19.3892
	minimum = 7
	maximum = 38
Network latency average = 19.3892
	minimum = 7
	maximum = 38
Slowest packet = 1130
Flit latency average = 19.4497
	minimum = 7
	maximum = 38
Slowest flit = 1130
Fragmentation average = 0
	minimum = 0
	maximum = 0
Injected packet rate average = 0.0210625
	minimum = 0.017 (at node 1)
	maximum = 0.026 (at node 7)
Accepted packet rate average = 0.021125
	minimum = 0.017 (at node 4)
	maximum = 0.026 (at node 13)
Injected flit rate average = 0.0210625
	minimum = 0.017 (at node 1)
	maximum = 0.026 (at node 7)
Accepted flit rate average= 0.021125
	minimum = 0.017 (at node 4)
	maximum = 0.026 (at node 13)
Injected packet length average = 1
Accepted packet length average = 1
Total in-flight flits = 6 (6 measured)
latency change    = 0.00564454
throughput change = 0.091716
Class 0:
Packet latency average = 19.3145
	minimum = 7
	maximum = 38
Network latency average = 19.3145
	minimum = 7
	maximum = 38
Slowest packet = 1130
Flit latency average = 19.3561
	minimum = 7
	maximum = 38
Slowest flit = 1130
Fragmentation average = 0
	minimum = 0
	maximum = 0
Injected packet rate average = 0.0206667
	minimum = 0.018 (at node 8)
	maximum = 0.0243333 (at node 10)
Accepted packet rate average = 0.0207708
	minimum = 0.018 (at node 8)
	maximum = 0.0246667 (at node 10)
Injected flit rate average = 0.0206667
	minimum = 0.018 (at node 8)
	maximum = 0.0243333 (at node 10)
Accepted flit rate average= 0.0207708
	minimum = 0.018 (at node 8)
	maximum = 0.0246667 (at node 10)
Injected packet length average = 1
Accepted packet length average = 1
Total in-flight flits = 3 (3 measured)
latency change    = 0.00387081
throughput change = 0.0170512
Class 0:
Packet latency average = 19.2871
	minimum = 7
	maximum = 38
Network latency average = 19.2871
	minimum = 7
	maximum = 38
Slowest packet = 1130
Flit latency average = 19.3191
	minimum = 7
	maximum = 38
Slowest flit = 1130
Fragmentation average = 0
	minimum = 0
	maximum = 0
Injected packet rate average = 0.0204688
	minimum = 0.01725 (at node 2)
	maximum = 0.0225 (at node 4)
Accepted packet rate average = 0.0204219
	minimum = 0.017 (at node 8)
	maximum = 0.02275 (at node 10)
Injected flit rate average = 0.0204688
	minimum = 0.01725 (at node 2)
	maximum = 0.0225 (at node 4)
Accepted flit rate average= 0.0204219
	minimum = 0.017 (at node 8)
	maximum = 0.02275 (at node 10)
Injected packet length average = 1
Accepted packet length average = 1
Total in-flight flits = 11 (11 measured)
latency change    = 0.00141623
throughput change = 0.0170875
Class 0:
Packet latency average = 19.1482
	minimum = 7
	maximum = 38
Network latency average = 19.1482
	minimum = 7
	maximum = 38
Slowest packet = 1130
Flit latency average = 19.1742
	minimum = 7
	maximum = 38
Slowest flit = 1130
Fragmentation average = 0
	minimum = 0
	maximum = 0
Injected packet rate average = 0.0206
	minimum = 0.0174 (at node 2)
	maximum = 0.0236 (at node 15)
Accepted packet rate average = 0.0206
	minimum = 0.017 (at node 8)
	maximum = 0.0238 (at node 15)
Injected flit rate average = 0.0206
	minimum = 0.0174 (at node 2)
	maximum = 0.0236 (at node 15)
Accepted flit rate average= 0.0206
	minimum = 0.017 (at node 8)
	maximum = 0.0238 (at node 15)
Injected packet length average = 1
Accepted packet length average = 1
Total in-flight flits = 8 (8 measured)
latency change    = 0.00725778
throughput change = 0.00864684
Draining all recorded packets ...
Draining remaining packets ...
Time taken is 8052 cycles
Class 0:
Packet latency average = 20.3084
	minimum = 7
	maximum = 38
Network latency average = 20.3084
	minimum = 7
	maximum = 38
Slowest packet = 2741
Flit latency average = 20.3084
	minimum = 7
	maximum = 38
Slowest flit = 2741
Fragmentation average = 0
	minimum = 0
	maximum = 0
Injected packet rate average = 0.020375
	minimum = 0.015 (at node 5)
	maximum = 0.03 (at node 3)
Accepted packet rate average = 0.0200625
	minimum = 0.015 (at node 5)
	maximum = 0.03 (at node 12)
Injected flit rate average = 0.020375
	minimum = 0.015 (at node 5)
	maximum = 0.03 (at node 3)
Accepted flit rate average= 0.0200625
	minimum = 0.015 (at node 5)
	maximum = 0.03 (at node 12)
Injected packet length average = 1
Accepted packet length average = 1
Total in-flight flits = 5 (0 measured)
latency change    = 1
throughput change = 1
Class 0:
Packet latency average = 19.5444
	minimum = 7
	maximum = 38
Network latency average = 19.5444
	minimum = 7
	maximum = 38
Slowest packet = 2741
Flit latency average = 19.5444
	minimum = 7
	maximum = 38
Slowest flit = 2741
Fragmentation average = 0
	minimum = 0
	maximum = 0
Injected packet rate average = 0.0209063
	minimum = 0.017 (at node 9)
	maximum = 0.025 (at node 3)
Accepted packet rate average = 0.0207813
	minimum = 0.017 (at node 6)
	maximum = 0.0245 (at node 0)
Injected flit rate average = 0.0209063
	minimum = 0.017 (at node 9)
	maximum = 0.025 (at node 3)
Accepted flit rate average= 0.0207813
	minimum = 0.017 (at node 6)
	maximum = 0.0245 (at node 0)
Injected packet length average = 1
Accepted packet length average = 1
Total in-flight flits = 4 (0 measured)
latency change    = 0.0390931
throughput change = 0.0345865
Class 0:
Packet latency average = 20.229
	minimum = 7
	maximum = 37
Network latency average = 20.229
	minimum = 7
	maximum = 37
Slowest packet = 3228
Flit latency average = 20.229
	minimum = 7
	maximum = 37
Slowest flit = 3228
Fragmentation average = 0
	minimum = 0
	maximum = 0
Injected packet rate average = 0.022
	minimum = 0.015 (at node 1)
	maximum = 0.03 (at node 12)
Accepted packet rate average = 0.0215625
	minimum = 0.015 (at node 4)
	maximum = 0.03 (at node 3)
Injected flit rate average = 0.022
	minimum = 0.015 (at node 1)
	maximum = 0.03 (at node 12)
Accepted flit rate average= 0.0215625
	minimum = 0.015 (at node 4)
	maximum = 0.03 (at node 3)
Injected packet length average = 1
Accepted packet length average = 1
Total in-flight flits = 11 (0 measured)
latency change    = 0.0338437
throughput change = 0.0362319
Warmed up ...Time used is 3000 cycles
Class 0:
Packet latency average = 19.3787
	minimum = 7
	maximum = 38
Network latency average = 19.3787
	minimum = 7
	maximum = 38
Slowest packet = 3700
Flit latency average = 19.5833
	minimum = 7
	maximum = 38
Slowest flit = 3700
Fragmentation average = 0
	minimum = 0
	maximum = 0
Injected packet rate average = 0.019125
	minimum = 0.013 (at node 9)
	maximum = 0.027 (at node 1)
Accepted packet rate average = 0.0195
	minimum = 0.013 (at node 6)
	maximum = 0.026 (at node 4)
Injected flit rate average = 0.019125
	minimum = 0.013 (at node 9)
	maximum = 0.027 (at node 1)
Accepted flit rate average= 0.0195
	minimum = 0.013 (at node 6)
	maximum = 0.026 (at node 4)
Injected packet length average = 1
Accepted packet length average = 1
Total in-flight flits = 5 (5 measured)
latency change    = 0.0438753
throughput change = 0.105769
Class 0:
Packet latency average = 19.0793
	minimum = 7
	maximum = 38
Network latency average = 19.0793
	minimum = 7
	maximum = 38
Slowest packet = 3700
Flit latency average = 19.1883
	minimum = 7
	maximum = 38
Slowest flit = 3700
Fragmentation average = 0
	minimum = 0
	maximum = 0
Injected packet rate average = 0.019
	minimum = 0.0145 (at node 9)
	maximum = 0.0235 (at node 5)
Accepted packet rate average = 0.01925
	minimum = 0.0135 (at node 6)
	maximum = 0.0235 (at node 5)
Injected flit rate average = 0.019
	minimum = 0.0145 (at node 9)
	maximum = 0.0235 (at node 5)
Accepted flit rate average= 0.01925
	minimum = 0.0135 (at node 6)
	maximum = 0.0235 (at node 5)
Injected packet length average = 1
Accepted packet length average = 1
Total in-flight flits = 3 (3 measured)
latency change    = 0.0156923
throughput change = 0.012987
Class 0:
Packet latency average = 19.3555
	minimum = 7
	maximum = 38
Network latency average = 19.3555
	minimum = 7
	maximum = 38
Slowest packet = 3700
Flit latency average = 19.4246
	minimum = 7
	maximum = 38
Slowest flit = 3700
Fragmentation average = 0
	minimum = 0
	maximum = 0
Injected packet rate average = 0.01925
	minimum = 0.0146667 (at node 6)
	maximum = 0.0226667 (at node 1)
Accepted packet rate average = 0.0193333
	minimum = 0.0153333 (at node 6)
	maximum = 0.0226667 (at node 4)
Injected flit rate average = 0.01925
	minimum = 0.0146667 (at node 6)
	maximum = 0.0226667 (at node 1)
Accepted flit rate average= 0.0193333
	minimum = 0.0153333 (at node 6)
	maximum = 0.0226667 (at node 4)
Injected packet length average = 1
Accepted packet length average = 1
Total in-flight flits = 7 (7 measured)
latency change    = 0.0142682
throughput change = 0.00431034
Class 0:
Packet latency average = 19.2229
	minimum = 7
	maximum = 38
Network latency average = 19.2229
	minimum = 7
	maximum = 38
Slowest packet = 3700
Flit latency average = 19.2758
	minimum = 7
	maximum = 38
Slowest flit = 3700
Fragmentation average = 0
	minimum = 0
	maximum = 0
Injected packet rate average = 0.0192969
	minimum = 0.01475 (at node 6)
	maximum = 0.0225 (at node 5)
Accepted packet rate average = 0.019375
	minimum = 0.015 (at node 9)
	maximum = 0.0225 (at node 5)
Injected flit rate average = 0.0192969
	minimum = 0.01475 (at node 6)
	maximum = 0.0225 (at node 5)
Accepted flit rate average= 0.019375
	minimum = 0.015 (at node 9)
	maximum = 0.0225 (at node 5)
Injected packet length average = 1
Accepted packet length average = 1
Total in-flight flits = 6 (6 measured)
latency change    = 0.00689601
throughput change = 0.00215054
Draining all recorded packets ...
Draining remaining packets ...
Time taken is 7045 cycles
Class 0:
Packet latency average = 19.0688
	minimum = 7
	maximum = 38
Network latency average = 19.0688
	minimum = 7
	maximum = 38
Slowest packet = 5051
Flit latency average = 19.0688
	minimum = 7
	maximum = 38
Slowest flit = 5051
Fragmentation average = 0
	minimum = 0
	maximum = 0
Injected packet rate average = 0.0221875
	minimum = 0.011 (at node 2)
	maximum = 0.034 (at node 1)
Accepted packet rate average = 0.0218125
	minimum = 0.011 (at node 8)
	maximum = 0.033 (at node 0)
Injected flit rate average = 0.0221875
	minimum = 0.011 (at node 2)
	maximum = 0.034 (at node 1)
Accepted flit rate average= 0.0218125
	minimum = 0.011 (at node 8)
	maximum = 0.033 (at node 0)
Injected packet length average = 1
Accepted packet length average = 1
Total in-flight flits = 6 (0 measured)
latency change    = 1
throughput change = 1
Class 0:
Packet latency average = 19.405
	minimum = 7
	maximum = 38
Network latency average = 19.405
	minimum = 7
	maximum = 38
Slowest packet = 5051
Flit latency average = 19.405
	minimum = 7
	maximum = 38
Slowest flit = 5051
Fragmentation average = 0
	minimum = 0
	maximum = 0
Injected packet rate average = 0.0201563
	minimum = 0.0165 (at node 7)
	maximum = 0.0265 (at node 0)
Accepted packet rate average = 0.0200625
	minimum = 0.0165 (at node 8)
	maximum = 0.0265 (at node 0)
Injected flit rate average = 0.0201563
	minimum = 0.0165 (at node 7)
	maximum = 0.0265 (at node 0)
Accepted flit rate average= 0.0200625
	minimum = 0.0165 (at node 8)
	maximum = 0.0265 (at node 0)
Injected packet length average = 1
Accepted packet length average = 1
Total in-flight flits = 3 (0 measured)
latency change    = 0.0173263
throughput change = 0.0872274
Class 0:
Packet latency average = 19.0444
	minimum = 7
	maximum = 38
Network latency average = 19.0444
	minimum = 7
	maximum = 38
Slowest packet = 5606
Flit latency average = 19.0444
	minimum = 7
	maximum = 38
Slowest flit = 5606
Fragmentation average = 0
	minimum = 0
	maximum = 0
Injected packet rate average = 0.020125
	minimum = 0.012 (at node 1)
	maximum = 0.028 (at node 4)
Accepted packet rate average = 0.0196875
	minimum = 0.012 (at node 4)
	maximum = 0.028 (at node 8)
Injected flit rate average = 0.020125
	minimum = 0.012 (at node 1)
	maximum = 0.028 (at node 4)
Accepted flit rate average= 0.0196875
	minimum = 0.012 (at node 4)
	maximum = 0.028 (at node 8)
Injected packet length average = 1
Accepted packet length average = 1
Total in-flight flits = 10 (0 measured)
latency change    = 0.0189315
throughput change = 0.0190476
Warmed up ...Time used is 3000 cycles
Class 0:
Packet latency average = 20.5455
	minimum = 7
	maximum = 37
Network latency average = 20.5455
	minimum = 7
	maximum = 37
Slowest packet = 5803
Flit latency average = 20.5255
	minimum = 7
	maximum = 37
Slowest flit = 5783
Fragmentation average = 0
	minimum = 0
	maximum = 0
Injected packet rate average = 0.0168125
	minimum = 0.012 (at node 10)
	maximum = 0.027 (at node 2)
Accepted packet rate average = 0.017125
	minimum = 0.012 (at node 10)
	maximum = 0.026 (at node 3)
Injected flit rate average = 0.0168125
	minimum = 0.012 (at node 10)
	maximum = 0.027 (at node 2)
Accepted flit rate average= 0.017125
	minimum = 0.012 (at node 10)
	maximum = 0.026 (at node 3)
Injected packet length average = 1
Accepted packet length average = 1
Total in-flight flits = 5 (5 measured)
latency change    = 0.073058
throughput change = 0.149635
Class 0:
Packet latency average = 20.413
	minimum = 7
	maximum = 38
Network latency average = 20.413
	minimum = 7
	maximum = 38
Slowest packet = 6071
Flit latency average = 20.406
	minimum = 7
	maximum = 38
Slowest flit = 6071
Fragmentation average = 0
	minimum = 0
	maximum = 0
Injected packet rate average = 0.0185
	minimum = 0.014 (at node 15)
	maximum = 0.027 (at node 12)
Accepted packet rate average = 0.018625
	minimum = 0.014 (at node 15)
	maximum = 0.0265 (at node 3)
Injected flit rate average = 0.0185
	minimum = 0.014 (at node 15)
	maximum = 0.027 (at node 12)
Accepted flit rate average= 0.018625
	minimum = 0.014 (at node 15)
	maximum = 0.0265 (at node 3)
Injected packet length average = 1
Accepted packet length average = 1
Total in-flight flits = 6 (6 measured)
latency change    = 0.00649025
throughput change = 0.0805369
Class 0:
Packet latency average = 19.9283
	minimum = 7
	maximum = 38
Network latency average = 19.9283
	minimum = 7
	maximum = 38
Slowest packet = 6071
Flit latency average = 19.929
	minimum = 7
	maximum = 38
Slowest flit = 6071
Fragmentation average = 0
	minimum = 0
	maximum = 0
Injected packet rate average = 0.0193125
	minimum = 0.016 (at node 15)
	maximum = 0.0243333 (at node 12)
Accepted packet rate average = 0.019375
	minimum = 0.016 (at node 15)
	maximum = 0.0243333 (at node 3)
Injected flit rate average = 0.0193125
	minimum = 0.016 (at node 15)
	maximum = 0.0243333 (at node 12)
Accepted flit rate average= 0.019375
	minimum = 0.016 (at node 15)
	maximum = 0.0243333 (at node 3)
Injected packet length average = 1
Accepted packet length average = 1
Total in-flight flits = 7 (7 measured)
latency change    = 0.0243227
throughput change = 0.0387097
Class 0:
Packet latency average = 19.9968
	minimum = 7
	maximum = 39
Network latency average = 19.9968
	minimum = 7
	maximum = 39
Slowest packet = 6911
Flit latency average = 19.9968
	minimum = 7
	maximum = 39
Slowest flit = 6911
Fragmentation average = 0
	minimum = 0
	maximum = 0
Injected packet rate average = 0.0196563
	minimum = 0.017 (at node 15)
	maximum = 0.02325 (at node 12)
Accepted packet rate average = 0.0196563
	minimum = 0.017 (at node 15)
	maximum = 0.02325 (at node 3)
Injected flit rate average = 0.0196563
	minimum = 0.017 (at node 15)
	maximum = 0.02325 (at node 12)
Accepted flit rate average= 0.0196563
	minimum = 0.017 (at node 15)
	maximum = 0.02325 (at node 3)
Injected packet length average = 1
Accepted packet length average = 1
Total in-flight flits = 10 (10 measured)
latency change    = 0.00342725
throughput change = 0.0143084
Class 0:
Packet latency average = 20.0154
	minimum = 7
	maximum = 39
Network latency average = 20.0154
	minimum = 7
	maximum = 39
Slowest packet = 6911
Flit latency average = 20.0153
	minimum = 7
	maximum = 39
Slowest flit = 6911
Fragmentation average = 0
	minimum = 0
	maximum = 0
Injected packet rate average = 0.019625
	minimum = 0.017 (at node 15)
	maximum = 0.0238 (at node 13)
Accepted packet rate average = 0.0196625
	minimum = 0.017 (at node 15)
	maximum = 0.0236 (at node 7)
Injected flit rate average = 0.019625
	minimum = 0.017 (at node 15)
	maximum = 0.0238 (at node 13)
Accepted flit rate average= 0.0196625
	minimum = 0.017 (at node 15)
	maximum = 0.0236 (at node 7)
Injected packet length average = 1
Accepted packet length average = 1
Total in-flight flits = 7 (7 measured)
latency change    = 0.000927299
throughput change = 0.000317864
Draining all recorded packets ...
Draining remaining packets ...
Time taken is 8049 cycles
Class 0:
Packet latency average = 20.2706
	minimum = 7
	maximum = 37
Network latency average = 20.2706
	minimum = 7
	maximum = 37
Slowest packet = 7380
Flit latency average = 20.2706
	minimum = 7
	maximum = 37
Slowest flit = 7380
Fragmentation average = 0
	minimum = 0
	maximum = 0
Injected packet rate average = 0.019375
	minimum = 0.014 (at node 0)
	maximum = 0.029 (at node 6)
Accepted packet rate average = 0.0189375
	minimum = 0.014 (at node 0)
	maximum = 0.027 (at node 9)
Injected flit rate average = 0.019375
	minimum = 0.014 (at node 0)
	maximum = 0.029 (at node 6)
Accepted flit rate average= 0.0189375
	minimum = 0.014 (at node 0)
	maximum = 0.027 (at node 9)
Injected packet length average = 1
Accepted packet length average = 1
Total in-flight flits = 7 (0 measured)
latency change    = 1
throughput change = 1
Class 0:
Packet latency average = 20.1164
	minimum = 7
	maximum = 38
Network latency average = 20.1164
	minimum = 7
	maximum = 38
Slowest packet = 7793
Flit latency average = 20.1164
	minimum = 7
	maximum = 38
Slowest flit = 7793
Fragmentation average = 0
	minimum = 0
	maximum = 0
Injected packet rate average = 0.0196875
	minimum = 0.0125 (at node 5)
	maximum = 0.026 (at node 6)
Accepted packet rate average = 0.0195938
	minimum = 0.0125 (at node 5)
	maximum = 0.026 (at node 9)
Injected flit rate average = 0.0196875
	minimum = 0.0125 (at node 5)
	maximum = 0.026 (at node 6)
Accepted flit rate average= 0.0195938
	minimum = 0.0125 (at node 5)
	maximum = 0.026 (at node 9)
Injected packet length average = 1
Accepted packet length average = 1
Total in-flight flits = 3 (0 measured)
latency change    = 0.00766536
throughput change = 0.0334928
Class 0:
Packet latency average = 20.8167
	minimum = 7
	maximum = 38
Network latency average = 20.8167
	minimum = 7
	maximum = 38
Slowest packet = 8128
Flit latency average = 20.8167
	minimum = 7
	maximum = 38
Slowest flit = 8128
Fragmentation average = 0
	minimum = 0
	maximum = 0
Injected packet rate average = 0.0195625
	minimum = 0.013 (at node 5)
	maximum = 0.026 (at node 3)
Accepted packet rate average = 0.0194375
	minimum = 0.012 (at node 5)
	maximum = 0.027 (at node 13)
Injected flit rate average = 0.0195625
	minimum = 0.013 (at node 5)
	maximum = 0.026 (at node 3)
Accepted flit rate average= 0.0194375
	minimum = 0.012 (at node 5)
	maximum = 0.027 (at node 13)
Injected packet length average = 1
Accepted packet length average = 1
Total in-flight flits = 5 (0 measured)
latency change    = 0.0336409
throughput change = 0.00803859
Warmed up ...Time used is 3000 cycles
Class 0:
Packet latency average = 18.4512
	minimum = 7
	maximum = 38
Network latency average = 18.4512
	minimum = 7
	maximum = 38
Slowest packet = 8368
Flit latency average = 18.5195
	minimum = 7
	maximum = 38
Slowest flit = 8368
Fragmentation average = 0
	minimum = 0
	maximum = 0
Injected packet rate average = 0.02075
	minimum = 0.01 (at node 9)
	maximum = 0.033 (at node 4)
Accepted packet rate average = 0.0208125
	minimum = 0.01 (at node 6)
	maximum = 0.033 (at node 1)
Injected flit rate average = 0.02075
	minimum = 0.01 (at node 9)
	maximum = 0.033 (at node 4)
Accepted flit rate average= 0.0208125
	minimum = 0.01 (at node 6)
	maximum = 0.033 (at node 1)
Injected packet length average = 1
Accepted packet length average = 1
Total in-flight flits = 4 (4 measured)
latency change    = 0.128203
throughput change = 0.0660661
Class 0:
Packet latency average = 18.9726
	minimum = 7
	maximum = 38
Network latency average = 18.9726
	minimum = 7
	maximum = 38
Slowest packet = 8368
Flit latency average = 19.003
	minimum = 7
	maximum = 38
Slowest flit = 8368
Fragmentation average = 0
	minimum = 0
	maximum = 0
Injected packet rate average = 0.0207813
	minimum = 0.0165 (at node 9)
	maximum = 0.0255 (at node 4)
Accepted packet rate average = 0.0207188
	minimum = 0.0165 (at node 6)
	maximum = 0.025 (at node 1)
Injected flit rate average = 0.0207813
	minimum = 0.0165 (at node 9)
	maximum = 0.0255 (at node 4)
Accepted flit rate average= 0.0207188
	minimum = 0.0165 (at node 6)
	maximum = 0.025 (at node 1)
Injected packet length average = 1
Accepted packet length average = 1
Total in-flight flits = 7 (7 measured)
latency change    = 0.027483
throughput change = 0.00452489
Class 0:
Packet latency average = 19.1945
	minimum = 7
	maximum = 38
Network latency average = 19.1945
	minimum = 7
	maximum = 38
Slowest packet = 8368
Flit latency average = 19.2138
	minimum = 7
	maximum = 38
Slowest flit = 8368
Fragmentation average = 0
	minimum = 0
	maximum = 0
Injected packet rate average = 0.020625
	minimum = 0.0153333 (at node 9)
	maximum = 0.0246667 (at node 10)
Accepted packet rate average = 0.0205625
	minimum = 0.0153333 (at node 6)
	maximum = 0.0246667 (at node 10)
Injected flit rate average = 0.020625
	minimum = 0.0153333 (at node 9)
	maximum = 0.0246667 (at node 10)
Accepted flit rate average= 0.0205625
	minimum = 0.0153333 (at node 6)
	maximum = 0.0246667 (at node 10)
Injected packet length average = 1
Accepted packet length average = 1
Total in-flight flits = 8 (8 measured)
latency change    = 0.0115583
throughput change = 0.00759878
Class 0:
Packet latency average = 19.4587
	minimum = 7
	maximum = 38
Network latency average = 19.4587
	minimum = 7
	maximum = 38
Slowest packet = 8368
Flit latency average = 19.4722
	minimum = 7
	maximum = 38
Slowest flit = 8368
Fragmentation average = 0
	minimum = 0
	maximum = 0
Injected packet rate average = 0.0204844
	minimum = 0.016 (at node 5)
	maximum = 0.02375 (at node 4)
Accepted packet rate average = 0.0205156
	minimum = 0.01625 (at node 5)
	maximum = 0.02375 (at node 1)
Injected flit rate average = 0.0204844
	minimum = 0.016 (at node 5)
	maximum = 0.02375 (at node 4)
Accepted flit rate average= 0.0205156
	minimum = 0.01625 (at node 5)
	maximum = 0.02375 (at node 1)
Injected packet length average = 1
Accepted packet length average = 1
Total in-flight flits = 3 (3 measured)
latency change    = 0.0135782
throughput change = 0.00228484
Draining all recorded packets ...
Draining remaining packets ...
Time taken is 7051 cycles
Class 0:
Packet latency average = 19.7311
	minimum = 7
	maximum = 38
Network latency average = 19.7311
	minimum = 7
	maximum = 38
Slowest packet = 9761
Flit latency average = 19.7311
	minimum = 7
	maximum = 38
Slowest flit = 9761
Fragmentation average = 0
	minimum = 0
	maximum = 0
Injected packet rate average = 0.019375
	minimum = 0.014 (at node 11)
	maximum = 0.028 (at node 6)
Accepted packet rate average = 0.0190625
	minimum = 0.013 (at node 14)
	maximum = 0.028 (at node 9)
Injected flit rate average = 0.019375
	minimum = 0.014 (at node 11)
	maximum = 0.028 (at node 6)
Accepted flit rate average= 0.0190625
	minimum = 0.013 (at node 14)
	maximum = 0.028 (at node 9)
Injected packet length average = 1
Accepted packet length average = 1
Total in-flight flits = 5 (0 measured)
latency change    = 1
throughput change = 1
Class 0:
Packet latency average = 19.4007
	minimum = 7
	maximum = 38
Network latency average = 19.4007
	minimum = 7
	maximum = 38
Slowest packet = 9761
Flit latency average = 19.4007
	minimum = 7
	maximum = 38
Slowest flit = 9761
Fragmentation average = 0
	minimum = 0
	maximum = 0
Injected packet rate average = 0.0192812
	minimum = 0.015 (at node 7)
	maximum = 0.024 (at node 4)
Accepted packet rate average = 0.0191875
	minimum = 0.015 (at node 13)
	maximum = 0.024 (at node 1)
Injected flit rate average = 0.0192812
	minimum = 0.015 (at node 7)
	maximum = 0.024 (at node 4)
Accepted flit rate average= 0.0191875
	minimum = 0.015 (at node 13)
	maximum = 0.024 (at node 1)
Injected packet length average = 1
Accepted packet length average = 1
Total in-flight flits = 3 (0 measured)
latency change    = 0.0170353
throughput change = 0.00651466
Class 0:
Packet latency average = 19.9053
	minimum = 7
	maximum = 38
Network latency average = 19.9053
	minimum = 7
	maximum = 38
Slowest packet = 10355
Flit latency average = 19.9053
	minimum = 7
	maximum = 38
Slowest flit = 10355
Fragmentation average = 0
	minimum = 0
	maximum = 0
Injected packet rate average = 0.0215625
	minimum = 0.014 (at node 12)
	maximum = 0.032 (at node 3)
Accepted packet rate average = 0.021125
	minimum = 0.014 (at node 3)
	maximum = 0.031 (at node 12)
Injected flit rate average = 0.0215625
	minimum = 0.014 (at node 12)
	maximum = 0.032 (at node 3)
Accepted flit rate average= 0.021125
	minimum = 0.014 (at node 3)
	maximum = 0.031 (at node 12)
Injected packet length average = 1
Accepted packet length average = 1
Total in-flight flits = 10 (0 measured)
latency change    = 0.0253537
throughput change = 0.091716
Warmed up ...Time used is 3000 cycles
Class 0:
Packet latency average = 19.0631
	minimum = 7
	maximum = 37
Network latency average = 19.0631
	minimum = 7
	maximum = 37
Slowest packet = 10598
Flit latency average = 19.2251
	minimum = 7
	maximum = 37
Slowest flit = 10585
Fragmentation average = 0
	minimum = 0
	maximum = 0
Injected packet rate average = 0.019375
	minimum = 0.013 (at node 12)
	maximum = 0.03 (at node 11)
Accepted packet rate average = 0.0194375
	minimum = 0.013 (at node 3)
	maximum = 0.03 (at node 14)
Injected flit rate average = 0.019375
	minimum = 0.013 (at node 12)
	maximum = 0.03 (at node 11)
Accepted flit rate average= 0.0194375
	minimum = 0.013 (at node 3)
	maximum = 0.03 (at node 14)
Injected packet length average = 1
Accepted packet length average = 1
Total in-flight flits = 9 (9 measured)
latency change    = 0.0441797
throughput change = 0.0868167
Class 0:
Packet latency average = 19.1142
	minimum = 7
	maximum = 38
Network latency average = 19.1142
	minimum = 7
	maximum = 38
Slowest packet = 10984
Flit latency average = 19.1942
	minimum = 7
	maximum = 38
Slowest flit = 10984
Fragmentation average = 0
	minimum = 0
	maximum = 0
Injected packet rate average = 0.0192187
	minimum = 0.014 (at node 3)
	maximum = 0.026 (at node 7)
Accepted packet rate average = 0.0194687
	minimum = 0.014 (at node 1)
	maximum = 0.0265 (at node 13)
Injected flit rate average = 0.0192187
	minimum = 0.014 (at node 3)
	maximum = 0.026 (at node 7)
Accepted flit rate average= 0.0194687
	minimum = 0.014 (at node 1)
	maximum = 0.0265 (at node 13)
Injected packet length average = 1
Accepted packet length average = 1
Total in-flight flits = 2 (2 measured)
latency change    = 0.00267181
throughput change = 0.00160514
Class 0:
Packet latency average = 19.2696
	minimum = 7
	maximum = 38
Network latency average = 19.2696
	minimum = 7
	maximum = 38
Slowest packet = 10984
Flit latency average = 19.3215
	minimum = 7
	maximum = 38
Slowest flit = 10984
Fragmentation average = 0
	minimum = 0
	maximum = 0
Injected packet rate average = 0.0193125
	minimum = 0.016 (at node 13)
	maximum = 0.0246667 (at node 7)
Accepted packet rate average = 0.019375
	minimum = 0.0163333 (at node 7)
	maximum = 0.0246667 (at node 13)
Injected flit rate average = 0.0193125
	minimum = 0.016 (at node 13)
	maximum = 0.0246667 (at node 7)
Accepted flit rate average= 0.019375
	minimum = 0.0163333 (at node 7)
	maximum = 0.0246667 (at node 13)
Injected packet length average = 1
Accepted packet length average = 1
Total in-flight flits = 7 (7 measured)
latency change    = 0.00806312
throughput change = 0.00483871
Class 0:
Packet latency average = 19.2802
	minimum = 7
	maximum = 38
Network latency average = 19.2802
	minimum = 7
	maximum = 38
Slowest packet = 10984
Flit latency average = 19.3193
	minimum = 7
	maximum = 38
Slowest flit = 10984
Fragmentation average = 0
	minimum = 0
	maximum = 0
Injected packet rate average = 0.0192344
	minimum = 0.01625 (at node 0)
	maximum = 0.02375 (at node 7)
Accepted packet rate average = 0.0192812
	minimum = 0.01625 (at node 0)
	maximum = 0.02325 (at node 13)
Injected flit rate average = 0.0192344
	minimum = 0.01625 (at node 0)
	maximum = 0.02375 (at node 7)
Accepted flit rate average= 0.0192812
	minimum = 0.01625 (at node 0)
	maximum = 0.02325 (at node 13)
Injected packet length average = 1
Accepted packet length average = 1
Total in-flight flits = 7 (7 measured)
latency change    = 0.000553082
throughput change = 0.00486224
Draining all recorded packets ...
Draining remaining packets ...
Time taken is 7043 cycles
Class 0:
Packet latency average = 19.0796
	minimum = 7
	maximum = 37
Network latency average = 19.0796
	minimum = 7
	maximum = 37
Slowest packet = 11840
Flit latency average = 19.0796
	minimum = 7
	maximum = 37
Slowest flit = 11840
Fragmentation average = 0
	minimum = 0
	maximum = 0
Injected packet rate average = 0.0199375
	minimum = 0.013 (at node 5)
	maximum = 0.032 (at node 0)
Accepted packet rate average = 0.019625
	minimum = 0.013 (at node 5)
	maximum = 0.032 (at node 0)
Injected flit rate average = 0.0199375
	minimum = 0.013 (at node 5)
	maximum = 0.032 (at node 0)
Accepted flit rate average= 0.019625
	minimum = 0.013 (at node 5)
	maximum = 0.032 (at node 0)
Injected packet length average = 1
Accepted packet length average = 1
Total in-flight flits = 5 (0 measured)
latency change    = 1
throughput change = 1
Class 0:
Packet latency average = 19.8386
	minimum = 7
	maximum = 39
Network latency average = 19.8386
	minimum = 7
	maximum = 39
Slowest packet = 12363
Flit latency average = 19.8386
	minimum = 7
	maximum = 39
Slowest flit = 12363
Fragmentation average = 0
	minimum = 0
	maximum = 0
Injected packet rate average = 0.018875
	minimum = 0.015 (at node 5)
	maximum = 0.0255 (at node 0)
Accepted packet rate average = 0.0187812
	minimum = 0.015 (at node 5)
	maximum = 0.0255 (at node 0)
Injected flit rate average = 0.018875
	minimum = 0.015 (at node 5)
	maximum = 0.0255 (at node 0)
Accepted flit rate average= 0.0187812
	minimum = 0.015 (at node 5)
	maximum = 0.0255 (at node 0)
Injected packet length average = 1
Accepted packet length average = 1
Total in-flight flits = 3 (0 measured)
latency change    = 0.038258
throughput change = 0.0449251
Class 0:
Packet latency average = 19.7115
	minimum = 7
	maximum = 38
Network latency average = 19.7115
	minimum = 7
	maximum = 38
Slowest packet = 12626
Flit latency average = 19.7115
	minimum = 7
	maximum = 38
Slowest flit = 12626
Fragmentation average = 0
	minimum = 0
	maximum = 0
Injected packet rate average = 0.0198125
	minimum = 0.012 (at node 13)
	maximum = 0.026 (at node 11)
Accepted packet rate average = 0.0195
	minimum = 0.012 (at node 7)
	maximum = 0.027 (at node 14)
Injected flit rate average = 0.0198125
	minimum = 0.012 (at node 13)
	maximum = 0.026 (at node 11)
Accepted flit rate average= 0.0195
	minimum = 0.012 (at node 7)
	maximum = 0.027 (at node 14)
Injected packet length average = 1
Accepted packet length average = 1
Total in-flight flits = 8 (0 measured)
latency change    = 0.00644617
throughput change = 0.036859
Warmed up ...Time used is 3000 cycles
Class 0:
Packet latency average = 19.5461
	minimum = 7
	maximum = 38
Network latency average = 19.5461
	minimum = 7
	maximum = 38
Slowest packet = 12916
Flit latency average = 19.7372
	minimum = 7
	maximum = 38
Slowest flit = 12916
Fragmentation average = 0
	minimum = 0
	maximum = 0
Injected packet rate average = 0.01925
	minimum = 0.014 (at node 0)
	maximum = 0.026 (at node 1)
Accepted packet rate average = 0.0195
	minimum = 0.014 (at node 11)
	maximum = 0.026 (at node 4)
Injected flit rate average = 0.01925
	minimum = 0.014 (at node 0)
	maximum = 0.026 (at node 1)
Accepted flit rate average= 0.0195
	minimum = 0.014 (at node 11)
	maximum = 0.026 (at node 4)
Injected packet length average = 1
Accepted packet length average = 1
Total in-flight flits = 4 (4 measured)
latency change    = 0.00846646
throughput change = 0
Class 0:
Packet latency average = 19.2857
	minimum = 7
	maximum = 38
Network latency average = 19.2857
	minimum = 7
	maximum = 38
Slowest packet = 12916
Flit latency average = 19.3814
	minimum = 7
	maximum = 38
Slowest flit = 12916
Fragmentation average = 0
	minimum = 0
	maximum = 0
Injected packet rate average = 0.02
	minimum = 0.0145 (at node 2)
	maximum = 0.023 (at node 8)
Accepted packet rate average = 0.0201563
	minimum = 0.015 (at node 8)
	maximum = 0.0235 (at node 2)
Injected flit rate average = 0.02
	minimum = 0.0145 (at node 2)
	maximum = 0.023 (at node 8)
Accepted flit rate average= 0.0201563
	minimum = 0.015 (at node 8)
	maximum = 0.0235 (at node 2)
Injected packet length average = 1
Accepted packet length average = 1
Total in-flight flits = 3 (3 measured)
latency change    = 0.013499
throughput change = 0.0325581
Class 0:
Packet latency average = 19.069
	minimum = 7
	maximum = 38
Network latency average = 19.069
	minimum = 7
	maximum = 38
Slowest packet = 12916
Flit latency average = 19.1389
	minimum = 7
	maximum = 38
Slowest flit = 12916
Fragmentation average = 0
	minimum = 0
	maximum = 0
Injected packet rate average = 0.0188125
	minimum = 0.015 (at node 12)
	maximum = 0.0213333 (at node 10)
Accepted packet rate average = 0.0188958
	minimum = 0.0156667 (at node 3)
	maximum = 0.0213333 (at node 10)
Injected flit rate average = 0.0188125
	minimum = 0.015 (at node 12)
	maximum = 0.0213333 (at node 10)
Accepted flit rate average= 0.0188958
	minimum = 0.0156667 (at node 3)
	maximum = 0.0213333 (at node 10)
Injected packet length average = 1
Accepted packet length average = 1
Total in-flight flits = 4 (4 measured)
latency change    = 0.0113666
throughput change = 0.0667034
Class 0:
Packet latency average = 19.0958
	minimum = 7
	maximum = 38
Network latency average = 19.0958
	minimum = 7
	maximum = 38
Slowest packet = 12916
Flit latency average = 19.1468
	minimum = 7
	maximum = 38
Slowest flit = 12916
Fragmentation average = 0
	minimum = 0
	maximum = 0
Injected packet rate average = 0.0193906
	minimum = 0.01625 (at node 12)
	maximum = 0.0235 (at node 10)
Accepted packet rate average = 0.019375
	minimum = 0.0165 (at node 3)
	maximum = 0.0235 (at node 10)
Injected flit rate average = 0.0193906
	minimum = 0.01625 (at node 12)
	maximum = 0.0235 (at node 10)
Accepted flit rate average= 0.019375
	minimum = 0.0165 (at node 3)
	maximum = 0.0235 (at node 10)
Injected packet length average = 1
Accepted packet length average = 1
Total in-flight flits = 9 (9 measured)
latency change    = 0.00140417
throughput change = 0.0247312
Class 0:
Packet latency average = 19.1158
	minimum = 7
	maximum = 38
Network latency average = 19.1158
	minimum = 7
	maximum = 38
Slowest packet = 12916
Flit latency average = 19.1561
	minimum = 7
	maximum = 38
Slowest flit = 12916
Fragmentation average = 0
	minimum = 0
	maximum = 0
Injected packet rate average = 0.019475
	minimum = 0.0168 (at node 2)
	maximum = 0.0232 (at node 10)
Accepted packet rate average = 0.0195375
	minimum = 0.017 (at node 8)
	maximum = 0.0232 (at node 10)
Injected flit rate average = 0.019475
	minimum = 0.0168 (at node 2)
	maximum = 0.0232 (at node 10)
Accepted flit rate average= 0.0195375
	minimum = 0.017 (at node 8)
	maximum = 0.0232 (at node 10)
Injected packet length average = 1
Accepted packet length average = 1
Total in-flight flits = 3 (3 measured)
latency change    = 0.00104502
throughput change = 0.00831734
Class 0:
Packet latency average = 19.3614
	minimum = 7
	maximum = 38
Network latency average = 19.3614
	minimum = 7
	maximum = 38
Slowest packet = 12916
Flit latency average = 19.394
	minimum = 7
	maximum = 38
Slowest flit = 12916
Fragmentation average = 0
	minimum = 0
	maximum = 0
Injected packet rate average = 0.0194896
	minimum = 0.0173333 (at node 7)
	maximum = 0.0225 (at node 10)
Accepted packet rate average = 0.0195104
	minimum = 0.0176667 (at node 13)
	maximum = 0.0225 (at node 10)
Injected flit rate average = 0.0194896
	minimum = 0.0173333 (at node 7)
	maximum = 0.0225 (at node 10)
Accepted flit rate average= 0.0195104
	minimum = 0.0176667 (at node 13)
	maximum = 0.0225 (at node 10)
Injected packet length average = 1
Accepted packet length average = 1
Total in-flight flits = 6 (6 measured)
latency change    = 0.012687
throughput change = 0.00138815
Draining all recorded packets ...
Draining remaining packets ...
Time taken is 9054 cycles
Class 0:
Packet latency average = 18.956
	minimum = 7
	maximum = 38
Network latency average = 18.956
	minimum = 7
	maximum = 38
Slowest packet = 14730
Flit latency average = 18.956
	minimum = 7
	maximum = 38
Slowest flit = 14730
Fragmentation average = 0
	minimum = 0
	maximum = 0
Injected packet rate average = 0.0215
	minimum = 0.014 (at node 2)
	maximum = 0.03 (at node 4)
Accepted packet rate average = 0.0213125
	minimum = 0.014 (at node 8)
	maximum = 0.03 (at node 1)
Injected flit rate average = 0.0215
	minimum = 0.014 (at node 2)
	maximum = 0.03 (at node 4)
Accepted flit rate average= 0.0213125
	minimum = 0.014 (at node 8)
	maximum = 0.03 (at node 1)
Injected packet length average = 1
Accepted packet length average = 1
Total in-flight flits = 3 (0 measured)
latency change    = 1
throughput change = 1
Class 0:
Packet latency average = 19.1184
	minimum = 7
	maximum = 38
Network latency average = 19.1184
	minimum = 7
	maximum = 38
Slowest packet = 14730
Flit latency average = 19.1184
	minimum = 7
	maximum = 38
Slowest flit = 14730
Fragmentation average = 0
	minimum = 0
	maximum = 0
Injected packet rate average = 0.0215
	minimum = 0.0155 (at node 2)
	maximum = 0.0265 (at node 4)
Accepted packet rate average = 0.021375
	minimum = 0.0155 (at node 8)
	maximum = 0.0265 (at node 1)
Injected flit rate average = 0.0215
	minimum = 0.0155 (at node 2)
	maximum = 0.0265 (at node 4)
Accepted flit rate average= 0.021375
	minimum = 0.0155 (at node 8)
	maximum = 0.0265 (at node 1)
Injected packet length average = 1
Accepted packet length average = 1
Total in-flight flits = 4 (0 measured)
latency change    = 0.00849491
throughput change = 0.00292398
Class 0:
Packet latency average = 19.2078
	minimum = 7
	maximum = 38
Network latency average = 19.2078
	minimum = 7
	maximum = 38
Slowest packet = 15412
Flit latency average = 19.2078
	minimum = 7
	maximum = 38
Slowest flit = 15412
Fragmentation average = 0
	minimum = 0
	maximum = 0
Injected packet rate average = 0.0208125
	minimum = 0.016 (at node 12)
	maximum = 0.025 (at node 0)
Accepted packet rate average = 0.02075
	minimum = 0.016 (at node 3)
	maximum = 0.025 (at node 0)
Injected flit rate average = 0.0208125
	minimum = 0.016 (at node 12)
	maximum = 0.025 (at node 0)
Accepted flit rate average= 0.02075
	minimum = 0.016 (at node 3)
	maximum = 0.025 (at node 0)
Injected packet length average = 1
Accepted packet length average = 1
Total in-flight flits = 5 (0 measured)
latency change    = 0.00465489
throughput change = 0.0301205
Warmed up ...Time used is 3000 cycles
Class 0:
Packet latency average = 19.1065
	minimum = 7
	maximum = 38
Network latency average = 19.1065
	minimum = 7
	maximum = 38
Slowest packet = 15887
Flit latency average = 19.2635
	minimum = 7
	maximum = 38
Slowest flit = 15887
Fragmentation average = 0
	minimum = 0
	maximum = 0
Injected packet rate average = 0.019875
	minimum = 0.013 (at node 12)
	maximum = 0.028 (at node 1)
Accepted packet rate average = 0.0196875
	minimum = 0.013 (at node 6)
	maximum = 0.029 (at node 4)
Injected flit rate average = 0.019875
	minimum = 0.013 (at node 12)
	maximum = 0.028 (at node 1)
Accepted flit rate average= 0.0196875
	minimum = 0.013 (at node 6)
	maximum = 0.029 (at node 4)
Injected packet length average = 1
Accepted packet length average = 1
Total in-flight flits = 8 (8 measured)
latency change    = 0.00530605
throughput change = 0.0539683
Class 0:
Packet latency average = 19.1013
	minimum = 7
	maximum = 38
Network latency average = 19.1013
	minimum = 7
	maximum = 38
Slowest packet = 15887
Flit latency average = 19.179
	minimum = 7
	maximum = 38
Slowest flit = 15887
Fragmentation average = 0
	minimum = 0
	maximum = 0
Injected packet rate average = 0.0198125
	minimum = 0.017 (at node 7)
	maximum = 0.0245 (at node 1)
Accepted packet rate average = 0.0199063
	minimum = 0.017 (at node 2)
	maximum = 0.0245 (at node 4)
Injected flit rate average = 0.0198125
	minimum = 0.017 (at node 7)
	maximum = 0.0245 (at node 1)
Accepted flit rate average= 0.0199063
	minimum = 0.017 (at node 2)
	maximum = 0.0245 (at node 4)
Injected packet length average = 1
Accepted packet length average = 1
Total in-flight flits = 2 (2 measured)
latency change    = 0.000271489
throughput change = 0.010989
Class 0:
Packet latency average = 19.1987
	minimum = 7
	maximum = 38
Network latency average = 19.1987
	minimum = 7
	maximum = 38
Slowest packet = 15887
Flit latency average = 19.2497
	minimum = 7
	maximum = 38
Slowest flit = 15887
Fragmentation average = 0
	minimum = 0
	maximum = 0
Injected packet rate average = 0.0200833
	minimum = 0.0166667 (at node 8)
	maximum = 0.0233333 (at node 6)
Accepted packet rate average = 0.0200208
	minimum = 0.0163333 (at node 2)
	maximum = 0.0236667 (at node 9)
Injected flit rate average = 0.0200833
	minimum = 0.0166667 (at node 8)
	maximum = 0.0233333 (at node 6)
Accepted flit rate average= 0.0200208
	minimum = 0.0163333 (at node 2)
	maximum = 0.0236667 (at node 9)
Injected packet length average = 1
Accepted packet length average = 1
Total in-flight flits = 8 (8 measured)
latency change    = 0.00507736
throughput change = 0.0057232
Class 0:
Packet latency average = 19.5233
	minimum = 7
	maximum = 38
Network latency average = 19.5233
	minimum = 7
	maximum = 38
Slowest packet = 15887
Flit latency average = 19.56
	minimum = 7
	maximum = 38
Slowest flit = 15887
Fragmentation average = 0
	minimum = 0
	maximum = 0
Injected packet rate average = 0.0201875
	minimum = 0.0165 (at node 11)
	maximum = 0.0235 (at node 5)
Accepted packet rate average = 0.0201719
	minimum = 0.0165 (at node 14)
	maximum = 0.0235 (at node 5)
Injected flit rate average = 0.0201875
	minimum = 0.0165 (at node 11)
	maximum = 0.0235 (at node 5)
Accepted flit rate average= 0.0201719
	minimum = 0.0165 (at node 14)
	maximum = 0.0235 (at node 5)
Injected packet length average = 1
Accepted packet length average = 1
Total in-flight flits = 6 (6 measured)
latency change    = 0.0166254
throughput change = 0.00748774
Draining all recorded packets ...
Draining remaining packets ...
Time taken is 7060 cycles
Class 0:
Packet latency average = 20.4046
	minimum = 7
	maximum = 39
Network latency average = 20.4046
	minimum = 7
	maximum = 39
Slowest packet = 17131
Flit latency average = 20.4046
	minimum = 7
	maximum = 39
Slowest flit = 17131
Fragmentation average = 0
	minimum = 0
	maximum = 0
Injected packet rate average = 0.0194375
	minimum = 0.012 (at node 4)
	maximum = 0.034 (at node 2)
Accepted packet rate average = 0.019
	minimum = 0.011 (at node 1)
	maximum = 0.033 (at node 8)
Injected flit rate average = 0.0194375
	minimum = 0.012 (at node 4)
	maximum = 0.034 (at node 2)
Accepted flit rate average= 0.019
	minimum = 0.011 (at node 1)
	maximum = 0.033 (at node 8)
Injected packet length average = 1
Accepted packet length average = 1
Total in-flight flits = 7 (0 measured)
latency change    = 1
throughput change = 1
Class 0:
Packet latency average = 20
	minimum = 7
	maximum = 39
Network latency average = 20
	minimum = 7
	maximum = 39
Slowest packet = 17131
Flit latency average = 20
	minimum = 7
	maximum = 39
Slowest flit = 17131
Fragmentation average = 0
	minimum = 0
	maximum = 0
Injected packet rate average = 0.019625
	minimum = 0.0145 (at node 10)
	maximum = 0.027 (at node 2)
Accepted packet rate average = 0.0194375
	minimum = 0.0145 (at node 10)
	maximum = 0.026 (at node 8)
Injected flit rate average = 0.019625
	minimum = 0.0145 (at node 10)
	maximum = 0.027 (at node 2)
Accepted flit rate average= 0.0194375
	minimum = 0.0145 (at node 10)
	maximum = 0.026 (at node 8)
Injected packet length average = 1
Accepted packet length average = 1
Total in-flight flits = 6 (0 measured)
latency change    = 0.0202303
throughput change = 0.022508
Class 0:
Packet latency average = 19.0694
	minimum = 7
	maximum = 38
Network latency average = 19.0694
	minimum = 7
	maximum = 38
Slowest packet = 17655
Flit latency average = 19.0694
	minimum = 7
	maximum = 38
Slowest flit = 17655
Fragmentation average = 0
	minimum = 0
	maximum = 0
Injected packet rate average = 0.0196875
	minimum = 0.011 (at node 2)
	maximum = 0.025 (at node 4)
Accepted packet rate average = 0.0198125
	minimum = 0.013 (at node 8)
	maximum = 0.025 (at node 1)
Injected flit rate average = 0.0196875
	minimum = 0.011 (at node 2)
	maximum = 0.025 (at node 4)
Accepted flit rate average= 0.0198125
	minimum = 0.013 (at node 8)
	maximum = 0.025 (at node 1)
Injected packet length average = 1
Accepted packet length average = 1
Total in-flight flits = 4 (0 measured)
latency change    = 0.0488007
throughput change = 0.0189274
Warmed up ...Time used is 3000 cycles
Class 0:
Packet latency average = 18.3621
	minimum = 7
	maximum = 38
Network latency average = 18.3621
	minimum = 7
	maximum = 38
Slowest packet = 18178
Flit latency average = 18.375
	minimum = 7
	maximum = 38
Slowest flit = 18178
Fragmentation average = 0
	minimum = 0
	maximum = 0
Injected packet rate average = 0.022125
	minimum = 0.014 (at node 7)
	maximum = 0.031 (at node 9)
Accepted packet rate average = 0.022
	minimum = 0.014 (at node 7)
	maximum = 0.03 (at node 6)
Injected flit rate average = 0.022125
	minimum = 0.014 (at node 7)
	maximum = 0.031 (at node 9)
Accepted flit rate average= 0.022
	minimum = 0.014 (at node 7)
	maximum = 0.03 (at node 6)
Injected packet length average = 1
Accepted packet length average = 1
Total in-flight flits = 6 (6 measured)
latency change    = 0.0385213
throughput change = 0.0994318
Class 0:
Packet latency average = 18.864
	minimum = 7
	maximum = 38
Network latency average = 18.864
	minimum = 7
	maximum = 38
Slowest packet = 18178
Flit latency average = 18.8678
	minimum = 7
	maximum = 38
Slowest flit = 18178
Fragmentation average = 0
	minimum = 0
	maximum = 0
Injected packet rate average = 0.021125
	minimum = 0.014 (at node 7)
	maximum = 0.027 (at node 9)
Accepted packet rate average = 0.0210313
	minimum = 0.0135 (at node 13)
	maximum = 0.027 (at node 10)
Injected flit rate average = 0.021125
	minimum = 0.014 (at node 7)
	maximum = 0.027 (at node 9)
Accepted flit rate average= 0.0210313
	minimum = 0.0135 (at node 13)
	maximum = 0.027 (at node 10)
Injected packet length average = 1
Accepted packet length average = 1
Total in-flight flits = 7 (7 measured)
latency change    = 0.0266066
throughput change = 0.0460624
Class 0:
Packet latency average = 19.1035
	minimum = 7
	maximum = 39
Network latency average = 19.1035
	minimum = 7
	maximum = 39
Slowest packet = 18601
Flit latency average = 19.1051
	minimum = 7
	maximum = 39
Slowest flit = 18601
Fragmentation average = 0
	minimum = 0
	maximum = 0
Injected packet rate average = 0.021875
	minimum = 0.0176667 (at node 7)
	maximum = 0.0263333 (at node 8)
Accepted packet rate average = 0.0218125
	minimum = 0.0173333 (at node 13)
	maximum = 0.026 (at node 2)
Injected flit rate average = 0.021875
	minimum = 0.0176667 (at node 7)
	maximum = 0.0263333 (at node 8)
Accepted flit rate average= 0.0218125
	minimum = 0.0173333 (at node 13)
	maximum = 0.026 (at node 2)
Injected packet length average = 1
Accepted packet length average = 1
Total in-flight flits = 7 (7 measured)
latency change    = 0.0125407
throughput change = 0.0358166
Class 0:
Packet latency average = 19.2458
	minimum = 7
	maximum = 39
Network latency average = 19.2458
	minimum = 7
	maximum = 39
Slowest packet = 18601
Flit latency average = 19.2466
	minimum = 7
	maximum = 39
Slowest flit = 18601
Fragmentation average = 0
	minimum = 0
	maximum = 0
Injected packet rate average = 0.0216094
	minimum = 0.01825 (at node 11)
	maximum = 0.02625 (at node 8)
Accepted packet rate average = 0.0215469
	minimum = 0.01825 (at node 14)
	maximum = 0.02625 (at node 2)
Injected flit rate average = 0.0216094
	minimum = 0.01825 (at node 11)
	maximum = 0.02625 (at node 8)
Accepted flit rate average= 0.0215469
	minimum = 0.01825 (at node 14)
	maximum = 0.02625 (at node 2)
Injected packet length average = 1
Accepted packet length average = 1
Total in-flight flits = 8 (8 measured)
latency change    = 0.00739229
throughput change = 0.0123278
Draining all recorded packets ...
Draining remaining packets ...
Time taken is 7052 cycles
Class 0:
Packet latency average = 19.1201
	minimum = 7
	maximum = 43
Network latency average = 19.1201
	minimum = 7
	maximum = 43
Slowest packet = 19533
Flit latency average = 19.1201
	minimum = 7
	maximum = 43
Slowest flit = 19533
Fragmentation average = 0
	minimum = 0
	maximum = 0
Injected packet rate average = 0.01975
	minimum = 0.013 (at node 2)
	maximum = 0.029 (at node 13)
Accepted packet rate average = 0.01925
	minimum = 0.013 (at node 8)
	maximum = 0.028 (at node 7)
Injected flit rate average = 0.01975
	minimum = 0.013 (at node 2)
	maximum = 0.029 (at node 13)
Accepted flit rate average= 0.01925
	minimum = 0.013 (at node 8)
	maximum = 0.028 (at node 7)
Injected packet length average = 1
Accepted packet length average = 1
Total in-flight flits = 8 (0 measured)
latency change    = 1
throughput change = 1
Class 0:
Packet latency average = 19.596
	minimum = 7
	maximum = 43
Network latency average = 19.596
	minimum = 7
	maximum = 43
Slowest packet = 19533
Flit latency average = 19.596
	minimum = 7
	maximum = 43
Slowest flit = 19533
Fragmentation average = 0
	minimum = 0
	maximum = 0
Injected packet rate average = 0.0190937
	minimum = 0.015 (at node 12)
	maximum = 0.028 (at node 13)
Accepted packet rate average = 0.0187187
	minimum = 0.014 (at node 3)
	maximum = 0.0275 (at node 7)
Injected flit rate average = 0.0190937
	minimum = 0.015 (at node 12)
	maximum = 0.028 (at node 13)
Accepted flit rate average= 0.0187187
	minimum = 0.014 (at node 3)
	maximum = 0.0275 (at node 7)
Injected packet length average = 1
Accepted packet length average = 1
Total in-flight flits = 12 (0 measured)
latency change    = 0.0242837
throughput change = 0.0283806
Class 0:
Packet latency average = 19.0162
	minimum = 7
	maximum = 37
Network latency average = 19.0162
	minimum = 7
	maximum = 37
Slowest packet = 19887
Flit latency average = 19.0162
	minimum = 7
	maximum = 37
Slowest flit = 19887
Fragmentation average = 0
	minimum = 0
	maximum = 0
Injected packet rate average = 0.0186875
	minimum = 0.012 (at node 11)
	maximum = 0.03 (at node 15)
Accepted packet rate average = 0.01925
	minimum = 0.013 (at node 12)
	maximum = 0.03 (at node 15)
Injected flit rate average = 0.0186875
	minimum = 0.012 (at node 11)
	maximum = 0.03 (at node 15)
Accepted flit rate average= 0.01925
	minimum = 0.013 (at node 12)
	maximum = 0.03 (at node 15)
Injected packet length average = 1
Accepted packet length average = 1
Total in-flight flits = 3 (0 measured)
latency change    = 0.0304876
throughput change = 0.0275974
Warmed up ...Time used is 3000 cycles
Class 0:
Packet latency average = 18.3918
	minimum = 7
	maximum = 38
Network latency average = 18.3918
	minimum = 7
	maximum = 38
Slowest packet = 20331
Flit latency average = 18.5652
	minimum = 7
	maximum = 38
Slowest flit = 20331
Fragmentation average = 0
	minimum = 0
	maximum = 0
Injected packet rate average = 0.0200625
	minimum = 0.012 (at node 12)
	maximum = 0.036 (at node 6)
Accepted packet rate average = 0.020125
	minimum = 0.013 (at node 1)
	maximum = 0.036 (at node 9)
Injected flit rate average = 0.0200625
	minimum = 0.012 (at node 12)
	maximum = 0.036 (at node 6)
Accepted flit rate average= 0.020125
	minimum = 0.013 (at node 1)
	maximum = 0.036 (at node 9)
Injected packet length average = 1
Accepted packet length average = 1
Total in-flight flits = 2 (2 measured)
latency change    = 0.033949
throughput change = 0.0434783
Class 0:
Packet latency average = 18.4942
	minimum = 7
	maximum = 38
Network latency average = 18.4942
	minimum = 7
	maximum = 38
Slowest packet = 20331
Flit latency average = 18.5864
	minimum = 7
	maximum = 38
Slowest flit = 20331
Fragmentation average = 0
	minimum = 0
	maximum = 0
Injected packet rate average = 0.0191875
	minimum = 0.013 (at node 3)
	maximum = 0.0275 (at node 6)
Accepted packet rate average = 0.0188125
	minimum = 0.0135 (at node 12)
	maximum = 0.027 (at node 9)
Injected flit rate average = 0.0191875
	minimum = 0.013 (at node 3)
	maximum = 0.0275 (at node 6)
Accepted flit rate average= 0.0188125
	minimum = 0.0135 (at node 12)
	maximum = 0.027 (at node 9)
Injected packet length average = 1
Accepted packet length average = 1
Total in-flight flits = 15 (15 measured)
latency change    = 0.00553188
throughput change = 0.0697674
Class 0:
Packet latency average = 18.8637
	minimum = 7
	maximum = 39
Network latency average = 18.8637
	minimum = 7
	maximum = 39
Slowest packet = 20901
Flit latency average = 18.9233
	minimum = 7
	maximum = 39
Slowest flit = 20901
Fragmentation average = 0
	minimum = 0
	maximum = 0
Injected packet rate average = 0.019
	minimum = 0.0143333 (at node 3)
	maximum = 0.023 (at node 11)
Accepted packet rate average = 0.0190208
	minimum = 0.015 (at node 7)
	maximum = 0.023 (at node 14)
Injected flit rate average = 0.019
	minimum = 0.0143333 (at node 3)
	maximum = 0.023 (at node 11)
Accepted flit rate average= 0.0190208
	minimum = 0.015 (at node 7)
	maximum = 0.023 (at node 14)
Injected packet length average = 1
Accepted packet length average = 1
Total in-flight flits = 2 (2 measured)
latency change    = 0.0195921
throughput change = 0.0109529
Class 0:
Packet latency average = 19.0434
	minimum = 7
	maximum = 39
Network latency average = 19.0434
	minimum = 7
	maximum = 39
Slowest packet = 20901
Flit latency average = 19.0858
	minimum = 7
	maximum = 39
Slowest flit = 20901
Fragmentation average = 0
	minimum = 0
	maximum = 0
Injected packet rate average = 0.0199688
	minimum = 0.01525 (at node 3)
	maximum = 0.0235 (at node 11)
Accepted packet rate average = 0.0198594
	minimum = 0.01575 (at node 12)
	maximum = 0.02325 (at node 14)
Injected flit rate average = 0.0199688
	minimum = 0.01525 (at node 3)
	maximum = 0.0235 (at node 11)
Accepted flit rate average= 0.0198594
	minimum = 0.01575 (at node 12)
	maximum = 0.02325 (at node 14)
Injected packet length average = 1
Accepted packet length average = 1
Total in-flight flits = 10 (10 measured)
latency change    = 0.00943316
throughput change = 0.042224
Class 0:
Packet latency average = 19.107
	minimum = 7
	maximum = 39
Network latency average = 19.107
	minimum = 7
	maximum = 39
Slowest packet = 20901
Flit latency average = 19.1407
	minimum = 7
	maximum = 39
Slowest flit = 20901
Fragmentation average = 0
	minimum = 0
	maximum = 0
Injected packet rate average = 0.019925
	minimum = 0.0152 (at node 3)
	maximum = 0.024 (at node 11)
Accepted packet rate average = 0.0199
	minimum = 0.0154 (at node 12)
	maximum = 0.024 (at node 14)
Injected flit rate average = 0.019925
	minimum = 0.0152 (at node 3)
	maximum = 0.024 (at node 11)
Accepted flit rate average= 0.0199
	minimum = 0.0154 (at node 12)
	maximum = 0.024 (at node 14)
Injected packet length average = 1
Accepted packet length average = 1
Total in-flight flits = 5 (5 measured)
latency change    = 0.00332916
throughput change = 0.00204146
Draining all recorded packets ...
Draining remaining packets ...
Time taken is 8017 cycles
Class 0:
Packet latency average = 18.9325
	minimum = 7
	maximum = 37
Network latency average = 18.9325
	minimum = 7
	maximum = 37
Slowest packet = 21805
Flit latency average = 18.9325
	minimum = 7
	maximum = 37
Slowest flit = 21805
Fragmentation average = 0
	minimum = 0
	maximum = 0
Injected packet rate average = 0.02025
	minimum = 0.013 (at node 6)
	maximum = 0.028 (at node 0)
Accepted packet rate average = 0.0194375
	minimum = 0.013 (at node 9)
	maximum = 0.028 (at node 0)
Injected flit rate average = 0.02025
	minimum = 0.013 (at node 6)
	maximum = 0.028 (at node 0)
Accepted flit rate average= 0.0194375
	minimum = 0.013 (at node 9)
	maximum = 0.028 (at node 0)
Injected packet length average = 1
Accepted packet length average = 1
Total in-flight flits = 13 (0 measured)
latency change    = 1
throughput change = 1
Class 0:
Packet latency average = 18.9547
	minimum = 7
	maximum = 38
Network latency average = 18.9547
	minimum = 7
	maximum = 38
Slowest packet = 22365
Flit latency average = 18.9547
	minimum = 7
	maximum = 38
Slowest flit = 22365
Fragmentation average = 0
	minimum = 0
	maximum = 0
Injected packet rate average = 0.0195625
	minimum = 0.015 (at node 3)
	maximum = 0.0245 (at node 1)
Accepted packet rate average = 0.0193125
	minimum = 0.015 (at node 12)
	maximum = 0.0245 (at node 4)
Injected flit rate average = 0.0195625
	minimum = 0.015 (at node 3)
	maximum = 0.0245 (at node 1)
Accepted flit rate average= 0.0193125
	minimum = 0.015 (at node 12)
	maximum = 0.0245 (at node 4)
Injected packet length average = 1
Accepted packet length average = 1
Total in-flight flits = 8 (0 measured)
latency change    = 0.00117209
throughput change = 0.00647249
Class 0:
Packet latency average = 19.6535
	minimum = 7
	maximum = 37
Network latency average = 19.6535
	minimum = 7
	maximum = 37
Slowest packet = 22418
Flit latency average = 19.6535
	minimum = 7
	maximum = 37
Slowest flit = 22418
Fragmentation average = 0
	minimum = 0
	maximum = 0
Injected packet rate average = 0.020375
	minimum = 0.016 (at node 11)
	maximum = 0.029 (at node 8)
Accepted packet rate average = 0.0205625
	minimum = 0.016 (at node 14)
	maximum = 0.029 (at node 2)
Injected flit rate average = 0.020375
	minimum = 0.016 (at node 11)
	maximum = 0.029 (at node 8)
Accepted flit rate average= 0.0205625
	minimum = 0.016 (at node 14)
	maximum = 0.029 (at node 2)
Injected packet length average = 1
Accepted packet length average = 1
Total in-flight flits = 5 (0 measured)
latency change    = 0.0355562
throughput change = 0.0607903
Warmed up ...Time used is 3000 cycles
Class 0:
Packet latency average = 18.1536
	minimum = 7
	maximum = 37
Network latency average = 18.1536
	minimum = 7
	maximum = 37
Slowest packet = 22761
Flit latency average = 18.3439
	minimum = 7
	maximum = 37
Slowest flit = 22740
Fragmentation average = 0
	minimum = 0
	maximum = 0
Injected packet rate average = 0.017875
	minimum = 0.005 (at node 3)
	maximum = 0.024 (at node 11)
Accepted packet rate average = 0.0178125
	minimum = 0.006 (at node 12)
	maximum = 0.025 (at node 14)
Injected flit rate average = 0.017875
	minimum = 0.005 (at node 3)
	maximum = 0.024 (at node 11)
Accepted flit rate average= 0.0178125
	minimum = 0.006 (at node 12)
	maximum = 0.025 (at node 14)
Injected packet length average = 1
Accepted packet length average = 1
Total in-flight flits = 6 (6 measured)
latency change    = 0.0826242
throughput change = 0.154386
Class 0:
Packet latency average = 18.7678
	minimum = 7
	maximum = 38
Network latency average = 18.7678
	minimum = 7
	maximum = 38
Slowest packet = 23287
Flit latency average = 18.852
	minimum = 7
	maximum = 38
Slowest flit = 23287
Fragmentation average = 0
	minimum = 0
	maximum = 0
Injected packet rate average = 0.019
	minimum = 0.013 (at node 3)
	maximum = 0.023 (at node 8)
Accepted packet rate average = 0.019
	minimum = 0.0135 (at node 12)
	maximum = 0.023 (at node 2)
Injected flit rate average = 0.019
	minimum = 0.013 (at node 3)
	maximum = 0.023 (at node 8)
Accepted flit rate average= 0.019
	minimum = 0.0135 (at node 12)
	maximum = 0.023 (at node 2)
Injected packet length average = 1
Accepted packet length average = 1
Total in-flight flits = 5 (5 measured)
latency change    = 0.0327292
throughput change = 0.0625
Class 0:
Packet latency average = 19.1302
	minimum = 7
	maximum = 38
Network latency average = 19.1302
	minimum = 7
	maximum = 38
Slowest packet = 23287
Flit latency average = 19.1839
	minimum = 7
	maximum = 38
Slowest flit = 23287
Fragmentation average = 0
	minimum = 0
	maximum = 0
Injected packet rate average = 0.0191667
	minimum = 0.015 (at node 3)
	maximum = 0.023 (at node 8)
Accepted packet rate average = 0.0191458
	minimum = 0.0146667 (at node 12)
	maximum = 0.0226667 (at node 2)
Injected flit rate average = 0.0191667
	minimum = 0.015 (at node 3)
	maximum = 0.023 (at node 8)
Accepted flit rate average= 0.0191458
	minimum = 0.0146667 (at node 12)
	maximum = 0.0226667 (at node 2)
Injected packet length average = 1
Accepted packet length average = 1
Total in-flight flits = 6 (6 measured)
latency change    = 0.0189423
throughput change = 0.00761697
Class 0:
Packet latency average = 19.1656
	minimum = 7
	maximum = 38
Network latency average = 19.1656
	minimum = 7
	maximum = 38
Slowest packet = 23287
Flit latency average = 19.2057
	minimum = 7
	maximum = 38
Slowest flit = 23287
Fragmentation average = 0
	minimum = 0
	maximum = 0
Injected packet rate average = 0.0191719
	minimum = 0.0165 (at node 3)
	maximum = 0.023 (at node 0)
Accepted packet rate average = 0.0191406
	minimum = 0.01675 (at node 12)
	maximum = 0.023 (at node 0)
Injected flit rate average = 0.0191719
	minimum = 0.0165 (at node 3)
	maximum = 0.023 (at node 0)
Accepted flit rate average= 0.0191406
	minimum = 0.01675 (at node 12)
	maximum = 0.023 (at node 0)
Injected packet length average = 1
Accepted packet length average = 1
Total in-flight flits = 7 (7 measured)
latency change    = 0.00184585
throughput change = 0.000272109
Class 0:
Packet latency average = 19.1068
	minimum = 7
	maximum = 38
Network latency average = 19.1068
	minimum = 7
	maximum = 38
Slowest packet = 23287
Flit latency average = 19.1386
	minimum = 7
	maximum = 38
Slowest flit = 23287
Fragmentation average = 0
	minimum = 0
	maximum = 0
Injected packet rate average = 0.0195125
	minimum = 0.0166 (at node 3)
	maximum = 0.023 (at node 0)
Accepted packet rate average = 0.0194875
	minimum = 0.0168 (at node 12)
	maximum = 0.023 (at node 0)
Injected flit rate average = 0.0195125
	minimum = 0.0166 (at node 3)
	maximum = 0.023 (at node 0)
Accepted flit rate average= 0.0194875
	minimum = 0.0168 (at node 12)
	maximum = 0.023 (at node 0)
Injected packet length average = 1
Accepted packet length average = 1
Total in-flight flits = 7 (7 measured)
latency change    = 0.00307496
throughput change = 0.0177999
Draining all recorded packets ...
Draining remaining packets ...
Time taken is 8064 cycles
Class 0:
Packet latency average = 19.8867
	minimum = 7
	maximum = 37
Network latency average = 19.8867
	minimum = 7
	maximum = 37
Slowest packet = 24318
Flit latency average = 19.8867
	minimum = 7
	maximum = 37
Slowest flit = 24318
Fragmentation average = 0
	minimum = 0
	maximum = 0
Injected packet rate average = 0.019625
	minimum = 0.013 (at node 7)
	maximum = 0.026 (at node 3)
Accepted packet rate average = 0.0193125
	minimum = 0.013 (at node 13)
	maximum = 0.025 (at node 4)
Injected flit rate average = 0.019625
	minimum = 0.013 (at node 7)
	maximum = 0.026 (at node 3)
Accepted flit rate average= 0.0193125
	minimum = 0.013 (at node 13)
	maximum = 0.025 (at node 4)
Injected packet length average = 1
Accepted packet length average = 1
Total in-flight flits = 5 (0 measured)
latency change    = 1
throughput change = 1
Class 0:
Packet latency average = 19.4568
	minimum = 7
	maximum = 38
Network latency average = 19.4568
	minimum = 7
	maximum = 38
Slowest packet = 24887
Flit latency average = 19.4568
	minimum = 7
	maximum = 38
Slowest flit = 24887
Fragmentation average = 0
	minimum = 0
	maximum = 0
Injected packet rate average = 0.0202188
	minimum = 0.016 (at node 5)
	maximum = 0.024 (at node 1)
Accepted packet rate average = 0.0199063
	minimum = 0.016 (at node 2)
	maximum = 0.0235 (at node 4)
Injected flit rate average = 0.0202188
	minimum = 0.016 (at node 5)
	maximum = 0.024 (at node 1)
Accepted flit rate average= 0.0199063
	minimum = 0.016 (at node 2)
	maximum = 0.0235 (at node 4)
Injected packet length average = 1
Accepted packet length average = 1
Total in-flight flits = 10 (0 measured)
latency change    = 0.0220952
throughput change = 0.0298273
Class 0:
Packet latency average = 19.7556
	minimum = 7
	maximum = 38
Network latency average = 19.7556
	minimum = 7
	maximum = 38
Slowest packet = 24953
Flit latency average = 19.7556
	minimum = 7
	maximum = 38
Slowest flit = 24953
Fragmentation average = 0
	minimum = 0
	maximum = 0
Injected packet rate average = 0.0193125
	minimum = 0.01 (at node 15)
	maximum = 0.026 (at node 1)
Accepted packet rate average = 0.0196875
	minimum = 0.01 (at node 15)
	maximum = 0.027 (at node 4)
Injected flit rate average = 0.0193125
	minimum = 0.01 (at node 15)
	maximum = 0.026 (at node 1)
Accepted flit rate average= 0.0196875
	minimum = 0.01 (at node 15)
	maximum = 0.027 (at node 4)
Injected packet length average = 1
Accepted packet length average = 1
Total in-flight flits = 4 (0 measured)
latency change    = 0.0151211
throughput change = 0.0111111
Warmed up ...Time used is 3000 cycles
Class 0:
Packet latency average = 20.0732
	minimum = 7
	maximum = 38
Network latency average = 20.0732
	minimum = 7
	maximum = 38
Slowest packet = 25407
Flit latency average = 20.2233
	minimum = 7
	maximum = 38
Slowest flit = 25407
Fragmentation average = 0
	minimum = 0
	maximum = 0
Injected packet rate average = 0.0200625
	minimum = 0.013 (at node 6)
	maximum = 0.029 (at node 3)
Accepted packet rate average = 0.019875
	minimum = 0.013 (at node 9)
	maximum = 0.027 (at node 11)
Injected flit rate average = 0.0200625
	minimum = 0.013 (at node 6)
	maximum = 0.029 (at node 3)
Accepted flit rate average= 0.019875
	minimum = 0.013 (at node 9)
	maximum = 0.027 (at node 11)
Injected packet length average = 1
Accepted packet length average = 1
Total in-flight flits = 7 (7 measured)
latency change    = 0.0158267
throughput change = 0.00943396
Class 0:
Packet latency average = 19.827
	minimum = 7
	maximum = 38
Network latency average = 19.827
	minimum = 7
	maximum = 38
Slowest packet = 25407
Flit latency average = 19.9011
	minimum = 7
	maximum = 38
Slowest flit = 25407
Fragmentation average = 0
	minimum = 0
	maximum = 0
Injected packet rate average = 0.0205313
	minimum = 0.013 (at node 6)
	maximum = 0.0275 (at node 14)
Accepted packet rate average = 0.0205313
	minimum = 0.013 (at node 9)
	maximum = 0.0275 (at node 11)
Injected flit rate average = 0.0205313
	minimum = 0.013 (at node 6)
	maximum = 0.0275 (at node 14)
Accepted flit rate average= 0.0205313
	minimum = 0.013 (at node 9)
	maximum = 0.0275 (at node 11)
Injected packet length average = 1
Accepted packet length average = 1
Total in-flight flits = 4 (4 measured)
latency change    = 0.0124223
throughput change = 0.0319635
Class 0:
Packet latency average = 19.7636
	minimum = 7
	maximum = 38
Network latency average = 19.7636
	minimum = 7
	maximum = 38
Slowest packet = 25407
Flit latency average = 19.8146
	minimum = 7
	maximum = 38
Slowest flit = 25407
Fragmentation average = 0
	minimum = 0
	maximum = 0
Injected packet rate average = 0.0200625
	minimum = 0.0143333 (at node 6)
	maximum = 0.026 (at node 14)
Accepted packet rate average = 0.02
	minimum = 0.014 (at node 9)
	maximum = 0.026 (at node 11)
Injected flit rate average = 0.0200625
	minimum = 0.0143333 (at node 6)
	maximum = 0.026 (at node 14)
Accepted flit rate average= 0.02
	minimum = 0.014 (at node 9)
	maximum = 0.026 (at node 11)
Injected packet length average = 1
Accepted packet length average = 1
Total in-flight flits = 7 (7 measured)
latency change    = 0.0032056
throughput change = 0.0265625
Draining all recorded packets ...
Draining remaining packets ...
Time taken is 6042 cycles
Class 0:
Packet latency average = 18.314
	minimum = 7
	maximum = 38
Network latency average = 18.314
	minimum = 7
	maximum = 38
Slowest packet = 26497
Flit latency average = 18.314
	minimum = 7
	maximum = 38
Slowest flit = 26497
Fragmentation average = 0
	minimum = 0
	maximum = 0
Injected packet rate average = 0.0210625
	minimum = 0.013 (at node 3)
	maximum = 0.032 (at node 15)
Accepted packet rate average = 0.0205
	minimum = 0.013 (at node 12)
	maximum = 0.032 (at node 15)
Injected flit rate average = 0.0210625
	minimum = 0.013 (at node 3)
	maximum = 0.032 (at node 15)
Accepted flit rate average= 0.0205
	minimum = 0.013 (at node 12)
	maximum = 0.032 (at node 15)
Injected packet length average = 1
Accepted packet length average = 1
Total in-flight flits = 9 (0 measured)
latency change    = 1
throughput change = 1
Class 0:
Packet latency average = 19.0921
	minimum = 7
	maximum = 38
Network latency average = 19.0921
	minimum = 7
	maximum = 38
Slowest packet = 26497
Flit latency average = 19.0921
	minimum = 7
	maximum = 38
Slowest flit = 26497
Fragmentation average = 0
	minimum = 0
	maximum = 0
Injected packet rate average = 0.0194687
	minimum = 0.0125 (at node 0)
	maximum = 0.0245 (at node 5)
Accepted packet rate average = 0.0193437
	minimum = 0.0125 (at node 0)
	maximum = 0.0245 (at node 5)
Injected flit rate average = 0.0194687
	minimum = 0.0125 (at node 0)
	maximum = 0.0245 (at node 5)
Accepted flit rate average= 0.0193437
	minimum = 0.0125 (at node 0)
	maximum = 0.0245 (at node 5)
Injected packet length average = 1
Accepted packet length average = 1
Total in-flight flits = 4 (0 measured)
latency change    = 0.040753
throughput change = 0.0597738
Class 0:
Packet latency average = 19.3506
	minimum = 7
	maximum = 38
Network latency average = 19.3506
	minimum = 7
	maximum = 38
Slowest packet = 26883
Flit latency average = 19.3506
	minimum = 7
	maximum = 38
Slowest flit = 26883
Fragmentation average = 0
	minimum = 0
	maximum = 0
Injected packet rate average = 0.0193125
	minimum = 0.009 (at node 9)
	maximum = 0.028 (at node 2)
Accepted packet rate average = 0.01925
	minimum = 0.009 (at node 6)
	maximum = 0.028 (at node 2)
Injected flit rate average = 0.0193125
	minimum = 0.009 (at node 9)
	maximum = 0.028 (at node 2)
Accepted flit rate average= 0.01925
	minimum = 0.009 (at node 6)
	maximum = 0.028 (at node 2)
Injected packet length average = 1
Accepted packet length average = 1
Total in-flight flits = 5 (0 measured)
latency change    = 0.0133621
throughput change = 0.00487013
Warmed up ...Time used is 3000 cycles
Class 0:
Packet latency average = 19.2406
	minimum = 7
	maximum = 37
Network latency average = 19.2406
	minimum = 7
	maximum = 37
Slowest packet = 27180
Flit latency average = 19.38
	minimum = 7
	maximum = 37
Slowest flit = 27167
Fragmentation average = 0
	minimum = 0
	maximum = 0
Injected packet rate average = 0.022
	minimum = 0.015 (at node 6)
	maximum = 0.033 (at node 9)
Accepted packet rate average = 0.021875
	minimum = 0.015 (at node 9)
	maximum = 0.033 (at node 6)
Injected flit rate average = 0.022
	minimum = 0.015 (at node 6)
	maximum = 0.033 (at node 9)
Accepted flit rate average= 0.021875
	minimum = 0.015 (at node 9)
	maximum = 0.033 (at node 6)
Injected packet length average = 1
Accepted packet length average = 1
Total in-flight flits = 7 (7 measured)
latency change    = 0.0057207
throughput change = 0.12
Class 0:
Packet latency average = 19.4183
	minimum = 7
	maximum = 38
Network latency average = 19.4183
	minimum = 7
	maximum = 38
Slowest packet = 27709
Flit latency average = 19.4896
	minimum = 7
	maximum = 38
Slowest flit = 27709
Fragmentation average = 0
	minimum = 0
	maximum = 0
Injected packet rate average = 0.0209688
	minimum = 0.0165 (at node 6)
	maximum = 0.0275 (at node 1)
Accepted packet rate average = 0.021
	minimum = 0.016 (at node 9)
	maximum = 0.0275 (at node 4)
Injected flit rate average = 0.0209688
	minimum = 0.0165 (at node 6)
	maximum = 0.0275 (at node 1)
Accepted flit rate average= 0.021
	minimum = 0.016 (at node 9)
	maximum = 0.0275 (at node 4)
Injected packet length average = 1
Accepted packet length average = 1
Total in-flight flits = 4 (4 measured)
latency change    = 0.00915174
throughput change = 0.0416667
Class 0:
Packet latency average = 19.6213
	minimum = 7
	maximum = 38
Network latency average = 19.6213
	minimum = 7
	maximum = 38
Slowest packet = 27709
Flit latency average = 19.6673
	minimum = 7
	maximum = 38
Slowest flit = 27709
Fragmentation average = 0
	minimum = 0
	maximum = 0
Injected packet rate average = 0.0212708
	minimum = 0.0153333 (at node 6)
	maximum = 0.0266667 (at node 1)
Accepted packet rate average = 0.0212292
	minimum = 0.0153333 (at node 9)
	maximum = 0.0263333 (at node 4)
Injected flit rate average = 0.0212708
	minimum = 0.0153333 (at node 6)
	maximum = 0.0266667 (at node 1)
Accepted flit rate average= 0.0212292
	minimum = 0.0153333 (at node 9)
	maximum = 0.0263333 (at node 4)
Injected packet length average = 1
Accepted packet length average = 1
Total in-flight flits = 7 (7 measured)
latency change    = 0.0103465
throughput change = 0.0107949
Class 0:
Packet latency average = 19.8512
	minimum = 7
	maximum = 38
Network latency average = 19.8512
	minimum = 7
	maximum = 38
Slowest packet = 27709
Flit latency average = 19.8862
	minimum = 7
	maximum = 38
Slowest flit = 27709
Fragmentation average = 0
	minimum = 0
	maximum = 0
Injected packet rate average = 0.0204375
	minimum = 0.0145 (at node 6)
	maximum = 0.02475 (at node 1)
Accepted packet rate average = 0.0204531
	minimum = 0.0145 (at node 9)
	maximum = 0.02475 (at node 4)
Injected flit rate average = 0.0204375
	minimum = 0.0145 (at node 6)
	maximum = 0.02475 (at node 1)
Accepted flit rate average= 0.0204531
	minimum = 0.0145 (at node 9)
	maximum = 0.02475 (at node 4)
Injected packet length average = 1
Accepted packet length average = 1
Total in-flight flits = 4 (4 measured)
latency change    = 0.0115824
throughput change = 0.0379424
Draining all recorded packets ...
Draining remaining packets ...
Time taken is 7029 cycles
Class 0:
Packet latency average = 19.6026
	minimum = 7
	maximum = 37
Network latency average = 19.6026
	minimum = 7
	maximum = 37
Slowest packet = 28491
Flit latency average = 19.6026
	minimum = 7
	maximum = 37
Slowest flit = 28491
Fragmentation average = 0
	minimum = 0
	maximum = 0
Injected packet rate average = 0.0198125
	minimum = 0.016 (at node 3)
	maximum = 0.03 (at node 13)
Accepted packet rate average = 0.0195
	minimum = 0.016 (at node 9)
	maximum = 0.029 (at node 7)
Injected flit rate average = 0.0198125
	minimum = 0.016 (at node 3)
	maximum = 0.03 (at node 13)
Accepted flit rate average= 0.0195
	minimum = 0.016 (at node 9)
	maximum = 0.029 (at node 7)
Injected packet length average = 1
Accepted packet length average = 1
Total in-flight flits = 5 (0 measured)
latency change    = 1
throughput change = 1
Class 0:
Packet latency average = 19.56
	minimum = 7
	maximum = 41
Network latency average = 19.56
	minimum = 7
	maximum = 41
Slowest packet = 29086
Flit latency average = 19.56
	minimum = 7
	maximum = 41
Slowest flit = 29086
Fragmentation average = 0
	minimum = 0
	maximum = 0
Injected packet rate average = 0.0205
	minimum = 0.0175 (at node 14)
	maximum = 0.026 (at node 13)
Accepted packet rate average = 0.0203125
	minimum = 0.0175 (at node 11)
	maximum = 0.026 (at node 7)
Injected flit rate average = 0.0205
	minimum = 0.0175 (at node 14)
	maximum = 0.026 (at node 13)
Accepted flit rate average= 0.0203125
	minimum = 0.0175 (at node 11)
	maximum = 0.026 (at node 7)
Injected packet length average = 1
Accepted packet length average = 1
Total in-flight flits = 6 (0 measured)
latency change    = 0.00217608
throughput change = 0.04
Class 0:
Packet latency average = 20.1938
	minimum = 7
	maximum = 38
Network latency average = 20.1938
	minimum = 7
	maximum = 38
Slowest packet = 29291
Flit latency average = 20.1938
	minimum = 7
	maximum = 38
Slowest flit = 29291
Fragmentation average = 0
	minimum = 0
	maximum = 0
Injected packet rate average = 0.02
	minimum = 0.006 (at node 10)
	maximum = 0.027 (at node 4)
Accepted packet rate average = 0.02
	minimum = 0.007 (at node 10)
	maximum = 0.029 (at node 1)
Injected flit rate average = 0.02
	minimum = 0.006 (at node 10)
	maximum = 0.027 (at node 4)
Accepted flit rate average= 0.02
	minimum = 0.007 (at node 10)
	maximum = 0.029 (at node 1)
Injected packet length average = 1
Accepted packet length average = 1
Total in-flight flits = 6 (0 measured)
latency change    = 0.0313835
throughput change = 0.015625
Warmed up ...Time used is 3000 cycles
Class 0:
Packet latency average = 19.6006
	minimum = 7
	maximum = 38
[...]
	minimum = 0.012 (at node 0)
	maximum = 0.0296667 (at node 8)
Accepted packet rate average = 0.0210417
	minimum = 0.012 (at node 0)
	maximum = 0.029 (at node 2)
Injected flit rate average = 0.0212083
	minimum = 0.012 (at node 0)
	maximum = 0.0296667 (at node 8)
Accepted flit rate average= 0.0210417
	minimum = 0.012 (at node 0)
	maximum = 0.029 (at node 2)
Injected packet length average = 1
Accepted packet length average = 1
Total in-flight flits = 12 (12 measured)
latency change    = 0.0186076
throughput change = 0.0143564
Class 0:
Packet latency average = 19.5566
	minimum = 7
	maximum = 39
Network latency average = 19.5566
	minimum = 7
	maximum = 39
Slowest packet = 216060
Flit latency average = 19.5863
	minimum = 7
	maximum = 39
Slowest flit = 216060
Fragmentation average = 0
	minimum = 0
	maximum = 0
Injected packet rate average = 0.0210469
	minimum = 0.01475 (at node 0)
	maximum = 0.02575 (at node 8)
Accepted packet rate average = 0.0209219
	minimum = 0.01475 (at node 0)
	maximum = 0.02575 (at node 2)
Injected flit rate average = 0.0210469
	minimum = 0.01475 (at node 0)
	maximum = 0.02575 (at node 8)
Accepted flit rate average= 0.0209219
	minimum = 0.01475 (at node 0)
	maximum = 0.02575 (at node 2)
Injected packet length average = 1
Accepted packet length average = 1
Total in-flight flits = 12 (12 measured)
latency change    = 0.00473248
throughput change = 0.00572567
Draining all recorded packets ...
Draining remaining packets ...
Time taken is 7077 cycles
Class 0:
Packet latency average = 19.4608
	minimum = 7
	maximum = 38
Network latency average = 19.4608
	minimum = 7
	maximum = 38
Slowest packet = 217029
Flit latency average = 19.4608
	minimum = 7
	maximum = 38
Slowest flit = 217029
Fragmentation average = 0
	minimum = 0
	maximum = 0
Injected packet rate average = 0.0211875
	minimum = 0.013 (at node 1)
	maximum = 0.035 (at node 3)
Accepted packet rate average = 0.02075
	minimum = 0.013 (at node 4)
	maximum = 0.034 (at node 12)
Injected flit rate average = 0.0211875
	minimum = 0.013 (at node 1)
	maximum = 0.035 (at node 3)
Accepted flit rate average= 0.02075
	minimum = 0.013 (at node 4)
	maximum = 0.034 (at node 12)
Injected packet length average = 1
Accepted packet length average = 1
Total in-flight flits = 7 (0 measured)
latency change    = 1
throughput change = 1
Class 0:
Packet latency average = 19.7231
	minimum = 7
	maximum = 38
Network latency average = 19.7231
	minimum = 7
	maximum = 38
Slowest packet = 217029
Flit latency average = 19.7231
	minimum = 7
	maximum = 38
Slowest flit = 217029
Fragmentation average = 0
	minimum = 0
	maximum = 0
Injected packet rate average = 0.0209375
	minimum = 0.0155 (at node 2)
	maximum = 0.028 (at node 3)
Accepted packet rate average = 0.0206563
	minimum = 0.0155 (at node 8)
	maximum = 0.027 (at node 12)
Injected flit rate average = 0.0209375
	minimum = 0.0155 (at node 2)
	maximum = 0.028 (at node 3)
Accepted flit rate average= 0.0206563
	minimum = 0.0155 (at node 8)
	maximum = 0.027 (at node 12)
Injected packet length average = 1
Accepted packet length average = 1
Total in-flight flits = 9 (0 measured)
latency change    = 0.0132993
throughput change = 0.00453858
Class 0:
Packet latency average = 19.6991
	minimum = 7
	maximum = 37
Network latency average = 19.6991
	minimum = 7
	maximum = 37
Slowest packet = 217475
Flit latency average = 19.6991
	minimum = 7
	maximum = 37
Slowest flit = 217475
Fragmentation average = 0
	minimum = 0
	maximum = 0
Injected packet rate average = 0.0218125
	minimum = 0.017 (at node 2)
	maximum = 0.027 (at node 8)
Accepted packet rate average = 0.0218125
	minimum = 0.015 (at node 8)
	maximum = 0.027 (at node 2)
Injected flit rate average = 0.0218125
	minimum = 0.017 (at node 2)
	maximum = 0.027 (at node 8)
Accepted flit rate average= 0.0218125
	minimum = 0.015 (at node 8)
	maximum = 0.027 (at node 2)
Injected packet length average = 1
Accepted packet length average = 1
Total in-flight flits = 9 (0 measured)
latency change    = 0.00121865
throughput change = 0.0530086
Warmed up ...Time used is 3000 cycles
Class 0:
Packet latency average = 19.7405
	minimum = 7
	maximum = 38
Network latency average = 19.7405
	minimum = 7
	maximum = 38
Slowest packet = 217986
Flit latency average = 19.9754
	minimum = 7
	maximum = 38
Slowest flit = 217822
Fragmentation average = 0
	minimum = 0
	maximum = 0
Injected packet rate average = 0.020125
	minimum = 0.016 (at node 15)
	maximum = 0.024 (at node 3)
Accepted packet rate average = 0.0203125
	minimum = 0.016 (at node 6)
	maximum = 0.024 (at node 4)
Injected flit rate average = 0.020125
	minimum = 0.016 (at node 15)
	maximum = 0.024 (at node 3)
Accepted flit rate average= 0.0203125
	minimum = 0.016 (at node 6)
	maximum = 0.024 (at node 4)
Injected packet length average = 1
Accepted packet length average = 1
Total in-flight flits = 6 (6 measured)
latency change    = 0.00209548
throughput change = 0.0738462
Class 0:
Packet latency average = 19.838
	minimum = 7
	maximum = 38
Network latency average = 19.838
	minimum = 7
	maximum = 38
Slowest packet = 217986
Flit latency average = 19.9528
	minimum = 7
	maximum = 38
Slowest flit = 217822
Fragmentation average = 0
	minimum = 0
	maximum = 0
Injected packet rate average = 0.0203438
	minimum = 0.017 (at node 4)
	maximum = 0.0245 (at node 14)
Accepted packet rate average = 0.0205313
	minimum = 0.0165 (at node 1)
	maximum = 0.0245 (at node 11)
Injected flit rate average = 0.0203438
	minimum = 0.017 (at node 4)
	maximum = 0.0245 (at node 14)
Accepted flit rate average= 0.0205313
	minimum = 0.0165 (at node 1)
	maximum = 0.0245 (at node 11)
Injected packet length average = 1
Accepted packet length average = 1
Total in-flight flits = 3 (3 measured)
latency change    = 0.00491263
throughput change = 0.0106545
Class 0:
Packet latency average = 19.8623
	minimum = 7
	maximum = 38
Network latency average = 19.8623
	minimum = 7
	maximum = 38
Slowest packet = 217986
Flit latency average = 19.9389
	minimum = 7
	maximum = 38
Slowest flit = 217822
Fragmentation average = 0
	minimum = 0
	maximum = 0
Injected packet rate average = 0.0204167
	minimum = 0.0176667 (at node 9)
	maximum = 0.0233333 (at node 3)
Accepted packet rate average = 0.0204583
	minimum = 0.0176667 (at node 1)
	maximum = 0.0236667 (at node 12)
Injected flit rate average = 0.0204167
	minimum = 0.0176667 (at node 9)
	maximum = 0.0233333 (at node 3)
Accepted flit rate average= 0.0204583
	minimum = 0.0176667 (at node 1)
	maximum = 0.0236667 (at node 12)
Injected packet length average = 1
Accepted packet length average = 1
Total in-flight flits = 7 (7 measured)
latency change    = 0.00122436
throughput change = 0.00356415
Class 0:
Packet latency average = 19.6536
	minimum = 7
	maximum = 38
Network latency average = 19.6536
	minimum = 7
	maximum = 38
Slowest packet = 217986
Flit latency average = 19.7115
	minimum = 7
	maximum = 38
Slowest flit = 217822
Fragmentation average = 0
	minimum = 0
	maximum = 0
Injected packet rate average = 0.0207344
	minimum = 0.0175 (at node 4)
	maximum = 0.02375 (at node 3)
Accepted packet rate average = 0.0207969
	minimum = 0.0175 (at node 1)
	maximum = 0.02375 (at node 12)
Injected flit rate average = 0.0207344
	minimum = 0.0175 (at node 4)
	maximum = 0.02375 (at node 3)
Accepted flit rate average= 0.0207969
	minimum = 0.0175 (at node 1)
	maximum = 0.02375 (at node 12)
Injected packet length average = 1
Accepted packet length average = 1
Total in-flight flits = 5 (5 measured)
latency change    = 0.0106203
throughput change = 0.0162785
Draining all recorded packets ...
Draining remaining packets ...
Time taken is 7021 cycles
Class 0:
Packet latency average = 18.9482
	minimum = 7
	maximum = 37
Network latency average = 18.9482
	minimum = 7
	maximum = 37
Slowest packet = 219163
Flit latency average = 18.9482
	minimum = 7
	maximum = 37
Slowest flit = 219163
Fragmentation average = 0
	minimum = 0
	maximum = 0
Injected packet rate average = 0.0196875
	minimum = 0.009 (at node 12)
	maximum = 0.03 (at node 7)
Accepted packet rate average = 0.0193125
	minimum = 0.009 (at node 3)
	maximum = 0.03 (at node 13)
Injected flit rate average = 0.0196875
	minimum = 0.009 (at node 12)
	maximum = 0.03 (at node 7)
Accepted flit rate average= 0.0193125
	minimum = 0.009 (at node 3)
	maximum = 0.03 (at node 13)
Injected packet length average = 1
Accepted packet length average = 1
Total in-flight flits = 6 (0 measured)
latency change    = 1
throughput change = 1
Class 0:
Packet latency average = 19.3392
	minimum = 7
	maximum = 37
Network latency average = 19.3392
	minimum = 7
	maximum = 37
Slowest packet = 219163
Flit latency average = 19.3392
	minimum = 7
	maximum = 37
Slowest flit = 219163
Fragmentation average = 0
	minimum = 0
	maximum = 0
Injected packet rate average = 0.0197188
	minimum = 0.0135 (at node 6)
	maximum = 0.028 (at node 11)
Accepted packet rate average = 0.0195312
	minimum = 0.0135 (at node 9)
	maximum = 0.028 (at node 14)
Injected flit rate average = 0.0197188
	minimum = 0.0135 (at node 6)
	maximum = 0.028 (at node 11)
Accepted flit rate average= 0.0195312
	minimum = 0.0135 (at node 9)
	maximum = 0.028 (at node 14)
Injected packet length average = 1
Accepted packet length average = 1
Total in-flight flits = 6 (0 measured)
latency change    = 0.020217
throughput change = 0.0112
Class 0:
Packet latency average = 18.9037
	minimum = 7
	maximum = 37
Network latency average = 18.9037
	minimum = 7
	maximum = 37
Slowest packet = 219802
Flit latency average = 18.9037
	minimum = 7
	maximum = 37
Slowest flit = 219802
Fragmentation average = 0
	minimum = 0
	maximum = 0
Injected packet rate average = 0.0190625
	minimum = 0.011 (at node 3)
	maximum = 0.025 (at node 9)
Accepted packet rate average = 0.0188125
	minimum = 0.01 (at node 12)
	maximum = 0.025 (at node 6)
Injected flit rate average = 0.0190625
	minimum = 0.011 (at node 3)
	maximum = 0.025 (at node 9)
Accepted flit rate average= 0.0188125
	minimum = 0.01 (at node 12)
	maximum = 0.025 (at node 6)
Injected packet length average = 1
Accepted packet length average = 1
Total in-flight flits = 10 (0 measured)
latency change    = 0.0230403
throughput change = 0.038206
Warmed up ...Time used is 3000 cycles
Class 0:
Packet latency average = 19.7633
	minimum = 7
	maximum = 38
Network latency average = 19.7633
	minimum = 7
	maximum = 38
Slowest packet = 220189
Flit latency average = 20.0029
	minimum = 7
	maximum = 38
Slowest flit = 220189
Fragmentation average = 0
	minimum = 0
	maximum = 0
Injected packet rate average = 0.02125
	minimum = 0.015 (at node 11)
	maximum = 0.027 (at node 12)
Accepted packet rate average = 0.02175
	minimum = 0.015 (at node 14)
	maximum = 0.031 (at node 3)
Injected flit rate average = 0.02125
	minimum = 0.015 (at node 11)
	maximum = 0.027 (at node 12)
Accepted flit rate average= 0.02175
	minimum = 0.015 (at node 14)
	maximum = 0.031 (at node 3)
Injected packet length average = 1
Accepted packet length average = 1
Total in-flight flits = 2 (2 measured)
latency change    = 0.0434977
throughput change = 0.135057
Class 0:
Packet latency average = 19.1722
	minimum = 7
	maximum = 38
Network latency average = 19.1722
	minimum = 7
	maximum = 38
Slowest packet = 220189
Flit latency average = 19.3051
	minimum = 7
	maximum = 38
Slowest flit = 220189
Fragmentation average = 0
	minimum = 0
	maximum = 0
Injected packet rate average = 0.0208438
	minimum = 0.0155 (at node 3)
	maximum = 0.0255 (at node 4)
Accepted packet rate average = 0.021
	minimum = 0.0155 (at node 12)
	maximum = 0.0255 (at node 1)
Injected flit rate average = 0.0208438
	minimum = 0.0155 (at node 3)
	maximum = 0.0255 (at node 4)
Accepted flit rate average= 0.021
	minimum = 0.0155 (at node 12)
	maximum = 0.0255 (at node 1)
Injected packet length average = 1
Accepted packet length average = 1
Total in-flight flits = 5 (5 measured)
latency change    = 0.0308315
throughput change = 0.0357143
Class 0:
Packet latency average = 19.284
	minimum = 7
	maximum = 38
Network latency average = 19.284
	minimum = 7
	maximum = 38
Slowest packet = 220189
Flit latency average = 19.3737
	minimum = 7
	maximum = 38
Slowest flit = 220189
Fragmentation average = 0
	minimum = 0
	maximum = 0
Injected packet rate average = 0.020375
	minimum = 0.0163333 (at node 15)
	maximum = 0.0233333 (at node 10)
Accepted packet rate average = 0.0204583
	minimum = 0.017 (at node 15)
	maximum = 0.0233333 (at node 10)
Injected flit rate average = 0.020375
	minimum = 0.0163333 (at node 15)
	maximum = 0.0233333 (at node 10)
Accepted flit rate average= 0.0204583
	minimum = 0.017 (at node 15)
	maximum = 0.0233333 (at node 10)
Injected packet length average = 1
Accepted packet length average = 1
Total in-flight flits = 6 (6 measured)
latency change    = 0.00579472
throughput change = 0.0264766
Class 0:
Packet latency average = 19.5004
	minimum = 7
	maximum = 38
Network latency average = 19.5004
	minimum = 7
	maximum = 38
Slowest packet = 220189
Flit latency average = 19.5657
	minimum = 7
	maximum = 38
Slowest flit = 220189
Fragmentation average = 0
	minimum = 0
	maximum = 0
Injected packet rate average = 0.0204844
	minimum = 0.01675 (at node 3)
	maximum = 0.0235 (at node 7)
Accepted packet rate average = 0.0205781
	minimum = 0.017 (at node 12)
	maximum = 0.0235 (at node 3)
Injected flit rate average = 0.0204844
	minimum = 0.01675 (at node 3)
	maximum = 0.0235 (at node 7)
Accepted flit rate average= 0.0205781
	minimum = 0.017 (at node 12)
	maximum = 0.0235 (at node 3)
Injected packet length average = 1
Accepted packet length average = 1
Total in-flight flits = 4 (4 measured)
latency change    = 0.0110989
throughput change = 0.00582131
Draining all recorded packets ...
Draining remaining packets ...
Time taken is 7044 cycles
Class 0:
Packet latency average = 18.7303
	minimum = 7
	maximum = 37
Network latency average = 18.7303
	minimum = 7
	maximum = 37
Slowest packet = 221444
Flit latency average = 18.7303
	minimum = 7
	maximum = 37
Slowest flit = 221444
Fragmentation average = 0
	minimum = 0
	maximum = 0
Injected packet rate average = 0.0168125
	minimum = 0.011 (at node 3)
	maximum = 0.022 (at node 6)
Accepted packet rate average = 0.0166875
	minimum = 0.011 (at node 12)
	maximum = 0.022 (at node 9)
Injected flit rate average = 0.0168125
	minimum = 0.011 (at node 3)
	maximum = 0.022 (at node 6)
Accepted flit rate average= 0.0166875
	minimum = 0.011 (at node 12)
	maximum = 0.022 (at node 9)
Injected packet length average = 1
Accepted packet length average = 1
Total in-flight flits = 2 (0 measured)
latency change    = 1
throughput change = 1
Class 0:
Packet latency average = 18.9379
	minimum = 7
	maximum = 39
Network latency average = 18.9379
	minimum = 7
	maximum = 39
Slowest packet = 221945
Flit latency average = 18.9379
	minimum = 7
	maximum = 39
Slowest flit = 221945
Fragmentation average = 0
	minimum = 0
	maximum = 0
Injected packet rate average = 0.0183125
	minimum = 0.013 (at node 12)
	maximum = 0.0235 (at node 6)
Accepted packet rate average = 0.018125
	minimum = 0.013 (at node 3)
	maximum = 0.0235 (at node 9)
Injected flit rate average = 0.0183125
	minimum = 0.013 (at node 12)
	maximum = 0.0235 (at node 6)
Accepted flit rate average= 0.018125
	minimum = 0.013 (at node 3)
	maximum = 0.0235 (at node 9)
Injected packet length average = 1
Accepted packet length average = 1
Total in-flight flits = 6 (0 measured)
latency change    = 0.0109618
throughput change = 0.0793103
Class 0:
Packet latency average = 19.1078
	minimum = 7
	maximum = 38
Network latency average = 19.1078
	minimum = 7
	maximum = 38
Slowest packet = 222078
Flit latency average = 19.1078
	minimum = 7
	maximum = 38
Slowest flit = 222078
Fragmentation average = 0
	minimum = 0
	maximum = 0
Injected packet rate average = 0.020625
	minimum = 0.011 (at node 2)
	maximum = 0.03 (at node 4)
Accepted packet rate average = 0.020875
	minimum = 0.013 (at node 8)
	maximum = 0.029 (at node 1)
Injected flit rate average = 0.020625
	minimum = 0.011 (at node 2)
	maximum = 0.03 (at node 4)
Accepted flit rate average= 0.020875
	minimum = 0.013 (at node 8)
	maximum = 0.029 (at node 1)
Injected packet length average = 1
Accepted packet length average = 1
Total in-flight flits = 2 (0 measured)
latency change    = 0.00888923
throughput change = 0.131737
Warmed up ...Time used is 3000 cycles
Class 0:
Packet latency average = 19.6938
	minimum = 7
	maximum = 38
Network latency average = 19.6938
	minimum = 7
	maximum = 38
Slowest packet = 222341
Flit latency average = 19.677
	minimum = 7
	maximum = 38
Slowest flit = 222341
Fragmentation average = 0
	minimum = 0
	maximum = 0
Injected packet rate average = 0.0201875
	minimum = 0.012 (at node 14)
	maximum = 0.027 (at node 13)
Accepted packet rate average = 0.020125
	minimum = 0.012 (at node 11)
	maximum = 0.027 (at node 7)
Injected flit rate average = 0.0201875
	minimum = 0.012 (at node 14)
	maximum = 0.027 (at node 13)
Accepted flit rate average= 0.020125
	minimum = 0.012 (at node 11)
	maximum = 0.027 (at node 7)
Injected packet length average = 1
Accepted packet length average = 1
Total in-flight flits = 3 (3 measured)
latency change    = 0.0297539
throughput change = 0.0372671
Class 0:
Packet latency average = 19.5167
	minimum = 7
	maximum = 38
Network latency average = 19.5167
	minimum = 7
	maximum = 38
Slowest packet = 222341
Flit latency average = 19.5087
	minimum = 7
	maximum = 38
Slowest flit = 222341
Fragmentation average = 0
	minimum = 0
	maximum = 0
Injected packet rate average = 0.0198125
	minimum = 0.0135 (at node 14)
	maximum = 0.0265 (at node 2)
Accepted packet rate average = 0.0197188
	minimum = 0.013 (at node 11)
	maximum = 0.0265 (at node 8)
Injected flit rate average = 0.0198125
	minimum = 0.0135 (at node 14)
	maximum = 0.0265 (at node 2)
Accepted flit rate average= 0.0197188
	minimum = 0.013 (at node 11)
	maximum = 0.0265 (at node 8)
Injected packet length average = 1
Accepted packet length average = 1
Total in-flight flits = 5 (5 measured)
latency change    = 0.00907207
throughput change = 0.0206022
Class 0:
Packet latency average = 19.5964
	minimum = 7
	maximum = 38
Network latency average = 19.5964
	minimum = 7
	maximum = 38
Slowest packet = 222341
Flit latency average = 19.5908
	minimum = 7
	maximum = 38
Slowest flit = 222341
Fragmentation average = 0
	minimum = 0
	maximum = 0
Injected packet rate average = 0.0195625
	minimum = 0.016 (at node 14)
	maximum = 0.025 (at node 2)
Accepted packet rate average = 0.0195
	minimum = 0.016 (at node 11)
	maximum = 0.025 (at node 8)
Injected flit rate average = 0.0195625
	minimum = 0.016 (at node 14)
	maximum = 0.025 (at node 2)
Accepted flit rate average= 0.0195
	minimum = 0.016 (at node 11)
	maximum = 0.025 (at node 8)
Injected packet length average = 1
Accepted packet length average = 1
Total in-flight flits = 5 (5 measured)
latency change    = 0.00406538
throughput change = 0.0112179
Draining all recorded packets ...
Draining remaining packets ...
Time taken is 6043 cycles
====== Overall Traffic Statistics ======
====== Traffic class 0 ======
Packet latency average = 19.5064 (100 samples)
	minimum = 7 (100 samples)
	maximum = 38.59 (100 samples)
Network latency average = 19.5064 (100 samples)
	minimum = 7 (100 samples)
	maximum = 38.59 (100 samples)
Flit latency average = 19.5334 (100 samples)
	minimum = 7 (100 samples)
	maximum = 38.6 (100 samples)
Fragmentation average = 0 (100 samples)
	minimum = 0 (100 samples)
	maximum = 0 (100 samples)
Injected packet rate average = 0.0200615 (100 samples)
	minimum = 0.0162123 (100 samples)
	maximum = 0.0242987 (100 samples)
Accepted packet rate average = 0.020054 (100 samples)
	minimum = 0.0162008 (100 samples)
	maximum = 0.024286 (100 samples)
Injected flit rate average = 0.0200615 (100 samples)
	minimum = 0.0162123 (100 samples)
	maximum = 0.0242987 (100 samples)
Accepted flit rate average = 0.020054 (100 samples)
	minimum = 0.0162008 (100 samples)
	maximum = 0.024286 (100 samples)
Injected packet size average = 1 (100 samples)
Accepted packet size average = 1 (100 samples)
Hops average = 3.49869 (100 samples)
Total run time 5.09404
