BEGIN Configuration File: /tmp/tmptz4_jxbj.cfg
topology = mesh;
k = 4;
n = 2;
routing_function = gnn_port_score_route_4x4;
num_vcs = 4;
vc_buf_size = 4;
wait_for_tail_credit = 1;
vc_allocator = islip;
sw_allocator = islip;
alloc_iters = 1;
credit_delay = 2;
routing_delay = 1;
vc_alloc_delay = 1;
sw_alloc_delay = 1;
input_speedup = 2;
output_speedup = 1;
internal_speedup = 1.0;
traffic = hotspot;
packet_size = 1;
sim_type = latency;
injection_rate = 0.01;
warmup_periods = 3;
sample_period = 1000;
sim_count = 100;
seed = 1;

END Configuration File: /tmp/tmptz4_jxbj.cfg
Class 0:
Packet latency average = 20.2798
	minimum = 7
	maximum = 43
Network latency average = 20.2798
	minimum = 7
	maximum = 43
Slowest packet = 115
Flit latency average = 20.2798
	minimum = 7
	maximum = 43
Slowest flit = 115
Fragmentation average = 0
	minimum = 0
	maximum = 0
Injected packet rate average = 0.0108125
	minimum = 0.006 (at node 2)
	maximum = 0.019 (at node 7)
Accepted packet rate average = 0.0105
	minimum = 0 (at node 0)
	maximum = 0.168 (at node 11)
Injected flit rate average = 0.0108125
	minimum = 0.006 (at node 2)
	maximum = 0.019 (at node 7)
Accepted flit rate average= 0.0105
	minimum = 0 (at node 0)
	maximum = 0.168 (at node 11)
Injected packet length average = 1
Accepted packet length average = 1
Total in-flight flits = 5 (0 measured)
latency change    = 1
throughput change = 1
Class 0:
Packet latency average = 20.8161
	minimum = 7
	maximum = 46
Network latency average = 20.8161
	minimum = 7
	maximum = 46
Slowest packet = 264
Flit latency average = 20.8161
	minimum = 7
	maximum = 46
Slowest flit = 264
Fragmentation average = 0
	minimum = 0
	maximum = 0
Injected packet rate average = 0.0110312
	minimum = 0.0065 (at node 2)
	maximum = 0.014 (at node 7)
Accepted packet rate average = 0.010875
	minimum = 0 (at node 0)
	maximum = 0.174 (at node 11)
Injected flit rate average = 0.0110312
	minimum = 0.0065 (at node 2)
	maximum = 0.014 (at node 7)
Accepted flit rate average= 0.010875
	minimum = 0 (at node 0)
	maximum = 0.174 (at node 11)
Injected packet length average = 1
Accepted packet length average = 1
Total in-flight flits = 5 (0 measured)
latency change    = 0.0257652
throughput change = 0.0344828
Class 0:
Packet latency average = 20.6358
	minimum = 7
	maximum = 37
Network latency average = 20.6358
	minimum = 7
	maximum = 37
Slowest packet = 427
Flit latency average = 20.6358
	minimum = 7
	maximum = 37
Slowest flit = 427
Fragmentation average = 0
	minimum = 0
	maximum = 0
Injected packet rate average = 0.0100625
	minimum = 0.004 (at node 7)
	maximum = 0.018 (at node 14)
Accepted packet rate average = 0.010125
	minimum = 0 (at node 0)
	maximum = 0.162 (at node 11)
Injected flit rate average = 0.0100625
	minimum = 0.004 (at node 7)
	maximum = 0.018 (at node 14)
Accepted flit rate average= 0.010125
	minimum = 0 (at node 0)
	maximum = 0.162 (at node 11)
Injected packet length average = 1
Accepted packet length average = 1
Total in-flight flits = 4 (0 measured)
latency change    = 0.00873673
throughput change = 0.0740741
Warmed up ...Time used is 3000 cycles
Class 0:
Packet latency average = 19.8986
	minimum = 7
	maximum = 40
Network latency average = 19.8986
	minimum = 7
	maximum = 40
Slowest packet = 600
Flit latency average = 20.0132
	minimum = 7
	maximum = 40
Slowest flit = 600
Fragmentation average = 0
	minimum = 0
	maximum = 0
Injected packet rate average = 0.009375
	minimum = 0.006 (at node 0)
	maximum = 0.012 (at node 2)
Accepted packet rate average = 0.0095
	minimum = 0 (at node 0)
	maximum = 0.152 (at node 11)
Injected flit rate average = 0.009375
	minimum = 0.006 (at node 0)
	maximum = 0.012 (at node 2)
Accepted flit rate average= 0.0095
	minimum = 0 (at node 0)
	maximum = 0.152 (at node 11)
Injected packet length average = 1
Accepted packet length average = 1
Total in-flight flits = 2 (2 measured)
latency change    = 0.0370454
throughput change = 0.0657895
Class 0:
Packet latency average = 20.5778
	minimum = 7
	maximum = 40
Network latency average = 20.5778
	minimum = 7
	maximum = 40
Slowest packet = 600
Flit latency average = 20.6238
	minimum = 7
	maximum = 40
Slowest flit = 600
Fragmentation average = 0
	minimum = 0
	maximum = 0
Injected packet rate average = 0.00996875
	minimum = 0.007 (at node 10)
	maximum = 0.013 (at node 1)
Accepted packet rate average = 0.00996875
	minimum = 0 (at node 0)
	maximum = 0.1595 (at node 11)
Injected flit rate average = 0.00996875
	minimum = 0.007 (at node 10)
	maximum = 0.013 (at node 1)
Accepted flit rate average= 0.00996875
	minimum = 0 (at node 0)
	maximum = 0.1595 (at node 11)
Injected packet length average = 1
Accepted packet length average = 1
Total in-flight flits = 4 (4 measured)
latency change    = 0.033003
throughput change = 0.0470219
Class 0:
Packet latency average = 20.4989
	minimum = 7
	maximum = 40
Network latency average = 20.4989
	minimum = 7
	maximum = 40
Slowest packet = 600
Flit latency average = 20.5319
	minimum = 7
	maximum = 40
Slowest flit = 600
Fragmentation average = 0
	minimum = 0
	maximum = 0
Injected packet rate average = 0.0095625
	minimum = 0.006 (at node 13)
	maximum = 0.0123333 (at node 2)
Accepted packet rate average = 0.00947917
	minimum = 0 (at node 0)
	maximum = 0.151667 (at node 11)
Injected flit rate average = 0.0095625
	minimum = 0.006 (at node 13)
	maximum = 0.0123333 (at node 2)
Accepted flit rate average= 0.00947917
	minimum = 0 (at node 0)
	maximum = 0.151667 (at node 11)
Injected packet length average = 1
Accepted packet length average = 1
Total in-flight flits = 8 (8 measured)
latency change    = 0.00384833
throughput change = 0.0516484
Class 0:
Packet latency average = 20.101
	minimum = 7
	maximum = 40
Network latency average = 20.101
	minimum = 7
	maximum = 40
Slowest packet = 600
Flit latency average = 20.1283
	minimum = 7
	maximum = 40
Slowest flit = 600
Fragmentation average = 0
	minimum = 0
	maximum = 0
Injected packet rate average = 0.00948437
	minimum = 0.00725 (at node 13)
	maximum = 0.01175 (at node 2)
Accepted packet rate average = 0.0095
	minimum = 0 (at node 0)
	maximum = 0.152 (at node 11)
Injected flit rate average = 0.00948437
	minimum = 0.00725 (at node 13)
	maximum = 0.01175 (at node 2)
Accepted flit rate average= 0.0095
	minimum = 0 (at node 0)
	maximum = 0.152 (at node 11)
Injected packet length average = 1
Accepted packet length average = 1
Total in-flight flits = 3 (3 measured)
latency change    = 0.0197949
throughput change = 0.00219298
Class 0:
Packet latency average = 20.4114
	minimum = 7
	maximum = 65
Network latency average = 20.4114
	minimum = 7
	maximum = 65
Slowest packet = 1215
Flit latency average = 20.4311
	minimum = 7
	maximum = 65
Slowest flit = 1215
Fragmentation average = 0
	minimum = 0
	maximum = 0
Injected packet rate average = 0.0097
	minimum = 0.0084 (at node 1)
	maximum = 0.0118 (at node 4)
Accepted packet rate average = 0.0097125
	minimum = 0 (at node 0)
	maximum = 0.1554 (at node 11)
Injected flit rate average = 0.0097
	minimum = 0.0084 (at node 1)
	maximum = 0.0118 (at node 4)
Accepted flit rate average= 0.0097125
	minimum = 0 (at node 0)
	maximum = 0.1554 (at node 11)
Injected packet length average = 1
Accepted packet length average = 1
Total in-flight flits = 3 (3 measured)
latency change    = 0.0152068
throughput change = 0.021879
Class 0:
Packet latency average = 20.3237
	minimum = 7
	maximum = 65
Network latency average = 20.3237
	minimum = 7
	maximum = 65
Slowest packet = 1215
Flit latency average = 20.3404
	minimum = 7
	maximum = 65
Slowest flit = 1215
Fragmentation average = 0
	minimum = 0
	maximum = 0
Injected packet rate average = 0.00978125
	minimum = 0.00833333 (at node 1)
	maximum = 0.0116667 (at node 4)
Accepted packet rate average = 0.00982292
	minimum = 0 (at node 0)
	maximum = 0.157167 (at node 11)
Injected flit rate average = 0.00978125
	minimum = 0.00833333 (at node 1)
	maximum = 0.0116667 (at node 4)
Accepted flit rate average= 0.00982292
	minimum = 0 (at node 0)
	maximum = 0.157167 (at node 11)
Injected packet length average = 1
Accepted packet length average = 1
Total in-flight flits = 0 (0 measured)
latency change    = 0.00431198
throughput change = 0.0112407
Draining all recorded packets ...
Draining remaining packets ...
Time taken is 9032 cycles
Class 0:
Packet latency average = 20.9557
	minimum = 7
	maximum = 39
Network latency average = 20.9557
	minimum = 7
	maximum = 39
Slowest packet = 1508
Flit latency average = 20.9557
	minimum = 7
	maximum = 39
Slowest flit = 1508
Fragmentation average = 0
	minimum = 0
	maximum = 0
Injected packet rate average = 0.01025
	minimum = 0.007 (at node 4)
	maximum = 0.017 (at node 14)
Accepted packet rate average = 0.009875
	minimum = 0 (at node 0)
	maximum = 0.158 (at node 11)
Injected flit rate average = 0.01025
	minimum = 0.007 (at node 4)
	maximum = 0.017 (at node 14)
Accepted flit rate average= 0.009875
	minimum = 0 (at node 0)
	maximum = 0.158 (at node 11)
Injected packet length average = 1
Accepted packet length average = 1
Total in-flight flits = 6 (0 measured)
latency change    = 1
throughput change = 1
Class 0:
Packet latency average = 20.1899
	minimum = 7
	maximum = 39
Network latency average = 20.1899
	minimum = 7
	maximum = 39
Slowest packet = 1508
Flit latency average = 20.1899
	minimum = 7
	maximum = 39
Slowest flit = 1508
Fragmentation average = 0
	minimum = 0
	maximum = 0
Injected packet rate average = 0.00990625
	minimum = 0.0055 (at node 8)
	maximum = 0.0145 (at node 14)
Accepted packet rate average = 0.009875
	minimum = 0 (at node 0)
	maximum = 0.158 (at node 11)
Injected flit rate average = 0.00990625
	minimum = 0.0055 (at node 8)
	maximum = 0.0145 (at node 14)
Accepted flit rate average= 0.009875
	minimum = 0 (at node 0)
	maximum = 0.158 (at node 11)
Injected packet length average = 1
Accepted packet length average = 1
Total in-flight flits = 1 (0 measured)
latency change    = 0.037931
throughput change = 0
Class 0:
Packet latency average = 20.3071
	minimum = 7
	maximum = 40
Network latency average = 20.3071
	minimum = 7
	maximum = 40
Slowest packet = 1788
Flit latency average = 20.3071
	minimum = 7
	maximum = 40
Slowest flit = 1788
Fragmentation average = 0
	minimum = 0
	maximum = 0
Injected packet rate average = 0.0083125
	minimum = 0.005 (at node 3)
	maximum = 0.017 (at node 9)
Accepted packet rate average = 0.0079375
	minimum = 0 (at node 0)
	maximum = 0.127 (at node 11)
Injected flit rate average = 0.0083125
	minimum = 0.005 (at node 3)
	maximum = 0.017 (at node 9)
Accepted flit rate average= 0.0079375
	minimum = 0 (at node 0)
	maximum = 0.127 (at node 11)
Injected packet length average = 1
Accepted packet length average = 1
Total in-flight flits = 7 (0 measured)
latency change    = 0.00577203
throughput change = 0.244094
Warmed up ...Time used is 3000 cycles
Class 0:
Packet latency average = 19.5817
	minimum = 7
	maximum = 33
Network latency average = 19.5817
	minimum = 7
	maximum = 33
Slowest packet = 1983
Flit latency average = 19.875
	minimum = 7
	maximum = 36
Slowest flit = 1900
Fragmentation average = 0
	minimum = 0
	maximum = 0
Injected packet rate average = 0.01
	minimum = 0.004 (at node 0)
	maximum = 0.015 (at node 8)
Accepted packet rate average = 0.01
	minimum = 0 (at node 0)
	maximum = 0.16 (at node 11)
Injected flit rate average = 0.01
	minimum = 0.004 (at node 0)
	maximum = 0.015 (at node 8)
Accepted flit rate average= 0.01
	minimum = 0 (at node 0)
	maximum = 0.16 (at node 11)
Injected packet length average = 1
Accepted packet length average = 1
Total in-flight flits = 7 (7 measured)
latency change    = 0.0370441
throughput change = 0.20625
Class 0:
Packet latency average = 19.945
	minimum = 7
	maximum = 38
Network latency average = 19.945
	minimum = 7
	maximum = 38
Slowest packet = 2059
Flit latency average = 20.094
	minimum = 7
	maximum = 38
Slowest flit = 2059
Fragmentation average = 0
	minimum = 0
	maximum = 0
Injected packet rate average = 0.00915625
	minimum = 0.006 (at node 0)
	maximum = 0.011 (at node 8)
Accepted packet rate average = 0.0093125
	minimum = 0 (at node 0)
	maximum = 0.149 (at node 11)
Injected flit rate average = 0.00915625
	minimum = 0.006 (at node 0)
	maximum = 0.011 (at node 8)
Accepted flit rate average= 0.0093125
	minimum = 0 (at node 0)
	maximum = 0.149 (at node 11)
Injected packet length average = 1
Accepted packet length average = 1
Total in-flight flits = 2 (2 measured)
latency change    = 0.018216
throughput change = 0.0738255
Class 0:
Packet latency average = 20.2398
	minimum = 7
	maximum = 45
Network latency average = 20.2398
	minimum = 7
	maximum = 45
Slowest packet = 2247
Flit latency average = 20.3341
	minimum = 7
	maximum = 45
Slowest flit = 2247
Fragmentation average = 0
	minimum = 0
	maximum = 0
Injected packet rate average = 0.00933333
	minimum = 0.00733333 (at node 0)
	maximum = 0.012 (at node 8)
Accepted packet rate average = 0.00935417
	minimum = 0 (at node 0)
	maximum = 0.149667 (at node 11)
Injected flit rate average = 0.00933333
	minimum = 0.00733333 (at node 0)
	maximum = 0.012 (at node 8)
Accepted flit rate average= 0.00935417
	minimum = 0 (at node 0)
	maximum = 0.149667 (at node 11)
Injected packet length average = 1
Accepted packet length average = 1
Total in-flight flits = 6 (6 measured)
latency change    = 0.0145654
throughput change = 0.00445434
Class 0:
Packet latency average = 20.33
	minimum = 7
	maximum = 45
Network latency average = 20.33
	minimum = 7
	maximum = 45
Slowest packet = 2247
Flit latency average = 20.399
	minimum = 7
	maximum = 45
Slowest flit = 2247
Fragmentation average = 0
	minimum = 0
	maximum = 0
Injected packet rate average = 0.00935937
	minimum = 0.00775 (at node 2)
	maximum = 0.01125 (at node 8)
Accepted packet rate average = 0.0094375
	minimum = 0 (at node 0)
	maximum = 0.151 (at node 11)
Injected flit rate average = 0.00935937
	minimum = 0.00775 (at node 2)
	maximum = 0.01125 (at node 8)
Accepted flit rate average= 0.0094375
	minimum = 0 (at node 0)
	maximum = 0.151 (at node 11)
Injected packet length average = 1
Accepted packet length average = 1
Total in-flight flits = 2 (2 measured)
latency change    = 0.00443504
throughput change = 0.00883002
Class 0:
Packet latency average = 20.1283
	minimum = 7
	maximum = 45
Network latency average = 20.1283
	minimum = 7
	maximum = 45
Slowest packet = 2247
Flit latency average = 20.1848
	minimum = 7
	maximum = 45
Slowest flit = 2247
Fragmentation average = 0
	minimum = 0
	maximum = 0
Injected packet rate average = 0.00955
	minimum = 0.0076 (at node 0)
	maximum = 0.0116 (at node 15)
Accepted packet rate average = 0.0095375
	minimum = 0 (at node 0)
	maximum = 0.1526 (at node 11)
Injected flit rate average = 0.00955
	minimum = 0.0076 (at node 0)
	maximum = 0.0116 (at node 15)
Accepted flit rate average= 0.0095375
	minimum = 0 (at node 0)
	maximum = 0.1526 (at node 11)
Injected packet length average = 1
Accepted packet length average = 1
Total in-flight flits = 8 (8 measured)
latency change    = 0.0100195
throughput change = 0.0104849
Draining all recorded packets ...
Draining remaining packets ...
Time taken is 8059 cycles
Class 0:
Packet latency average = 19.3355
	minimum = 7
	maximum = 33
Network latency average = 19.3355
	minimum = 7
	maximum = 33
Slowest packet = 2675
Flit latency average = 19.3355
	minimum = 7
	maximum = 33
Slowest flit = 2675
Fragmentation average = 0
	minimum = 0
	maximum = 0
Injected packet rate average = 0.0096875
	minimum = 0.005 (at node 8)
	maximum = 0.017 (at node 10)
Accepted packet rate average = 0.0095
	minimum = 0 (at node 0)
	maximum = 0.152 (at node 11)
Injected flit rate average = 0.0096875
	minimum = 0.005 (at node 8)
	maximum = 0.017 (at node 10)
Accepted flit rate average= 0.0095
	minimum = 0 (at node 0)
	maximum = 0.152 (at node 11)
Injected packet length average = 1
Accepted packet length average = 1
Total in-flight flits = 3 (0 measured)
latency change    = 1
throughput change = 1
Class 0:
Packet latency average = 19.9469
	minimum = 7
	maximum = 38
Network latency average = 19.9469
	minimum = 7
	maximum = 38
Slowest packet = 2889
Flit latency average = 19.9469
	minimum = 7
	maximum = 38
Slowest flit = 2889
Fragmentation average = 0
	minimum = 0
	maximum = 0
Injected packet rate average = 0.0101563
	minimum = 0.0065 (at node 1)
	maximum = 0.0135 (at node 14)
Accepted packet rate average = 0.01
	minimum = 0 (at node 0)
	maximum = 0.16 (at node 11)
Injected flit rate average = 0.0101563
	minimum = 0.0065 (at node 1)
	maximum = 0.0135 (at node 14)
Accepted flit rate average= 0.01
	minimum = 0 (at node 0)
	maximum = 0.16 (at node 11)
Injected packet length average = 1
Accepted packet length average = 1
Total in-flight flits = 5 (0 measured)
latency change    = 0.0306488
throughput change = 0.05
Class 0:
Packet latency average = 19.7952
	minimum = 7
	maximum = 48
Network latency average = 19.7952
	minimum = 7
	maximum = 48
Slowest packet = 3147
Flit latency average = 19.7952
	minimum = 7
	maximum = 48
Slowest flit = 3147
Fragmentation average = 0
	minimum = 0
	maximum = 0
Injected packet rate average = 0.01025
	minimum = 0.003 (at node 3)
	maximum = 0.018 (at node 4)
Accepted packet rate average = 0.010375
	minimum = 0 (at node 0)
	maximum = 0.166 (at node 11)
Injected flit rate average = 0.01025
	minimum = 0.003 (at node 3)
	maximum = 0.018 (at node 4)
Accepted flit rate average= 0.010375
	minimum = 0 (at node 0)
	maximum = 0.166 (at node 11)
Injected packet length average = 1
Accepted packet length average = 1
Total in-flight flits = 3 (0 measured)
latency change    = 0.00766319
throughput change = 0.0361446
Warmed up ...Time used is 3000 cycles
Class 0:
Packet latency average = 19.3972
	minimum = 7
	maximum = 51
Network latency average = 19.3972
	minimum = 7
	maximum = 51
Slowest packet = 3211
Flit latency average = 19.4861
	minimum = 7
	maximum = 51
Slowest flit = 3211
Fragmentation average = 0
	minimum = 0
	maximum = 0
Injected packet rate average = 0.0091875
	minimum = 0.003 (at node 0)
	maximum = 0.013 (at node 5)
Accepted packet rate average = 0.009
	minimum = 0 (at node 0)
	maximum = 0.144 (at node 11)
Injected flit rate average = 0.0091875
	minimum = 0.003 (at node 0)
	maximum = 0.013 (at node 5)
Accepted flit rate average= 0.009
	minimum = 0 (at node 0)
	maximum = 0.144 (at node 11)
Injected packet length average = 1
Accepted packet length average = 1
Total in-flight flits = 6 (6 measured)
latency change    = 0.0205194
throughput change = 0.152778
Class 0:
Packet latency average = 21.4389
	minimum = 7
	maximum = 67
Network latency average = 21.4389
	minimum = 7
	maximum = 67
Slowest packet = 3402
Flit latency average = 21.4596
	minimum = 7
	maximum = 67
Slowest flit = 3402
Fragmentation average = 0
	minimum = 0
	maximum = 0
Injected packet rate average = 0.010125
	minimum = 0.005 (at node 0)
	maximum = 0.0155 (at node 13)
Accepted packet rate average = 0.0100625
	minimum = 0 (at node 0)
	maximum = 0.161 (at node 11)
Injected flit rate average = 0.010125
	minimum = 0.005 (at node 0)
	maximum = 0.0155 (at node 13)
Accepted flit rate average= 0.0100625
	minimum = 0 (at node 0)
	maximum = 0.161 (at node 11)
Injected packet length average = 1
Accepted packet length average = 1
Total in-flight flits = 5 (5 measured)
latency change    = 0.0952339
throughput change = 0.10559
Class 0:
Packet latency average = 21.1363
	minimum = 7
	maximum = 67
Network latency average = 21.1363
	minimum = 7
	maximum = 67
Slowest packet = 3402
Flit latency average = 21.1521
	minimum = 7
	maximum = 67
Slowest flit = 3402
Fragmentation average = 0
	minimum = 0
	maximum = 0
Injected packet rate average = 0.00997917
	minimum = 0.00533333 (at node 14)
	maximum = 0.0123333 (at node 13)
Accepted packet rate average = 0.01
	minimum = 0 (at node 0)
	maximum = 0.16 (at node 11)
Injected flit rate average = 0.00997917
	minimum = 0.00533333 (at node 14)
	maximum = 0.0123333 (at node 13)
Accepted flit rate average= 0.01
	minimum = 0 (at node 0)
	maximum = 0.16 (at node 11)
Injected packet length average = 1
Accepted packet length average = 1
Total in-flight flits = 2 (2 measured)
latency change    = 0.0143168
throughput change = 0.00625
Class 0:
Packet latency average = 20.8346
	minimum = 7
	maximum = 67
Network latency average = 20.8346
	minimum = 7
	maximum = 67
Slowest packet = 3402
Flit latency average = 20.8478
	minimum = 7
	maximum = 67
Slowest flit = 3402
Fragmentation average = 0
	minimum = 0
	maximum = 0
Injected packet rate average = 0.0100625
	minimum = 0.007 (at node 14)
	maximum = 0.0125 (at node 13)
Accepted packet rate average = 0.0100625
	minimum = 0 (at node 0)
	maximum = 0.161 (at node 11)
Injected flit rate average = 0.0100625
	minimum = 0.007 (at node 14)
	maximum = 0.0125 (at node 13)
Accepted flit rate average= 0.0100625
	minimum = 0 (at node 0)
	maximum = 0.161 (at node 11)
Injected packet length average = 1
Accepted packet length average = 1
Total in-flight flits = 3 (3 measured)
latency change    = 0.0144776
throughput change = 0.00621118
Class 0:
Packet latency average = 20.8809
	minimum = 7
	maximum = 67
Network latency average = 20.8809
	minimum = 7
	maximum = 67
Slowest packet = 3402
Flit latency average = 20.8914
	minimum = 7
	maximum = 67
Slowest flit = 3402
Fragmentation average = 0
	minimum = 0
	maximum = 0
Injected packet rate average = 0.0099125
	minimum = 0.0076 (at node 0)
	maximum = 0.0118 (at node 13)
Accepted packet rate average = 0.0099
	minimum = 0 (at node 0)
	maximum = 0.1584 (at node 11)
Injected flit rate average = 0.0099125
	minimum = 0.0076 (at node 0)
	maximum = 0.0118 (at node 13)
Accepted flit rate average= 0.0099
	minimum = 0 (at node 0)
	maximum = 0.1584 (at node 11)
Injected packet length average = 1
Accepted packet length average = 1
Total in-flight flits = 4 (4 measured)
latency change    = 0.00221392
throughput change = 0.0164141
Draining all recorded packets ...
Draining remaining packets ...
Time taken is 8034 cycles
Class 0:
Packet latency average = 19.4245
	minimum = 7
	maximum = 37
Network latency average = 19.4245
	minimum = 7
	maximum = 37
Slowest packet = 4079
Flit latency average = 19.4245
	minimum = 7
	maximum = 37
Slowest flit = 4079
Fragmentation average = 0
	minimum = 0
	maximum = 0
Injected packet rate average = 0.009125
	minimum = 0.005 (at node 2)
	maximum = 0.018 (at node 10)
Accepted packet rate average = 0.0086875
	minimum = 0 (at node 0)
	maximum = 0.139 (at node 11)
Injected flit rate average = 0.009125
	minimum = 0.005 (at node 2)
	maximum = 0.018 (at node 10)
Accepted flit rate average= 0.0086875
	minimum = 0 (at node 0)
	maximum = 0.139 (at node 11)
Injected packet length average = 1
Accepted packet length average = 1
Total in-flight flits = 7 (0 measured)
latency change    = 1
throughput change = 1
Class 0:
Packet latency average = 19.7339
	minimum = 7
	maximum = 45
Network latency average = 19.7339
	minimum = 7
	maximum = 45
Slowest packet = 4190
Flit latency average = 19.7339
	minimum = 7
	maximum = 45
Slowest flit = 4190
Fragmentation average = 0
	minimum = 0
	maximum = 0
Injected packet rate average = 0.0103438
	minimum = 0.006 (at node 15)
	maximum = 0.017 (at node 7)
Accepted packet rate average = 0.0102188
	minimum = 0 (at node 0)
	maximum = 0.1635 (at node 11)
Injected flit rate average = 0.0103438
	minimum = 0.006 (at node 15)
	maximum = 0.017 (at node 7)
Accepted flit rate average= 0.0102188
	minimum = 0 (at node 0)
	maximum = 0.1635 (at node 11)
Injected packet length average = 1
Accepted packet length average = 1
Total in-flight flits = 4 (0 measured)
latency change    = 0.0156829
throughput change = 0.149847
Class 0:
Packet latency average = 19.8764
	minimum = 7
	maximum = 51
Network latency average = 19.8764
	minimum = 7
	maximum = 51
Slowest packet = 4337
Flit latency average = 19.8764
	minimum = 7
	maximum = 51
Slowest flit = 4337
Fragmentation average = 0
	minimum = 0
	maximum = 0
Injected packet rate average = 0.0110625
	minimum = 0.007 (at node 0)
	maximum = 0.017 (at node 13)
Accepted packet rate average = 0.011125
	minimum = 0 (at node 0)
	maximum = 0.178 (at node 11)
Injected flit rate average = 0.0110625
	minimum = 0.007 (at node 0)
	maximum = 0.017 (at node 13)
Accepted flit rate average= 0.011125
	minimum = 0 (at node 0)
	maximum = 0.178 (at node 11)
Injected packet length average = 1
Accepted packet length average = 1
Total in-flight flits = 3 (0 measured)
latency change    = 0.00716727
throughput change = 0.0814607
Warmed up ...Time used is 3000 cycles
Class 0:
Packet latency average = 19.8067
	minimum = 7
	maximum = 43
Network latency average = 19.8067
	minimum = 7
	maximum = 43
Slowest packet = 4572
Flit latency average = 19.8366
	minimum = 7
	maximum = 43
Slowest flit = 4572
Fragmentation average = 0
	minimum = 0
	maximum = 0
Injected packet rate average = 0.0094375
	minimum = 0.003 (at node 5)
	maximum = 0.015 (at node 9)
Accepted packet rate average = 0.0095625
	minimum = 0 (at node 0)
	maximum = 0.153 (at node 11)
Injected flit rate average = 0.0094375
	minimum = 0.003 (at node 5)
	maximum = 0.015 (at node 9)
Accepted flit rate average= 0.0095625
	minimum = 0 (at node 0)
	maximum = 0.153 (at node 11)
Injected packet length average = 1
Accepted packet length average = 1
Total in-flight flits = 1 (1 measured)
latency change    = 0.00352093
throughput change = 0.163399
Class 0:
Packet latency average = 20.0417
	minimum = 7
	maximum = 43
Network latency average = 20.0417
	minimum = 7
	maximum = 43
Slowest packet = 4572
Flit latency average = 20.054
	minimum = 7
	maximum = 43
Slowest flit = 4572
Fragmentation average = 0
	minimum = 0
	maximum = 0
Injected packet rate average = 0.009875
	minimum = 0.0045 (at node 5)
	maximum = 0.014 (at node 14)
Accepted packet rate average = 0.00984375
	minimum = 0 (at node 0)
	maximum = 0.1575 (at node 11)
Injected flit rate average = 0.009875
	minimum = 0.0045 (at node 5)
	maximum = 0.014 (at node 14)
Accepted flit rate average= 0.00984375
	minimum = 0 (at node 0)
	maximum = 0.1575 (at node 11)
Injected packet length average = 1
Accepted packet length average = 1
Total in-flight flits = 4 (4 measured)
latency change    = 0.0117256
throughput change = 0.0285714
Class 0:
Packet latency average = 20.3064
	minimum = 7
	maximum = 53
Network latency average = 20.3064
	minimum = 7
	maximum = 53
Slowest packet = 4905
Flit latency average = 20.3123
	minimum = 7
	maximum = 53
Slowest flit = 4905
Fragmentation average = 0
	minimum = 0
	maximum = 0
Injected packet rate average = 0.0108125
	minimum = 0.00666667 (at node 5)
	maximum = 0.014 (at node 14)
Accepted packet rate average = 0.010875
	minimum = 0 (at node 0)
	maximum = 0.174 (at node 11)
Injected flit rate average = 0.0108125
	minimum = 0.00666667 (at node 5)
	maximum = 0.014 (at node 14)
Accepted flit rate average= 0.010875
	minimum = 0 (at node 0)
	maximum = 0.174 (at node 11)
Injected packet length average = 1
Accepted packet length average = 1
Total in-flight flits = 0 (0 measured)
latency change    = 0.0130349
throughput change = 0.0948276
Class 0:
Packet latency average = 20.0786
	minimum = 7
	maximum = 53
Network latency average = 20.0786
	minimum = 7
	maximum = 53
Slowest packet = 4905
Flit latency average = 20.0841
	minimum = 7
	maximum = 53
Slowest flit = 4905
Fragmentation average = 0
	minimum = 0
	maximum = 0
Injected packet rate average = 0.0107969
	minimum = 0.007 (at node 5)
	maximum = 0.01275 (at node 8)
Accepted packet rate average = 0.0107812
	minimum = 0 (at node 0)
	maximum = 0.1725 (at node 11)
Injected flit rate average = 0.0107969
	minimum = 0.007 (at node 5)
	maximum = 0.01275 (at node 8)
Accepted flit rate average= 0.0107812
	minimum = 0 (at node 0)
	maximum = 0.1725 (at node 11)
Injected packet length average = 1
Accepted packet length average = 1
Total in-flight flits = 4 (4 measured)
latency change    = 0.0113432
throughput change = 0.00869565
Class 0:
Packet latency average = 20.0258
	minimum = 7
	maximum = 53
Network latency average = 20.0258
	minimum = 7
	maximum = 53
Slowest packet = 4905
Flit latency average = 20.0303
	minimum = 7
	maximum = 53
Slowest flit = 4905
Fragmentation average = 0
	minimum = 0
	maximum = 0
Injected packet rate average = 0.0107
	minimum = 0.007 (at node 5)
	maximum = 0.0124 (at node 8)
Accepted packet rate average = 0.0107125
	minimum = 0 (at node 0)
	maximum = 0.1714 (at node 11)
Injected flit rate average = 0.0107
	minimum = 0.007 (at node 5)
	maximum = 0.0124 (at node 8)
Accepted flit rate average= 0.0107125
	minimum = 0 (at node 0)
	maximum = 0.1714 (at node 11)
Injected packet length average = 1
Accepted packet length average = 1
Total in-flight flits = 2 (2 measured)
latency change    = 0.00263868
throughput change = 0.00641774
Class 0:
Packet latency average = 20.2351
	minimum = 7
	maximum = 53
Network latency average = 20.2351
	minimum = 7
	maximum = 53
Slowest packet = 4905
Flit latency average = 20.2383
	minimum = 7
	maximum = 53
Slowest flit = 4905
Fragmentation average = 0
	minimum = 0
	maximum = 0
Injected packet rate average = 0.0107396
	minimum = 0.008 (at node 5)
	maximum = 0.0123333 (at node 8)
Accepted packet rate average = 0.0107083
	minimum = 0 (at node 0)
	maximum = 0.171333 (at node 11)
Injected flit rate average = 0.0107396
	minimum = 0.008 (at node 5)
	maximum = 0.0123333 (at node 8)
Accepted flit rate average= 0.0107083
	minimum = 0 (at node 0)
	maximum = 0.171333 (at node 11)
Injected packet length average = 1
Accepted packet length average = 1
Total in-flight flits = 6 (6 measured)
latency change    = 0.0103464
throughput change = 0.000389105
Draining all recorded packets ...
Draining remaining packets ...
Time taken is 9042 cycles
Class 0:
Packet latency average = 20.1097
	minimum = 7
	maximum = 40
Network latency average = 20.1097
	minimum = 7
	maximum = 40
Slowest packet = 5568
Flit latency average = 20.1097
	minimum = 7
	maximum = 40
Slowest flit = 5568
Fragmentation average = 0
	minimum = 0
	maximum = 0
Injected packet rate average = 0.010125
	minimum = 0.005 (at node 10)
	maximum = 0.014 (at node 7)
Accepted packet rate average = 0.0096875
	minimum = 0 (at node 0)
	maximum = 0.155 (at node 11)
Injected flit rate average = 0.010125
	minimum = 0.005 (at node 10)
	maximum = 0.014 (at node 7)
Accepted flit rate average= 0.0096875
	minimum = 0 (at node 0)
	maximum = 0.155 (at node 11)
Injected packet length average = 1
Accepted packet length average = 1
Total in-flight flits = 7 (0 measured)
latency change    = 1
throughput change = 1
Class 0:
Packet latency average = 20.2063
	minimum = 7
	maximum = 52
Network latency average = 20.2063
	minimum = 7
	maximum = 52
Slowest packet = 5736
Flit latency average = 20.2063
	minimum = 7
	maximum = 52
Slowest flit = 5736
Fragmentation average = 0
	minimum = 0
	maximum = 0
Injected packet rate average = 0.01
	minimum = 0.006 (at node 15)
	maximum = 0.0145 (at node 7)
Accepted packet rate average = 0.00984375
	minimum = 0 (at node 0)
	maximum = 0.1575 (at node 11)
Injected flit rate average = 0.01
	minimum = 0.006 (at node 15)
	maximum = 0.0145 (at node 7)
Accepted flit rate average= 0.00984375
	minimum = 0 (at node 0)
	maximum = 0.1575 (at node 11)
Injected packet length average = 1
Accepted packet length average = 1
Total in-flight flits = 5 (0 measured)
latency change    = 0.00478423
throughput change = 0.015873
Class 0:
Packet latency average = 19.7453
	minimum = 7
	maximum = 35
Network latency average = 19.7453
	minimum = 7
	maximum = 35
Slowest packet = 5890
Flit latency average = 19.7453
	minimum = 7
	maximum = 35
Slowest flit = 5890
Fragmentation average = 0
	minimum = 0
	maximum = 0
Injected packet rate average = 0.00975
	minimum = 0.004 (at node 6)
	maximum = 0.016 (at node 14)
Accepted packet rate average = 0.0100625
	minimum = 0 (at node 0)
	maximum = 0.161 (at node 11)
Injected flit rate average = 0.00975
	minimum = 0.004 (at node 6)
	maximum = 0.016 (at node 14)
Accepted flit rate average= 0.0100625
	minimum = 0 (at node 0)
	maximum = 0.161 (at node 11)
Injected packet length average = 1
Accepted packet length average = 1
Total in-flight flits = 0 (0 measured)
latency change    = 0.0233477
throughput change = 0.0217391
Warmed up ...Time used is 3000 cycles
Class 0:
Packet latency average = 19.9433
	minimum = 7
	maximum = 37
Network latency average = 19.9433
	minimum = 7
	maximum = 37
Slowest packet = 6044
Flit latency average = 19.9433
	minimum = 7
	maximum = 37
Slowest flit = 6044
Fragmentation average = 0
	minimum = 0
	maximum = 0
Injected packet rate average = 0.0090625
	minimum = 0.004 (at node 4)
	maximum = 0.016 (at node 1)
Accepted packet rate average = 0.0088125
	minimum = 0 (at node 0)
	maximum = 0.141 (at node 11)
Injected flit rate average = 0.0090625
	minimum = 0.004 (at node 4)
	maximum = 0.016 (at node 1)
Accepted flit rate average= 0.0088125
	minimum = 0 (at node 0)
	maximum = 0.141 (at node 11)
Injected packet length average = 1
Accepted packet length average = 1
Total in-flight flits = 4 (4 measured)
latency change    = 0.00992419
throughput change = 0.141844
Class 0:
Packet latency average = 20.0327
	minimum = 7
	maximum = 40
Network latency average = 20.0327
	minimum = 7
	maximum = 40
Slowest packet = 6196
Flit latency average = 20.0327
	minimum = 7
	maximum = 40
Slowest flit = 6196
Fragmentation average = 0
	minimum = 0
	maximum = 0
Injected packet rate average = 0.009625
	minimum = 0.007 (at node 4)
	maximum = 0.0125 (at node 0)
Accepted packet rate average = 0.0095625
	minimum = 0 (at node 0)
	maximum = 0.153 (at node 11)
Injected flit rate average = 0.009625
	minimum = 0.007 (at node 4)
	maximum = 0.0125 (at node 0)
Accepted flit rate average= 0.0095625
	minimum = 0 (at node 0)
	maximum = 0.153 (at node 11)
Injected packet length average = 1
Accepted packet length average = 1
Total in-flight flits = 2 (2 measured)
latency change    = 0.00446357
throughput change = 0.0784314
Class 0:
Packet latency average = 20.02
	minimum = 7
	maximum = 45
Network latency average = 20.02
	minimum = 7
	maximum = 45
Slowest packet = 6361
Flit latency average = 20.02
	minimum = 7
	maximum = 45
Slowest flit = 6361
Fragmentation average = 0
	minimum = 0
	maximum = 0
Injected packet rate average = 0.00945833
	minimum = 0.00666667 (at node 13)
	maximum = 0.012 (at node 0)
Accepted packet rate average = 0.00939583
	minimum = 0 (at node 0)
	maximum = 0.150333 (at node 11)
Injected flit rate average = 0.00945833
	minimum = 0.00666667 (at node 13)
	maximum = 0.012 (at node 0)
Accepted flit rate average= 0.00939583
	minimum = 0 (at node 0)
	maximum = 0.150333 (at node 11)
Injected packet length average = 1
Accepted packet length average = 1
Total in-flight flits = 3 (3 measured)
latency change    = 0.00063557
throughput change = 0.0177384
Class 0:
Packet latency average = 20.3167
	minimum = 7
	maximum = 45
Network latency average = 20.3167
	minimum = 7
	maximum = 45
Slowest packet = 6361
Flit latency average = 20.3167
	minimum = 7
	maximum = 45
Slowest flit = 6361
Fragmentation average = 0
	minimum = 0
	maximum = 0
Injected packet rate average = 0.0094375
	minimum = 0.00725 (at node 13)
	maximum = 0.0125 (at node 1)
Accepted packet rate average = 0.009375
	minimum = 0 (at node 0)
	maximum = 0.15 (at node 11)
Injected flit rate average = 0.0094375
	minimum = 0.00725 (at node 13)
	maximum = 0.0125 (at node 1)
Accepted flit rate average= 0.009375
	minimum = 0 (at node 0)
	maximum = 0.15 (at node 11)
Injected packet length average = 1
Accepted packet length average = 1
Total in-flight flits = 4 (4 measured)
latency change    = 0.0146043
throughput change = 0.00222222
Class 0:
Packet latency average = 20.4553
	minimum = 7
	maximum = 48
Network latency average = 20.4553
	minimum = 7
	maximum = 48
Slowest packet = 6720
Flit latency average = 20.4553
	minimum = 7
	maximum = 48
Slowest flit = 6720
Fragmentation average = 0
	minimum = 0
	maximum = 0
Injected packet rate average = 0.0097125
	minimum = 0.0074 (at node 13)
	maximum = 0.0126 (at node 0)
Accepted packet rate average = 0.0096375
	minimum = 0 (at node 0)
	maximum = 0.1542 (at node 11)
Injected flit rate average = 0.0097125
	minimum = 0.0074 (at node 13)
	maximum = 0.0126 (at node 0)
Accepted flit rate average= 0.0096375
	minimum = 0 (at node 0)
	maximum = 0.1542 (at node 11)
Injected packet length average = 1
Accepted packet length average = 1
Total in-flight flits = 6 (6 measured)
latency change    = 0.00677509
throughput change = 0.0272374
Draining all recorded packets ...
Draining remaining packets ...
Time taken is 8048 cycles
Class 0:
Packet latency average = 19.3101
	minimum = 7
	maximum = 35
Network latency average = 19.3101
	minimum = 7
	maximum = 35
Slowest packet = 6863
Flit latency average = 19.3101
	minimum = 7
	maximum = 35
Slowest flit = 6863
Fragmentation average = 0
	minimum = 0
	maximum = 0
Injected packet rate average = 0.010125
	minimum = 0.004 (at node 0)
	maximum = 0.017 (at node 8)
Accepted packet rate average = 0.009875
	minimum = 0 (at node 0)
	maximum = 0.158 (at node 11)
Injected flit rate average = 0.010125
	minimum = 0.004 (at node 0)
	maximum = 0.017 (at node 8)
Accepted flit rate average= 0.009875
	minimum = 0 (at node 0)
	maximum = 0.158 (at node 11)
Injected packet length average = 1
Accepted packet length average = 1
Total in-flight flits = 4 (0 measured)
latency change    = 1
throughput change = 1
Class 0:
Packet latency average = 19.7237
	minimum = 7
	maximum = 37
Network latency average = 19.7237
	minimum = 7
	maximum = 37
Slowest packet = 6934
Flit latency average = 19.7237
	minimum = 7
	maximum = 37
Slowest flit = 6934
Fragmentation average = 0
	minimum = 0
	maximum = 0
Injected packet rate average = 0.0104688
	minimum = 0.0065 (at node 0)
	maximum = 0.016 (at node 8)
Accepted packet rate average = 0.0104063
	minimum = 0 (at node 0)
	maximum = 0.1665 (at node 11)
Injected flit rate average = 0.0104688
	minimum = 0.0065 (at node 0)
	maximum = 0.016 (at node 8)
Accepted flit rate average= 0.0104063
	minimum = 0 (at node 0)
	maximum = 0.1665 (at node 11)
Injected packet length average = 1
Accepted packet length average = 1
Total in-flight flits = 2 (0 measured)
latency change    = 0.0209695
throughput change = 0.0510511
Class 0:
Packet latency average = 20.5683
	minimum = 7
	maximum = 40
Network latency average = 20.5683
	minimum = 7
	maximum = 40
Slowest packet = 7172
Flit latency average = 20.5683
	minimum = 7
	maximum = 40
Slowest flit = 7172
Fragmentation average = 0
	minimum = 0
	maximum = 0
Injected packet rate average = 0.00875
	minimum = 0.004 (at node 8)
	maximum = 0.015 (at node 4)
Accepted packet rate average = 0.0086875
	minimum = 0 (at node 0)
	maximum = 0.139 (at node 11)
Injected flit rate average = 0.00875
	minimum = 0.004 (at node 8)
	maximum = 0.015 (at node 4)
Accepted flit rate average= 0.0086875
	minimum = 0 (at node 0)
	maximum = 0.139 (at node 11)
Injected packet length average = 1
Accepted packet length average = 1
Total in-flight flits = 3 (0 measured)
latency change    = 0.0410641
throughput change = 0.197842
Warmed up ...Time used is 3000 cycles
Class 0:
Packet latency average = 22.0779
	minimum = 7
	maximum = 47
Network latency average = 22.0779
	minimum = 7
	maximum = 47
Slowest packet = 7248
Flit latency average = 21.9809
	minimum = 7
	maximum = 47
Slowest flit = 7248
Fragmentation average = 0
	minimum = 0
	maximum = 0
Injected packet rate average = 0.0098125
	minimum = 0.005 (at node 7)
	maximum = 0.015 (at node 13)
Accepted packet rate average = 0.0098125
	minimum = 0 (at node 0)
	maximum = 0.157 (at node 11)
Injected flit rate average = 0.0098125
	minimum = 0.005 (at node 7)
	maximum = 0.015 (at node 13)
Accepted flit rate average= 0.0098125
	minimum = 0 (at node 0)
	maximum = 0.157 (at node 11)
Injected packet length average = 1
Accepted packet length average = 1
Total in-flight flits = 3 (3 measured)
latency change    = 0.0683749
throughput change = 0.11465
Class 0:
Packet latency average = 21.4112
	minimum = 7
	maximum = 47
Network latency average = 21.4112
	minimum = 7
	maximum = 47
Slowest packet = 7248
Flit latency average = 21.3681
	minimum = 7
	maximum = 47
Slowest flit = 7248
Fragmentation average = 0
	minimum = 0
	maximum = 0
Injected packet rate average = 0.009625
	minimum = 0.0065 (at node 11)
	maximum = 0.0125 (at node 13)
Accepted packet rate average = 0.00959375
	minimum = 0 (at node 0)
	maximum = 0.1535 (at node 11)
Injected flit rate average = 0.009625
	minimum = 0.0065 (at node 11)
	maximum = 0.0125 (at node 13)
Accepted flit rate average= 0.00959375
	minimum = 0 (at node 0)
	maximum = 0.1535 (at node 11)
Injected packet length average = 1
Accepted packet length average = 1
Total in-flight flits = 4 (4 measured)
latency change    = 0.0311397
throughput change = 0.0228013
Class 0:
Packet latency average = 21.2971
	minimum = 7
	maximum = 55
Network latency average = 21.2971
	minimum = 7
	maximum = 55
Slowest packet = 7684
Flit latency average = 21.2709
	minimum = 7
	maximum = 55
Slowest flit = 7684
Fragmentation average = 0
	minimum = 0
	maximum = 0
Injected packet rate average = 0.0102083
	minimum = 0.007 (at node 11)
	maximum = 0.0133333 (at node 12)
Accepted packet rate average = 0.0102292
	minimum = 0 (at node 0)
	maximum = 0.163667 (at node 11)
Injected flit rate average = 0.0102083
	minimum = 0.007 (at node 11)
	maximum = 0.0133333 (at node 12)
Accepted flit rate average= 0.0102292
	minimum = 0 (at node 0)
	maximum = 0.163667 (at node 11)
Injected packet length average = 1
Accepted packet length average = 1
Total in-flight flits = 2 (2 measured)
latency change    = 0.00535533
throughput change = 0.0621181
Class 0:
Packet latency average = 20.9541
	minimum = 7
	maximum = 55
Network latency average = 20.9541
	minimum = 7
	maximum = 55
Slowest packet = 7684
Flit latency average = 20.9354
	minimum = 7
	maximum = 55
Slowest flit = 7684
Fragmentation average = 0
	minimum = 0
	maximum = 0
Injected packet rate average = 0.00990625
	minimum = 0.00725 (at node 8)
	maximum = 0.0125 (at node 12)
Accepted packet rate average = 0.00992188
	minimum = 0 (at node 0)
	maximum = 0.15875 (at node 11)
Injected flit rate average = 0.00990625
	minimum = 0.00725 (at node 8)
	maximum = 0.0125 (at node 12)
Accepted flit rate average= 0.00992188
	minimum = 0 (at node 0)
	maximum = 0.15875 (at node 11)
Injected packet length average = 1
Accepted packet length average = 1
Total in-flight flits = 2 (2 measured)
latency change    = 0.0163699
throughput change = 0.0309711
Class 0:
Packet latency average = 20.8579
	minimum = 7
	maximum = 55
Network latency average = 20.8579
	minimum = 7
	maximum = 55
Slowest packet = 7684
Flit latency average = 20.8435
	minimum = 7
	maximum = 55
Slowest flit = 7684
Fragmentation average = 0
	minimum = 0
	maximum = 0
Injected packet rate average = 0.010075
	minimum = 0.0074 (at node 8)
	maximum = 0.0126 (at node 4)
Accepted packet rate average = 0.0100625
	minimum = 0 (at node 0)
	maximum = 0.161 (at node 11)
Injected flit rate average = 0.010075
	minimum = 0.0074 (at node 8)
	maximum = 0.0126 (at node 4)
Accepted flit rate average= 0.0100625
	minimum = 0 (at node 0)
	maximum = 0.161 (at node 11)
Injected packet length average = 1
Accepted packet length average = 1
Total in-flight flits = 4 (4 measured)
latency change    = 0.00461498
throughput change = 0.0139752
Class 0:
Packet latency average = 20.7121
	minimum = 7
	maximum = 55
Network latency average = 20.7121
	minimum = 7
	maximum = 55
Slowest packet = 7684
Flit latency average = 20.7006
	minimum = 7
	maximum = 55
Slowest flit = 7684
Fragmentation average = 0
	minimum = 0
	maximum = 0
Injected packet rate average = 0.0101354
	minimum = 0.0075 (at node 8)
	maximum = 0.0131667 (at node 4)
Accepted packet rate average = 0.010125
	minimum = 0 (at node 0)
	maximum = 0.162 (at node 11)
Injected flit rate average = 0.0101354
	minimum = 0.0075 (at node 8)
	maximum = 0.0131667 (at node 4)
Accepted flit rate average= 0.010125
	minimum = 0 (at node 0)
	maximum = 0.162 (at node 11)
Injected packet length average = 1
Accepted packet length average = 1
Total in-flight flits = 4 (4 measured)
latency change    = 0.00703846
throughput change = 0.00617284
Draining all recorded packets ...
Draining remaining packets ...
Time taken is 9036 cycles
Class 0:
Packet latency average = 20.6644
	minimum = 7
	maximum = 46
Network latency average = 20.6644
	minimum = 7
	maximum = 46
Slowest packet = 8321
Flit latency average = 20.6644
	minimum = 7
	maximum = 46
Slowest flit = 8321
Fragmentation average = 0
	minimum = 0
	maximum = 0
Injected packet rate average = 0.0095
	minimum = 0.003 (at node 11)
	maximum = 0.015 (at node 4)
Accepted packet rate average = 0.0093125
	minimum = 0 (at node 0)
	maximum = 0.149 (at node 11)
Injected flit rate average = 0.0095
	minimum = 0.003 (at node 11)
	maximum = 0.015 (at node 4)
Accepted flit rate average= 0.0093125
	minimum = 0 (at node 0)
	maximum = 0.149 (at node 11)
Injected packet length average = 1
Accepted packet length average = 1
Total in-flight flits = 3 (0 measured)
latency change    = 1
throughput change = 1
Class 0:
Packet latency average = 20.75
	minimum = 7
	maximum = 46
Network latency average = 20.75
	minimum = 7
	maximum = 46
Slowest packet = 8321
Flit latency average = 20.75
	minimum = 7
	maximum = 46
Slowest flit = 8321
Fragmentation average = 0
	minimum = 0
	maximum = 0
Injected packet rate average = 0.009625
	minimum = 0.005 (at node 11)
	maximum = 0.013 (at node 8)
Accepted packet rate average = 0.0095
	minimum = 0 (at node 0)
	maximum = 0.152 (at node 11)
Injected flit rate average = 0.009625
	minimum = 0.005 (at node 11)
	maximum = 0.013 (at node 8)
Accepted flit rate average= 0.0095
	minimum = 0 (at node 0)
	maximum = 0.152 (at node 11)
Injected packet length average = 1
Accepted packet length average = 1
Total in-flight flits = 4 (0 measured)
latency change    = 0.00412388
throughput change = 0.0197368
Class 0:
Packet latency average = 20.8133
	minimum = 7
	maximum = 39
Network latency average = 20.8133
	minimum = 7
	maximum = 39
Slowest packet = 8506
Flit latency average = 20.8133
	minimum = 7
	maximum = 39
Slowest flit = 8506
Fragmentation average = 0
	minimum = 0
	maximum = 0
Injected packet rate average = 0.0093125
	minimum = 0.003 (at node 10)
	maximum = 0.02 (at node 12)
Accepted packet rate average = 0.009375
	minimum = 0 (at node 0)
	maximum = 0.15 (at node 11)
Injected flit rate average = 0.0093125
	minimum = 0.003 (at node 10)
	maximum = 0.02 (at node 12)
Accepted flit rate average= 0.009375
	minimum = 0 (at node 0)
	maximum = 0.15 (at node 11)
Injected packet length average = 1
Accepted packet length average = 1
Total in-flight flits = 3 (0 measured)
latency change    = 0.00304292
throughput change = 0.0133333
Warmed up ...Time used is 3000 cycles
Class 0:
Packet latency average = 20.6312
	minimum = 7
	maximum = 36
Network latency average = 20.6312
	minimum = 7
	maximum = 36
Slowest packet = 8797
Flit latency average = 20.6875
	minimum = 7
	maximum = 36
Slowest flit = 8797
Fragmentation average = 0
	minimum = 0
	maximum = 0
Injected packet rate average = 0.0090625
	minimum = 0.005 (at node 1)
	maximum = 0.013 (at node 0)
Accepted packet rate average = 0.009
	minimum = 0 (at node 0)
	maximum = 0.144 (at node 11)
Injected flit rate average = 0.0090625
	minimum = 0.005 (at node 1)
	maximum = 0.013 (at node 0)
Accepted flit rate average= 0.009
	minimum = 0 (at node 0)
	maximum = 0.144 (at node 11)
Injected packet length average = 1
Accepted packet length average = 1
Total in-flight flits = 4 (4 measured)
latency change    = 0.00882778
throughput change = 0.0416667
Class 0:
Packet latency average = 21.2338
	minimum = 7
	maximum = 58
Network latency average = 21.2338
	minimum = 7
	maximum = 58
Slowest packet = 8881
Flit latency average = 21.254
	minimum = 7
	maximum = 58
Slowest flit = 8881
Fragmentation average = 0
	minimum = 0
	maximum = 0
Injected packet rate average = 0.00978125
	minimum = 0.007 (at node 15)
	maximum = 0.014 (at node 13)
Accepted packet rate average = 0.00971875
	minimum = 0 (at node 0)
	maximum = 0.1555 (at node 11)
Injected flit rate average = 0.00978125
	minimum = 0.007 (at node 15)
	maximum = 0.014 (at node 13)
Accepted flit rate average= 0.00971875
	minimum = 0 (at node 0)
	maximum = 0.1555 (at node 11)
Injected packet length average = 1
Accepted packet length average = 1
Total in-flight flits = 5 (5 measured)
latency change    = 0.0283775
throughput change = 0.073955
Class 0:
Packet latency average = 20.8226
	minimum = 7
	maximum = 58
Network latency average = 20.8226
	minimum = 7
	maximum = 58
Slowest packet = 8881
Flit latency average = 20.8386
	minimum = 7
	maximum = 58
Slowest flit = 8881
Fragmentation average = 0
	minimum = 0
	maximum = 0
Injected packet rate average = 0.0098125
	minimum = 0.00666667 (at node 1)
	maximum = 0.015 (at node 13)
Accepted packet rate average = 0.0098125
	minimum = 0 (at node 0)
	maximum = 0.157 (at node 11)
Injected flit rate average = 0.0098125
	minimum = 0.00666667 (at node 1)
	maximum = 0.015 (at node 13)
Accepted flit rate average= 0.0098125
	minimum = 0 (at node 0)
	maximum = 0.157 (at node 11)
Injected packet length average = 1
Accepted packet length average = 1
Total in-flight flits = 3 (3 measured)
latency change    = 0.0197437
throughput change = 0.00955414
Class 0:
Packet latency average = 20.55
	minimum = 7
	maximum = 58
Network latency average = 20.55
	minimum = 7
	maximum = 58
Slowest packet = 8881
Flit latency average = 20.563
	minimum = 7
	maximum = 58
Slowest flit = 8881
Fragmentation average = 0
	minimum = 0
	maximum = 0
Injected packet rate average = 0.0100625
	minimum = 0.0075 (at node 1)
	maximum = 0.01325 (at node 13)
Accepted packet rate average = 0.0100469
	minimum = 0 (at node 0)
	maximum = 0.16075 (at node 11)
Injected flit rate average = 0.0100625
	minimum = 0.0075 (at node 1)
	maximum = 0.01325 (at node 13)
Accepted flit rate average= 0.0100469
	minimum = 0 (at node 0)
	maximum = 0.16075 (at node 11)
Injected packet length average = 1
Accepted packet length average = 1
Total in-flight flits = 4 (4 measured)
latency change    = 0.0132676
throughput change = 0.0233281
Class 0:
Packet latency average = 20.444
	minimum = 7
	maximum = 58
Network latency average = 20.444
	minimum = 7
	maximum = 58
Slowest packet = 8881
Flit latency average = 20.455
	minimum = 7
	maximum = 58
Slowest flit = 8881
Fragmentation average = 0
	minimum = 0
	maximum = 0
Injected packet rate average = 0.009875
	minimum = 0.007 (at node 1)
	maximum = 0.013 (at node 13)
Accepted packet rate average = 0.0098625
	minimum = 0 (at node 0)
	maximum = 0.1578 (at node 11)
Injected flit rate average = 0.009875
	minimum = 0.007 (at node 1)
	maximum = 0.013 (at node 13)
Accepted flit rate average= 0.0098625
	minimum = 0 (at node 0)
	maximum = 0.1578 (at node 11)
Injected packet length average = 1
Accepted packet length average = 1
Total in-flight flits = 4 (4 measured)
latency change    = 0.00518389
throughput change = 0.0186946
Draining all recorded packets ...
Draining remaining packets ...
Time taken is 8035 cycles
Class 0:
Packet latency average = 19.8411
	minimum = 7
	maximum = 38
Network latency average = 19.8411
	minimum = 7
	maximum = 38
Slowest packet = 9548
Flit latency average = 19.8411
	minimum = 7
	maximum = 38
Slowest flit = 9548
Fragmentation average = 0
	minimum = 0
	maximum = 0
Injected packet rate average = 0.009625
	minimum = 0.003 (at node 10)
	maximum = 0.014 (at node 1)
Accepted packet rate average = 0.0094375
	minimum = 0 (at node 0)
	maximum = 0.151 (at node 11)
Injected flit rate average = 0.009625
	minimum = 0.003 (at node 10)
	maximum = 0.014 (at node 1)
Accepted flit rate average= 0.0094375
	minimum = 0 (at node 0)
	maximum = 0.151 (at node 11)
Injected packet length average = 1
Accepted packet length average = 1
Total in-flight flits = 3 (0 measured)
latency change    = 1
throughput change = 1
Class 0:
Packet latency average = 19.9306
	minimum = 7
	maximum = 38
Network latency average = 19.9306
	minimum = 7
	maximum = 38
Slowest packet = 9548
Flit latency average = 19.9306
	minimum = 7
	maximum = 38
Slowest flit = 9548
Fragmentation average = 0
	minimum = 0
	maximum = 0
Injected packet rate average = 0.0101875
	minimum = 0.007 (at node 13)
	maximum = 0.0145 (at node 9)
Accepted packet rate average = 0.00990625
	minimum = 0 (at node 0)
	maximum = 0.1585 (at node 11)
Injected flit rate average = 0.0101875
	minimum = 0.007 (at node 13)
	maximum = 0.0145 (at node 9)
Accepted flit rate average= 0.00990625
	minimum = 0 (at node 0)
	maximum = 0.1585 (at node 11)
Injected packet length average = 1
Accepted packet length average = 1
Total in-flight flits = 9 (0 measured)
latency change    = 0.00449258
throughput change = 0.0473186
Class 0:
Packet latency average = 21.04
	minimum = 7
	maximum = 40
Network latency average = 21.04
	minimum = 7
	maximum = 40
Slowest packet = 9834
Flit latency average = 21.04
	minimum = 7
	maximum = 40
Slowest flit = 9834
Fragmentation average = 0
	minimum = 0
	maximum = 0
Injected packet rate average = 0.009125
	minimum = 0.006 (at node 6)
	maximum = 0.013 (at node 0)
Accepted packet rate average = 0.009375
	minimum = 0 (at node 0)
	maximum = 0.15 (at node 11)
Injected flit rate average = 0.009125
	minimum = 0.006 (at node 6)
	maximum = 0.013 (at node 0)
Accepted flit rate average= 0.009375
	minimum = 0 (at node 0)
	maximum = 0.15 (at node 11)
Injected packet length average = 1
Accepted packet length average = 1
Total in-flight flits = 5 (0 measured)
latency change    = 0.0527282
throughput change = 0.0566667
Warmed up ...Time used is 3000 cycles
Class 0:
Packet latency average = 20.0556
	minimum = 7
	maximum = 36
Network latency average = 20.0556
	minimum = 7
	maximum = 36
Slowest packet = 9951
Flit latency average = 20.094
	minimum = 7
	maximum = 36
Slowest flit = 9951
Fragmentation average = 0
	minimum = 0
	maximum = 0
Injected packet rate average = 0.0091875
	minimum = 0.006 (at node 0)
	maximum = 0.013 (at node 2)
Accepted packet rate average = 0.0093125
	minimum = 0 (at node 0)
	maximum = 0.149 (at node 11)
Injected flit rate average = 0.0091875
	minimum = 0.006 (at node 0)
	maximum = 0.013 (at node 2)
Accepted flit rate average= 0.0093125
	minimum = 0 (at node 0)
	maximum = 0.149 (at node 11)
Injected packet length average = 1
Accepted packet length average = 1
Total in-flight flits = 3 (3 measured)
latency change    = 0.0490859
throughput change = 0.00671141
Class 0:
Packet latency average = 20.0514
	minimum = 7
	maximum = 49
Network latency average = 20.0514
	minimum = 7
	maximum = 49
Slowest packet = 10129
Flit latency average = 20.0707
	minimum = 7
	maximum = 49
Slowest flit = 10129
Fragmentation average = 0
	minimum = 0
	maximum = 0
Injected packet rate average = 0.00928125
	minimum = 0.0055 (at node 0)
	maximum = 0.0135 (at node 4)
Accepted packet rate average = 0.00928125
	minimum = 0 (at node 0)
	maximum = 0.1485 (at node 11)
Injected flit rate average = 0.00928125
	minimum = 0.0055 (at node 0)
	maximum = 0.0135 (at node 4)
Accepted flit rate average= 0.00928125
	minimum = 0 (at node 0)
	maximum = 0.1485 (at node 11)
Injected packet length average = 1
Accepted packet length average = 1
Total in-flight flits = 5 (5 measured)
latency change    = 0.000208748
throughput change = 0.003367
Class 0:
Packet latency average = 20.17
	minimum = 7
	maximum = 49
Network latency average = 20.17
	minimum = 7
	maximum = 49
Slowest packet = 10129
Flit latency average = 20.1812
	minimum = 7
	maximum = 49
Slowest flit = 10129
Fragmentation average = 0
	minimum = 0
	maximum = 0
Injected packet rate average = 0.0095
	minimum = 0.006 (at node 15)
	maximum = 0.014 (at node 4)
Accepted packet rate average = 0.00954167
	minimum = 0 (at node 0)
	maximum = 0.152667 (at node 11)
Injected flit rate average = 0.0095
	minimum = 0.006 (at node 15)
	maximum = 0.014 (at node 4)
Accepted flit rate average= 0.00954167
	minimum = 0 (at node 0)
	maximum = 0.152667 (at node 11)
Injected packet length average = 1
Accepted packet length average = 1
Total in-flight flits = 3 (3 measured)
latency change    = 0.00588043
throughput change = 0.0272926
Draining all recorded packets ...
Draining remaining packets ...
Time taken is 6026 cycles
Class 0:
Packet latency average = 19.9548
	minimum = 7
	maximum = 40
Network latency average = 19.9548
	minimum = 7
	maximum = 40
Slowest packet = 10471
Flit latency average = 19.9548
	minimum = 7
	maximum = 40
Slowest flit = 10471
Fragmentation average = 0
	minimum = 0
	maximum = 0
Injected packet rate average = 0.011125
	minimum = 0.005 (at node 2)
	maximum = 0.018 (at node 9)
Accepted packet rate average = 0.0110625
	minimum = 0 (at node 0)
	maximum = 0.177 (at node 11)
Injected flit rate average = 0.011125
	minimum = 0.005 (at node 2)
	maximum = 0.018 (at node 9)
Accepted flit rate average= 0.0110625
	minimum = 0 (at node 0)
	maximum = 0.177 (at node 11)
Injected packet length average = 1
Accepted packet length average = 1
Total in-flight flits = 1 (0 measured)
latency change    = 1
throughput change = 1
Class 0:
Packet latency average = 19.994
	minimum = 7
	maximum = 40
Network latency average = 19.994
	minimum = 7
	maximum = 40
Slowest packet = 10471
Flit latency average = 19.994
	minimum = 7
	maximum = 40
Slowest flit = 10471
Fragmentation average = 0
	minimum = 0
	maximum = 0
Injected packet rate average = 0.0105625
	minimum = 0.0035 (at node 2)
	maximum = 0.0135 (at node 9)
Accepted packet rate average = 0.0104688
	minimum = 0 (at node 0)
	maximum = 0.1675 (at node 11)
Injected flit rate average = 0.0105625
	minimum = 0.0035 (at node 2)
	maximum = 0.0135 (at node 9)
Accepted flit rate average= 0.0104688
	minimum = 0 (at node 0)
	maximum = 0.1675 (at node 11)
Injected packet length average = 1
Accepted packet length average = 1
Total in-flight flits = 3 (0 measured)
latency change    = 0.00196197
throughput change = 0.0567164
Class 0:
Packet latency average = 21
	minimum = 7
	maximum = 38
Network latency average = 21
	minimum = 7
	maximum = 38
Slowest packet = 10773
Flit latency average = 21
	minimum = 7
	maximum = 38
Slowest flit = 10773
Fragmentation average = 0
	minimum = 0
	maximum = 0
Injected packet rate average = 0.0108125
	minimum = 0.004 (at node 10)
	maximum = 0.019 (at node 8)
Accepted packet rate average = 0.01075
	minimum = 0 (at node 0)
	maximum = 0.172 (at node 11)
Injected flit rate average = 0.0108125
	minimum = 0.004 (at node 10)
	maximum = 0.019 (at node 8)
Accepted flit rate average= 0.01075
	minimum = 0 (at node 0)
	maximum = 0.172 (at node 11)
Injected packet length average = 1
Accepted packet length average = 1
Total in-flight flits = 4 (0 measured)
latency change    = 0.0479033
throughput change = 0.0261628
Warmed up ...Time used is 3000 cycles
Class 0:
Packet latency average = 19.3614
	minimum = 7
	maximum = 39
Network latency average = 19.3614
	minimum = 7
	maximum = 39
Slowest packet = 10954
Flit latency average = 19.4882
	minimum = 7
	maximum = 39
Slowest flit = 10954
Fragmentation average = 0
	minimum = 0
	maximum = 0
Injected packet rate average = 0.0105625
	minimum = 0.005 (at node 0)
	maximum = 0.017 (at node 11)
Accepted packet rate average = 0.010625
	minimum = 0 (at node 0)
	maximum = 0.17 (at node 11)
Injected flit rate average = 0.0105625
	minimum = 0.005 (at node 0)
	maximum = 0.017 (at node 11)
Accepted flit rate average= 0.010625
	minimum = 0 (at node 0)
	maximum = 0.17 (at node 11)
Injected packet length average = 1
Accepted packet length average = 1
Total in-flight flits = 3 (3 measured)
latency change    = 0.0846297
throughput change = 0.0117647
Class 0:
Packet latency average = 20.102
	minimum = 7
	maximum = 43
Network latency average = 20.102
	minimum = 7
	maximum = 43
Slowest packet = 11228
Flit latency average = 20.1556
	minimum = 7
	maximum = 43
Slowest flit = 11228
Fragmentation average = 0
	minimum = 0
	maximum = 0
Injected packet rate average = 0.0108125
	minimum = 0.007 (at node 9)
	maximum = 0.0165 (at node 4)
Accepted packet rate average = 0.0108437
	minimum = 0 (at node 0)
	maximum = 0.1735 (at node 11)
Injected flit rate average = 0.0108125
	minimum = 0.007 (at node 9)
	maximum = 0.0165 (at node 4)
Accepted flit rate average= 0.0108437
	minimum = 0 (at node 0)
	maximum = 0.1735 (at node 11)
Injected packet length average = 1
Accepted packet length average = 1
Total in-flight flits = 3 (3 measured)
latency change    = 0.0368418
throughput change = 0.0201729
Class 0:
Packet latency average = 20.134
	minimum = 7
	maximum = 44
Network latency average = 20.134
	minimum = 7
	maximum = 44
Slowest packet = 11333
Flit latency average = 20.1706
	minimum = 7
	maximum = 44
Slowest flit = 11333
Fragmentation average = 0
	minimum = 0
	maximum = 0
Injected packet rate average = 0.0104792
	minimum = 0.00666667 (at node 5)
	maximum = 0.0146667 (at node 4)
Accepted packet rate average = 0.0105
	minimum = 0 (at node 0)
	maximum = 0.168 (at node 11)
Injected flit rate average = 0.0104792
	minimum = 0.00666667 (at node 5)
	maximum = 0.0146667 (at node 4)
Accepted flit rate average= 0.0105
	minimum = 0 (at node 0)
	maximum = 0.168 (at node 11)
Injected packet length average = 1
Accepted packet length average = 1
Total in-flight flits = 3 (3 measured)
latency change    = 0.00158732
throughput change = 0.0327381
Class 0:
Packet latency average = 20.211
	minimum = 7
	maximum = 44
Network latency average = 20.211
	minimum = 7
	maximum = 44
Slowest packet = 11333
Flit latency average = 20.2394
	minimum = 7
	maximum = 44
Slowest flit = 11333
Fragmentation average = 0
	minimum = 0
	maximum = 0
Injected packet rate average = 0.00995313
	minimum = 0.00625 (at node 5)
	maximum = 0.013 (at node 3)
Accepted packet rate average = 0.00998438
	minimum = 0 (at node 0)
	maximum = 0.15975 (at node 11)
Injected flit rate average = 0.00995313
	minimum = 0.00625 (at node 5)
	maximum = 0.013 (at node 3)
Accepted flit rate average= 0.00998438
	minimum = 0 (at node 0)
	maximum = 0.15975 (at node 11)
Injected packet length average = 1
Accepted packet length average = 1
Total in-flight flits = 2 (2 measured)
latency change    = 0.00381097
throughput change = 0.0516432
Class 0:
Packet latency average = 20.4062
	minimum = 7
	maximum = 51
Network latency average = 20.4062
	minimum = 7
	maximum = 51
Slowest packet = 11643
Flit latency average = 20.4279
	minimum = 7
	maximum = 51
Slowest flit = 11643
Fragmentation average = 0
	minimum = 0
	maximum = 0
Injected packet rate average = 0.010075
	minimum = 0.0078 (at node 5)
	maximum = 0.0124 (at node 3)
Accepted packet rate average = 0.01005
	minimum = 0 (at node 0)
	maximum = 0.1608 (at node 11)
Injected flit rate average = 0.010075
	minimum = 0.0078 (at node 5)
	maximum = 0.0124 (at node 3)
Accepted flit rate average= 0.01005
	minimum = 0 (at node 0)
	maximum = 0.1608 (at node 11)
Injected packet length average = 1
Accepted packet length average = 1
Total in-flight flits = 6 (6 measured)
latency change    = 0.00956699
throughput change = 0.00652985
Class 0:
Packet latency average = 20.3236
	minimum = 7
	maximum = 51
Network latency average = 20.3236
	minimum = 7
	maximum = 51
Slowest packet = 11643
Flit latency average = 20.342
	minimum = 7
	maximum = 51
Slowest flit = 11643
Fragmentation average = 0
	minimum = 0
	maximum = 0
Injected packet rate average = 0.0100417
	minimum = 0.0075 (at node 5)
	maximum = 0.012 (at node 3)
Accepted packet rate average = 0.0100208
	minimum = 0 (at node 0)
	maximum = 0.160333 (at node 11)
Injected flit rate average = 0.0100417
	minimum = 0.0075 (at node 5)
	maximum = 0.012 (at node 3)
Accepted flit rate average= 0.0100208
	minimum = 0 (at node 0)
	maximum = 0.160333 (at node 11)
Injected packet length average = 1
Accepted packet length average = 1
Total in-flight flits = 6 (6 measured)
latency change    = 0.00406715
throughput change = 0.0029106
Class 0:
Packet latency average = 20.4731
	minimum = 7
	maximum = 55
Network latency average = 20.4731
	minimum = 7
	maximum = 55
Slowest packet = 11872
Flit latency average = 20.4881
	minimum = 7
	maximum = 55
Slowest flit = 11872
Fragmentation average = 0
	minimum = 0
	maximum = 0
Injected packet rate average = 0.0101429
	minimum = 0.00814286 (at node 5)
	maximum = 0.0121429 (at node 4)
Accepted packet rate average = 0.0101518
	minimum = 0 (at node 0)
	maximum = 0.162429 (at node 11)
Injected flit rate average = 0.0101429
	minimum = 0.00814286 (at node 5)
	maximum = 0.0121429 (at node 4)
Accepted flit rate average= 0.0101518
	minimum = 0 (at node 0)
	maximum = 0.162429 (at node 11)
Injected packet length average = 1
Accepted packet length average = 1
Total in-flight flits = 3 (3 measured)
latency change    = 0.00730176
throughput change = 0.0128994
Draining all recorded packets ...
Draining remaining packets ...
Time taken is 10033 cycles
Class 0:
Packet latency average = 20.4568
	minimum = 7
	maximum = 53
Network latency average = 20.4568
	minimum = 7
	maximum = 53
Slowest packet = 12152
Flit latency average = 20.4568
	minimum = 7
	maximum = 53
Slowest flit = 12152
Fragmentation average = 0
	minimum = 0
	maximum = 0
Injected packet rate average = 0.010375
	minimum = 0.004 (at node 6)
	maximum = 0.017 (at node 1)
Accepted packet rate average = 0.010125
	minimum = 0 (at node 0)
	maximum = 0.162 (at node 11)
Injected flit rate average = 0.010375
	minimum = 0.004 (at node 6)
	maximum = 0.017 (at node 1)
Accepted flit rate average= 0.010125
	minimum = 0 (at node 0)
	maximum = 0.162 (at node 11)
Injected packet length average = 1
Accepted packet length average = 1
Total in-flight flits = 4 (0 measured)
latency change    = 1
throughput change = 1
Class 0:
Packet latency average = 20.4393
	minimum = 7
	maximum = 53
Network latency average = 20.4393
	minimum = 7
	maximum = 53
Slowest packet = 12152
Flit latency average = 20.4393
	minimum = 7
	maximum = 53
Slowest flit = 12152
Fragmentation average = 0
	minimum = 0
	maximum = 0
Injected packet rate average = 0.010125
	minimum = 0.007 (at node 6)
	maximum = 0.0145 (at node 7)
Accepted packet rate average = 0.0100313
	minimum = 0 (at node 0)
	maximum = 0.1605 (at node 11)
Injected flit rate average = 0.010125
	minimum = 0.007 (at node 6)
	maximum = 0.0145 (at node 7)
Accepted flit rate average= 0.0100313
	minimum = 0 (at node 0)
	maximum = 0.1605 (at node 11)
Injected packet length average = 1
Accepted packet length average = 1
Total in-flight flits = 3 (0 measured)
latency change    = 0.000858044
throughput change = 0.00934579
Class 0:
Packet latency average = 20.1282
	minimum = 7
	maximum = 39
Network latency average = 20.1282
	minimum = 7
	maximum = 39
Slowest packet = 12459
Flit latency average = 20.1282
	minimum = 7
	maximum = 39
Slowest flit = 12459
Fragmentation average = 0
	minimum = 0
	maximum = 0
Injected packet rate average = 0.0098125
	minimum = 0.003 (at node 6)
	maximum = 0.016 (at node 0)
Accepted packet rate average = 0.00975
	minimum = 0 (at node 0)
	maximum = 0.156 (at node 11)
Injected flit rate average = 0.0098125
	minimum = 0.003 (at node 6)
	maximum = 0.016 (at node 0)
Accepted flit rate average= 0.00975
	minimum = 0 (at node 0)
	maximum = 0.156 (at node 11)
Injected packet length average = 1
Accepted packet length average = 1
Total in-flight flits = 4 (0 measured)
latency change    = 0.0154533
throughput change = 0.0288462
Warmed up ...Time used is 3000 cycles
Class 0:
Packet latency average = 21.3224
	minimum = 7
	maximum = 44
Network latency average = 21.3224
	minimum = 7
	maximum = 44
Slowest packet = 12531
Flit latency average = 21.4231
	minimum = 7
	maximum = 44
Slowest flit = 12531
Fragmentation average = 0
	minimum = 0
	maximum = 0
Injected packet rate average = 0.0096875
	minimum = 0.004 (at node 3)
	maximum = 0.015 (at node 8)
Accepted packet rate average = 0.00975
	minimum = 0 (at node 0)
	maximum = 0.156 (at node 11)
Injected flit rate average = 0.0096875
	minimum = 0.004 (at node 3)
	maximum = 0.015 (at node 8)
Accepted flit rate average= 0.00975
	minimum = 0 (at node 0)
	maximum = 0.156 (at node 11)
Injected packet length average = 1
Accepted packet length average = 1
Total in-flight flits = 3 (3 measured)
latency change    = 0.0560052
throughput change = 0
Class 0:
Packet latency average = 21.0882
	minimum = 7
	maximum = 50
Network latency average = 21.0882
	minimum = 7
	maximum = 50
Slowest packet = 12702
Flit latency average = 21.1419
	minimum = 7
	maximum = 50
Slowest flit = 12702
Fragmentation average = 0
	minimum = 0
	maximum = 0
Injected packet rate average = 0.0096875
	minimum = 0.006 (at node 3)
	maximum = 0.014 (at node 8)
Accepted packet rate average = 0.0096875
	minimum = 0 (at node 0)
	maximum = 0.155 (at node 11)
Injected flit rate average = 0.0096875
	minimum = 0.006 (at node 3)
	maximum = 0.014 (at node 8)
Accepted flit rate average= 0.0096875
	minimum = 0 (at node 0)
	maximum = 0.155 (at node 11)
Injected packet length average = 1
Accepted packet length average = 1
Total in-flight flits = 4 (4 measured)
latency change    = 0.0111025
throughput change = 0.00645161
Class 0:
Packet latency average = 21.3412
	minimum = 7
	maximum = 50
Network latency average = 21.3412
	minimum = 7
	maximum = 50
Slowest packet = 12702
Flit latency average = 21.3742
	minimum = 7
	maximum = 50
Slowest flit = 12702
Fragmentation average = 0
	minimum = 0
	maximum = 0
Injected packet rate average = 0.00983333
	minimum = 0.00633333 (at node 3)
	maximum = 0.0143333 (at node 8)
Accepted packet rate average = 0.00985417
	minimum = 0 (at node 0)
	maximum = 0.157667 (at node 11)
Injected flit rate average = 0.00983333
	minimum = 0.00633333 (at node 3)
	maximum = 0.0143333 (at node 8)
Accepted flit rate average= 0.00985417
	minimum = 0 (at node 0)
	maximum = 0.157667 (at node 11)
Injected packet length average = 1
Accepted packet length average = 1
Total in-flight flits = 3 (3 measured)
latency change    = 0.0118511
throughput change = 0.0169133
Class 0:
Packet latency average = 21.1498
	minimum = 7
	maximum = 50
Network latency average = 21.1498
	minimum = 7
	maximum = 50
Slowest packet = 12702
Flit latency average = 21.176
	minimum = 7
	maximum = 50
Slowest flit = 12702
Fragmentation average = 0
	minimum = 0
	maximum = 0
Injected packet rate average = 0.00975
	minimum = 0.00625 (at node 9)
	maximum = 0.01425 (at node 8)
Accepted packet rate average = 0.00976562
	minimum = 0 (at node 0)
	maximum = 0.15625 (at node 11)
Injected flit rate average = 0.00975
	minimum = 0.00625 (at node 9)
	maximum = 0.01425 (at node 8)
Accepted flit rate average= 0.00976562
	minimum = 0 (at node 0)
	maximum = 0.15625 (at node 11)
Injected packet length average = 1
Accepted packet length average = 1
Total in-flight flits = 3 (3 measured)
latency change    = 0.00904941
throughput change = 0.00906667
Draining all recorded packets ...
Draining remaining packets ...
Time taken is 7048 cycles
Class 0:
Packet latency average = 19.9527
	minimum = 7
	maximum = 40
Network latency average = 19.9527
	minimum = 7
	maximum = 40
Slowest packet = 13251
Flit latency average = 19.9527
	minimum = 7
	maximum = 40
Slowest flit = 13251
Fragmentation average = 0
	minimum = 0
	maximum = 0
Injected packet rate average = 0.009375
	minimum = 0.005 (at node 5)
	maximum = 0.013 (at node 9)
Accepted packet rate average = 0.00925
	minimum = 0 (at node 0)
	maximum = 0.148 (at node 11)
Injected flit rate average = 0.009375
	minimum = 0.005 (at node 5)
	maximum = 0.013 (at node 9)
Accepted flit rate average= 0.00925
	minimum = 0 (at node 0)
	maximum = 0.148 (at node 11)
Injected packet length average = 1
Accepted packet length average = 1
Total in-flight flits = 2 (0 measured)
latency change    = 1
throughput change = 1
Class 0:
Packet latency average = 20.0597
	minimum = 7
	maximum = 41
Network latency average = 20.0597
	minimum = 7
	maximum = 41
Slowest packet = 13422
Flit latency average = 20.0597
	minimum = 7
	maximum = 41
Slowest flit = 13422
Fragmentation average = 0
	minimum = 0
	maximum = 0
Injected packet rate average = 0.0101563
	minimum = 0.006 (at node 5)
	maximum = 0.0135 (at node 4)
Accepted packet rate average = 0.0099375
	minimum = 0 (at node 0)
	maximum = 0.159 (at node 11)
Injected flit rate average = 0.0101563
	minimum = 0.006 (at node 5)
	maximum = 0.0135 (at node 4)
Accepted flit rate average= 0.0099375
	minimum = 0 (at node 0)
	maximum = 0.159 (at node 11)
Injected packet length average = 1
Accepted packet length average = 1
Total in-flight flits = 7 (0 measured)
latency change    = 0.00533634
throughput change = 0.0691824
Class 0:
Packet latency average = 20.1818
	minimum = 7
	maximum = 36
Network latency average = 20.1818
	minimum = 7
	maximum = 36
Slowest packet = 13469
Flit latency average = 20.1818
	minimum = 7
	maximum = 36
Slowest flit = 13469
Fragmentation average = 0
	minimum = 0
	maximum = 0
Injected packet rate average = 0.0100625
	minimum = 0.004 (at node 2)
	maximum = 0.018 (at node 5)
Accepted packet rate average = 0.0103125
	minimum = 0 (at node 0)
	maximum = 0.165 (at node 11)
Injected flit rate average = 0.0100625
	minimum = 0.004 (at node 2)
	maximum = 0.018 (at node 5)
Accepted flit rate average= 0.0103125
	minimum = 0 (at node 0)
	maximum = 0.165 (at node 11)
Injected packet length average = 1
Accepted packet length average = 1
Total in-flight flits = 3 (0 measured)
latency change    = 0.0060485
throughput change = 0.0363636
Warmed up ...Time used is 3000 cycles
Class 0:
Packet latency average = 20.3605
	minimum = 7
	maximum = 34
Network latency average = 20.3605
	minimum = 7
	maximum = 34
Slowest packet = 13717
Flit latency average = 20.4267
	minimum = 7
	maximum = 34
Slowest flit = 13717
Fragmentation average = 0
	minimum = 0
	maximum = 0
Injected packet rate average = 0.0093125
	minimum = 0.005 (at node 10)
	maximum = 0.014 (at node 5)
Accepted packet rate average = 0.009375
	minimum = 0 (at node 0)
	maximum = 0.15 (at node 11)
Injected flit rate average = 0.0093125
	minimum = 0.005 (at node 10)
	maximum = 0.014 (at node 5)
Accepted flit rate average= 0.009375
	minimum = 0 (at node 0)
	maximum = 0.15 (at node 11)
Injected packet length average = 1
Accepted packet length average = 1
Total in-flight flits = 2 (2 measured)
latency change    = 0.00877806
throughput change = 0.1
Class 0:
Packet latency average = 21.5048
	minimum = 7
	maximum = 69
Network latency average = 21.5048
	minimum = 7
	maximum = 69
Slowest packet = 13800
Flit latency average = 21.5255
	minimum = 7
	maximum = 69
Slowest flit = 13800
Fragmentation average = 0
	minimum = 0
	maximum = 0
Injected packet rate average = 0.00971875
	minimum = 0.007 (at node 1)
	maximum = 0.0145 (at node 4)
Accepted packet rate average = 0.0098125
	minimum = 0 (at node 0)
	maximum = 0.157 (at node 11)
Injected flit rate average = 0.00971875
	minimum = 0.007 (at node 1)
	maximum = 0.0145 (at node 4)
Accepted flit rate average= 0.0098125
	minimum = 0 (at node 0)
	maximum = 0.157 (at node 11)
Injected packet length average = 1
Accepted packet length average = 1
Total in-flight flits = 0 (0 measured)
latency change    = 0.0532103
throughput change = 0.044586
Class 0:
Packet latency average = 21.0783
	minimum = 7
	maximum = 69
Network latency average = 21.0783
	minimum = 7
	maximum = 69
Slowest packet = 13800
Flit latency average = 21.0956
	minimum = 7
	maximum = 69
Slowest flit = 13800
Fragmentation average = 0
	minimum = 0
	maximum = 0
Injected packet rate average = 0.009375
	minimum = 0.007 (at node 15)
	maximum = 0.0126667 (at node 13)
Accepted packet rate average = 0.009375
	minimum = 0 (at node 0)
	maximum = 0.15 (at node 11)
Injected flit rate average = 0.009375
	minimum = 0.007 (at node 15)
	maximum = 0.0126667 (at node 13)
Accepted flit rate average= 0.009375
	minimum = 0 (at node 0)
	maximum = 0.15 (at node 11)
Injected packet length average = 1
Accepted packet length average = 1
Total in-flight flits = 3 (3 measured)
latency change    = 0.0202352
throughput change = 0.0466667
Class 0:
Packet latency average = 21.0205
	minimum = 7
	maximum = 69
Network latency average = 21.0205
	minimum = 7
	maximum = 69
Slowest packet = 13800
Flit latency average = 21.034
	minimum = 7
	maximum = 69
Slowest flit = 13800
Fragmentation average = 0
	minimum = 0
	maximum = 0
Injected packet rate average = 0.00923437
	minimum = 0.00675 (at node 15)
	maximum = 0.01275 (at node 4)
Accepted packet rate average = 0.00920312
	minimum = 0 (at node 0)
	maximum = 0.14725 (at node 11)
Injected flit rate average = 0.00923437
	minimum = 0.00675 (at node 15)
	maximum = 0.01275 (at node 4)
Accepted flit rate average= 0.00920312
	minimum = 0 (at node 0)
	maximum = 0.14725 (at node 11)
Injected packet length average = 1
Accepted packet length average = 1
Total in-flight flits = 5 (5 measured)
latency change    = 0.00275074
throughput change = 0.0186757
Class 0:
Packet latency average = 20.7642
	minimum = 7
	maximum = 69
Network latency average = 20.7642
	minimum = 7
	maximum = 69
Slowest packet = 13800
Flit latency average = 20.7758
	minimum = 7
	maximum = 69
Slowest flit = 13800
Fragmentation average = 0
	minimum = 0
	maximum = 0
Injected packet rate average = 0.009325
	minimum = 0.0076 (at node 3)
	maximum = 0.012 (at node 13)
Accepted packet rate average = 0.0093125
	minimum = 0 (at node 0)
	maximum = 0.149 (at node 11)
Injected flit rate average = 0.009325
	minimum = 0.0076 (at node 3)
	maximum = 0.012 (at node 13)
Accepted flit rate average= 0.0093125
	minimum = 0 (at node 0)
	maximum = 0.149 (at node 11)
Injected packet length average = 1
Accepted packet length average = 1
Total in-flight flits = 4 (4 measured)
latency change    = 0.0123447
throughput change = 0.011745
Draining all recorded packets ...
Draining remaining packets ...
Time taken is 8041 cycles
Class 0:
Packet latency average = 20.0629
	minimum = 7
	maximum = 33
Network latency average = 20.0629
	minimum = 7
	maximum = 33
Slowest packet = 14493
Flit latency average = 20.0629
	minimum = 7
	maximum = 33
Slowest flit = 14493
Fragmentation average = 0
	minimum = 0
	maximum = 0
Injected packet rate average = 0.009125
	minimum = 0.005 (at node 12)
	maximum = 0.016 (at node 6)
Accepted packet rate average = 0.0089375
	minimum = 0 (at node 0)
	maximum = 0.143 (at node 11)
Injected flit rate average = 0.009125
	minimum = 0.005 (at node 12)
	maximum = 0.016 (at node 6)
Accepted flit rate average= 0.0089375
	minimum = 0 (at node 0)
	maximum = 0.143 (at node 11)
Injected packet length average = 1
Accepted packet length average = 1
Total in-flight flits = 3 (0 measured)
latency change    = 1
throughput change = 1
Class 0:
Packet latency average = 19.3741
	minimum = 7
	maximum = 49
Network latency average = 19.3741
	minimum = 7
	maximum = 49
Slowest packet = 14556
Flit latency average = 19.3741
	minimum = 7
	maximum = 49
Slowest flit = 14556
Fragmentation average = 0
	minimum = 0
	maximum = 0
Injected packet rate average = 0.0090625
	minimum = 0.005 (at node 4)
	maximum = 0.012 (at node 10)
Accepted packet rate average = 0.0089375
	minimum = 0 (at node 0)
	maximum = 0.143 (at node 11)
Injected flit rate average = 0.0090625
	minimum = 0.005 (at node 4)
	maximum = 0.012 (at node 10)
Accepted flit rate average= 0.0089375
	minimum = 0 (at node 0)
	maximum = 0.143 (at node 11)
Injected packet length average = 1
Accepted packet length average = 1
Total in-flight flits = 4 (0 measured)
latency change    = 0.0355531
throughput change = 0
Class 0:
Packet latency average = 20.1419
	minimum = 7
	maximum = 43
Network latency average = 20.1419
	minimum = 7
	maximum = 43
Slowest packet = 14770
Flit latency average = 20.1419
	minimum = 7
	maximum = 43
Slowest flit = 14770
Fragmentation average = 0
	minimum = 0
	maximum = 0
Injected packet rate average = 0.0096875
	minimum = 0.002 (at node 3)
	maximum = 0.016 (at node 6)
Accepted packet rate average = 0.0096875
	minimum = 0 (at node 0)
	maximum = 0.155 (at node 11)
Injected flit rate average = 0.0096875
	minimum = 0.002 (at node 3)
	maximum = 0.016 (at node 6)
Accepted flit rate average= 0.0096875
	minimum = 0 (at node 0)
	maximum = 0.155 (at node 11)
Injected packet length average = 1
Accepted packet length average = 1
Total in-flight flits = 4 (0 measured)
latency change    = 0.03812
throughput change = 0.0774194
Warmed up ...Time used is 3000 cycles
Class 0:
Packet latency average = 19.4522
	minimum = 7
	maximum = 32
Network latency average = 19.4522
	minimum = 7
[...]
Packet latency average = 20.1711
	minimum = 7
	maximum = 42
Network latency average = 20.1711
	minimum = 7
	maximum = 42
Slowest packet = 116236
Flit latency average = 20.1711
	minimum = 7
	maximum = 42
Slowest flit = 116236
Fragmentation average = 0
	minimum = 0
	maximum = 0
Injected packet rate average = 0.0096875
	minimum = 0.004 (at node 2)
	maximum = 0.015 (at node 7)
Accepted packet rate average = 0.0095
	minimum = 0 (at node 0)
	maximum = 0.152 (at node 11)
Injected flit rate average = 0.0096875
	minimum = 0.004 (at node 2)
	maximum = 0.015 (at node 7)
Accepted flit rate average= 0.0095
	minimum = 0 (at node 0)
	maximum = 0.152 (at node 11)
Injected packet length average = 1
Accepted packet length average = 1
Total in-flight flits = 3 (0 measured)
latency change    = 1
throughput change = 1
Class 0:
Packet latency average = 19.829
	minimum = 7
	maximum = 42
Network latency average = 19.829
	minimum = 7
	maximum = 42
Slowest packet = 116236
Flit latency average = 19.829
	minimum = 7
	maximum = 42
Slowest flit = 116236
Fragmentation average = 0
	minimum = 0
	maximum = 0
Injected packet rate average = 0.00978125
	minimum = 0.0075 (at node 8)
	maximum = 0.013 (at node 6)
Accepted packet rate average = 0.0096875
	minimum = 0 (at node 0)
	maximum = 0.155 (at node 11)
Injected flit rate average = 0.00978125
	minimum = 0.0075 (at node 8)
	maximum = 0.013 (at node 6)
Accepted flit rate average= 0.0096875
	minimum = 0 (at node 0)
	maximum = 0.155 (at node 11)
Injected packet length average = 1
Accepted packet length average = 1
Total in-flight flits = 3 (0 measured)
latency change    = 0.0172485
throughput change = 0.0193548
Class 0:
Packet latency average = 21.4533
	minimum = 7
	maximum = 48
Network latency average = 21.4533
	minimum = 7
	maximum = 48
Slowest packet = 116629
Flit latency average = 21.4533
	minimum = 7
	maximum = 48
Slowest flit = 116629
Fragmentation average = 0
	minimum = 0
	maximum = 0
Injected packet rate average = 0.0091875
	minimum = 0.005 (at node 3)
	maximum = 0.012 (at node 0)
Accepted packet rate average = 0.009375
	minimum = 0 (at node 0)
	maximum = 0.15 (at node 11)
Injected flit rate average = 0.0091875
	minimum = 0.005 (at node 3)
	maximum = 0.012 (at node 0)
Accepted flit rate average= 0.009375
	minimum = 0 (at node 0)
	maximum = 0.15 (at node 11)
Injected packet length average = 1
Accepted packet length average = 1
Total in-flight flits = 0 (0 measured)
latency change    = 0.0757132
throughput change = 0.0333333
Warmed up ...Time used is 3000 cycles
Class 0:
Packet latency average = 20.2387
	minimum = 7
	maximum = 42
Network latency average = 20.2387
	minimum = 7
	maximum = 42
Slowest packet = 116670
Flit latency average = 20.2387
	minimum = 7
	maximum = 42
Slowest flit = 116670
Fragmentation average = 0
	minimum = 0
	maximum = 0
Injected packet rate average = 0.0098125
	minimum = 0.005 (at node 8)
	maximum = 0.016 (at node 9)
Accepted packet rate average = 0.0096875
	minimum = 0 (at node 0)
	maximum = 0.155 (at node 11)
Injected flit rate average = 0.0098125
	minimum = 0.005 (at node 8)
	maximum = 0.016 (at node 9)
Accepted flit rate average= 0.0096875
	minimum = 0 (at node 0)
	maximum = 0.155 (at node 11)
Injected packet length average = 1
Accepted packet length average = 1
Total in-flight flits = 2 (2 measured)
latency change    = 0.0600149
throughput change = 0.0322581
Class 0:
Packet latency average = 19.7171
	minimum = 7
	maximum = 42
Network latency average = 19.7171
	minimum = 7
	maximum = 42
Slowest packet = 116670
Flit latency average = 19.7171
	minimum = 7
	maximum = 42
Slowest flit = 116670
Fragmentation average = 0
	minimum = 0
	maximum = 0
Injected packet rate average = 0.00959375
	minimum = 0.006 (at node 8)
	maximum = 0.0135 (at node 9)
Accepted packet rate average = 0.0095
	minimum = 0 (at node 0)
	maximum = 0.152 (at node 11)
Injected flit rate average = 0.00959375
	minimum = 0.006 (at node 8)
	maximum = 0.0135 (at node 9)
Accepted flit rate average= 0.0095
	minimum = 0 (at node 0)
	maximum = 0.152 (at node 11)
Injected packet length average = 1
Accepted packet length average = 1
Total in-flight flits = 3 (3 measured)
latency change    = 0.0264544
throughput change = 0.0197368
Class 0:
Packet latency average = 20.0643
	minimum = 7
	maximum = 42
Network latency average = 20.0643
	minimum = 7
	maximum = 42
Slowest packet = 116670
Flit latency average = 20.0643
	minimum = 7
	maximum = 42
Slowest flit = 116670
Fragmentation average = 0
	minimum = 0
	maximum = 0
Injected packet rate average = 0.00945833
	minimum = 0.007 (at node 8)
	maximum = 0.012 (at node 9)
Accepted packet rate average = 0.00939583
	minimum = 0 (at node 0)
	maximum = 0.150333 (at node 11)
Injected flit rate average = 0.00945833
	minimum = 0.007 (at node 8)
	maximum = 0.012 (at node 9)
Accepted flit rate average= 0.00939583
	minimum = 0 (at node 0)
	maximum = 0.150333 (at node 11)
Injected packet length average = 1
Accepted packet length average = 1
Total in-flight flits = 3 (3 measured)
latency change    = 0.0173042
throughput change = 0.0110865
Class 0:
Packet latency average = 20.2405
	minimum = 7
	maximum = 48
Network latency average = 20.2405
	minimum = 7
	maximum = 48
Slowest packet = 117176
Flit latency average = 20.2405
	minimum = 7
	maximum = 48
Slowest flit = 117176
Fragmentation average = 0
	minimum = 0
	maximum = 0
Injected packet rate average = 0.00951562
	minimum = 0.0075 (at node 4)
	maximum = 0.0115 (at node 5)
Accepted packet rate average = 0.00948437
	minimum = 0 (at node 0)
	maximum = 0.15175 (at node 11)
Injected flit rate average = 0.00951562
	minimum = 0.0075 (at node 4)
	maximum = 0.0115 (at node 5)
Accepted flit rate average= 0.00948437
	minimum = 0 (at node 0)
	maximum = 0.15175 (at node 11)
Injected packet length average = 1
Accepted packet length average = 1
Total in-flight flits = 2 (2 measured)
latency change    = 0.00870657
throughput change = 0.00933553
Draining all recorded packets ...
Draining remaining packets ...
Time taken is 7041 cycles
Class 0:
Packet latency average = 19.2611
	minimum = 7
	maximum = 35
Network latency average = 19.2611
	minimum = 7
	maximum = 35
Slowest packet = 117332
Flit latency average = 19.2611
	minimum = 7
	maximum = 35
Slowest flit = 117332
Fragmentation average = 0
	minimum = 0
	maximum = 0
Injected packet rate average = 0.01
	minimum = 0.006 (at node 0)
	maximum = 0.016 (at node 15)
Accepted packet rate average = 0.0098125
	minimum = 0 (at node 0)
	maximum = 0.157 (at node 11)
Injected flit rate average = 0.01
	minimum = 0.006 (at node 0)
	maximum = 0.016 (at node 15)
Accepted flit rate average= 0.0098125
	minimum = 0 (at node 0)
	maximum = 0.157 (at node 11)
Injected packet length average = 1
Accepted packet length average = 1
Total in-flight flits = 3 (0 measured)
latency change    = 1
throughput change = 1
Class 0:
Packet latency average = 19.6978
	minimum = 7
	maximum = 49
Network latency average = 19.6978
	minimum = 7
	maximum = 49
Slowest packet = 117568
Flit latency average = 19.6978
	minimum = 7
	maximum = 49
Slowest flit = 117568
Fragmentation average = 0
	minimum = 0
	maximum = 0
Injected packet rate average = 0.0100938
	minimum = 0.0055 (at node 0)
	maximum = 0.014 (at node 1)
Accepted packet rate average = 0.0100313
	minimum = 0 (at node 0)
	maximum = 0.1605 (at node 11)
Injected flit rate average = 0.0100938
	minimum = 0.0055 (at node 0)
	maximum = 0.014 (at node 1)
Accepted flit rate average= 0.0100313
	minimum = 0 (at node 0)
	maximum = 0.1605 (at node 11)
Injected packet length average = 1
Accepted packet length average = 1
Total in-flight flits = 2 (0 measured)
latency change    = 0.0221686
throughput change = 0.0218069
Class 0:
Packet latency average = 22.5079
	minimum = 7
	maximum = 75
Network latency average = 22.5079
	minimum = 7
	maximum = 75
Slowest packet = 117661
Flit latency average = 22.5079
	minimum = 7
	maximum = 75
Slowest flit = 117661
Fragmentation average = 0
	minimum = 0
	maximum = 0
Injected packet rate average = 0.0120625
	minimum = 0.005 (at node 6)
	maximum = 0.018 (at node 8)
Accepted packet rate average = 0.0119375
	minimum = 0 (at node 0)
	maximum = 0.191 (at node 11)
Injected flit rate average = 0.0120625
	minimum = 0.005 (at node 6)
	maximum = 0.018 (at node 8)
Accepted flit rate average= 0.0119375
	minimum = 0 (at node 0)
	maximum = 0.191 (at node 11)
Injected packet length average = 1
Accepted packet length average = 1
Total in-flight flits = 4 (0 measured)
latency change    = 0.124847
throughput change = 0.159686
Warmed up ...Time used is 3000 cycles
Class 0:
Packet latency average = 20.4824
	minimum = 7
	maximum = 35
Network latency average = 20.4824
	minimum = 7
	maximum = 35
Slowest packet = 117857
Flit latency average = 20.4598
	minimum = 7
	maximum = 35
Slowest flit = 117857
Fragmentation average = 0
	minimum = 0
	maximum = 0
Injected packet rate average = 0.0108125
	minimum = 0.006 (at node 14)
	maximum = 0.019 (at node 12)
Accepted packet rate average = 0.010875
	minimum = 0 (at node 0)
	maximum = 0.174 (at node 11)
Injected flit rate average = 0.0108125
	minimum = 0.006 (at node 14)
	maximum = 0.019 (at node 12)
Accepted flit rate average= 0.010875
	minimum = 0 (at node 0)
	maximum = 0.174 (at node 11)
Injected packet length average = 1
Accepted packet length average = 1
Total in-flight flits = 3 (3 measured)
latency change    = 0.09889
throughput change = 0.0977011
Class 0:
Packet latency average = 20.0154
	minimum = 7
	maximum = 41
Network latency average = 20.0154
	minimum = 7
	maximum = 41
Slowest packet = 118037
Flit latency average = 20.0091
	minimum = 7
	maximum = 41
Slowest flit = 118037
Fragmentation average = 0
	minimum = 0
	maximum = 0
Injected packet rate average = 0.0101875
	minimum = 0.007 (at node 14)
	maximum = 0.014 (at node 2)
Accepted packet rate average = 0.0102813
	minimum = 0 (at node 0)
	maximum = 0.1645 (at node 11)
Injected flit rate average = 0.0101875
	minimum = 0.007 (at node 14)
	maximum = 0.014 (at node 2)
Accepted flit rate average= 0.0102813
	minimum = 0 (at node 0)
	maximum = 0.1645 (at node 11)
Injected packet length average = 1
Accepted packet length average = 1
Total in-flight flits = 1 (1 measured)
latency change    = 0.0233305
throughput change = 0.0577508
Class 0:
Packet latency average = 20.1059
	minimum = 7
	maximum = 41
Network latency average = 20.1059
	minimum = 7
	maximum = 41
Slowest packet = 118037
Flit latency average = 20.101
	minimum = 7
	maximum = 41
Slowest flit = 118037
Fragmentation average = 0
	minimum = 0
	maximum = 0
Injected packet rate average = 0.0103333
	minimum = 0.00833333 (at node 9)
	maximum = 0.0123333 (at node 3)
Accepted packet rate average = 0.0103125
	minimum = 0 (at node 0)
	maximum = 0.165 (at node 11)
Injected flit rate average = 0.0103333
	minimum = 0.00833333 (at node 9)
	maximum = 0.0123333 (at node 3)
Accepted flit rate average= 0.0103125
	minimum = 0 (at node 0)
	maximum = 0.165 (at node 11)
Injected packet length average = 1
Accepted packet length average = 1
Total in-flight flits = 5 (5 measured)
latency change    = 0.00450224
throughput change = 0.0030303
Class 0:
Packet latency average = 20.2696
	minimum = 7
	maximum = 54
Network latency average = 20.2696
	minimum = 7
	maximum = 54
Slowest packet = 118330
Flit latency average = 20.2651
	minimum = 7
	maximum = 54
Slowest flit = 118330
Fragmentation average = 0
	minimum = 0
	maximum = 0
Injected packet rate average = 0.0105625
	minimum = 0.009 (at node 13)
	maximum = 0.012 (at node 12)
Accepted packet rate average = 0.0106094
	minimum = 0 (at node 0)
	maximum = 0.16975 (at node 11)
Injected flit rate average = 0.0105625
	minimum = 0.009 (at node 13)
	maximum = 0.012 (at node 12)
Accepted flit rate average= 0.0106094
	minimum = 0 (at node 0)
	maximum = 0.16975 (at node 11)
Injected packet length average = 1
Accepted packet length average = 1
Total in-flight flits = 1 (1 measured)
latency change    = 0.00807727
throughput change = 0.0279823
Class 0:
Packet latency average = 20.1807
	minimum = 7
	maximum = 54
Network latency average = 20.1807
	minimum = 7
	maximum = 54
Slowest packet = 118330
Flit latency average = 20.1775
	minimum = 7
	maximum = 54
Slowest flit = 118330
Fragmentation average = 0
	minimum = 0
	maximum = 0
Injected packet rate average = 0.0104125
	minimum = 0.008 (at node 13)
	maximum = 0.0114 (at node 3)
Accepted packet rate average = 0.010425
	minimum = 0 (at node 0)
	maximum = 0.1668 (at node 11)
Injected flit rate average = 0.0104125
	minimum = 0.008 (at node 13)
	maximum = 0.0114 (at node 3)
Accepted flit rate average= 0.010425
	minimum = 0 (at node 0)
	maximum = 0.1668 (at node 11)
Injected packet length average = 1
Accepted packet length average = 1
Total in-flight flits = 3 (3 measured)
latency change    = 0.00440553
throughput change = 0.0176859
Draining all recorded packets ...
Draining remaining packets ...
Time taken is 8046 cycles
Class 0:
Packet latency average = 20.0933
	minimum = 7
	maximum = 37
Network latency average = 20.0933
	minimum = 7
	maximum = 37
Slowest packet = 118676
Flit latency average = 20.0933
	minimum = 7
	maximum = 37
Slowest flit = 118676
Fragmentation average = 0
	minimum = 0
	maximum = 0
Injected packet rate average = 0.0095625
	minimum = 0.005 (at node 14)
	maximum = 0.018 (at node 1)
Accepted packet rate average = 0.009375
	minimum = 0 (at node 0)
	maximum = 0.15 (at node 11)
Injected flit rate average = 0.0095625
	minimum = 0.005 (at node 14)
	maximum = 0.018 (at node 1)
Accepted flit rate average= 0.009375
	minimum = 0 (at node 0)
	maximum = 0.15 (at node 11)
Injected packet length average = 1
Accepted packet length average = 1
Total in-flight flits = 3 (0 measured)
latency change    = 1
throughput change = 1
Class 0:
Packet latency average = 20.4822
	minimum = 7
	maximum = 39
Network latency average = 20.4822
	minimum = 7
	maximum = 39
Slowest packet = 118922
Flit latency average = 20.4822
	minimum = 7
	maximum = 39
Slowest flit = 118922
Fragmentation average = 0
	minimum = 0
	maximum = 0
Injected packet rate average = 0.00975
	minimum = 0.005 (at node 8)
	maximum = 0.0155 (at node 1)
Accepted packet rate average = 0.00965625
	minimum = 0 (at node 0)
	maximum = 0.1545 (at node 11)
Injected flit rate average = 0.00975
	minimum = 0.005 (at node 8)
	maximum = 0.0155 (at node 1)
Accepted flit rate average= 0.00965625
	minimum = 0 (at node 0)
	maximum = 0.1545 (at node 11)
Injected packet length average = 1
Accepted packet length average = 1
Total in-flight flits = 3 (0 measured)
latency change    = 0.0189856
throughput change = 0.0291262
Class 0:
Packet latency average = 18.7413
	minimum = 7
	maximum = 36
Network latency average = 18.7413
	minimum = 7
	maximum = 36
Slowest packet = 119007
Flit latency average = 18.7413
	minimum = 7
	maximum = 36
Slowest flit = 119007
Fragmentation average = 0
	minimum = 0
	maximum = 0
Injected packet rate average = 0.0090625
	minimum = 0.004 (at node 8)
	maximum = 0.015 (at node 14)
Accepted packet rate average = 0.0089375
	minimum = 0 (at node 0)
	maximum = 0.143 (at node 11)
Injected flit rate average = 0.0090625
	minimum = 0.004 (at node 8)
	maximum = 0.015 (at node 14)
Accepted flit rate average= 0.0089375
	minimum = 0 (at node 0)
	maximum = 0.143 (at node 11)
Injected packet length average = 1
Accepted packet length average = 1
Total in-flight flits = 5 (0 measured)
latency change    = 0.0928935
throughput change = 0.0804196
Warmed up ...Time used is 3000 cycles
Class 0:
Packet latency average = 20.4932
	minimum = 7
	maximum = 48
Network latency average = 20.4932
	minimum = 7
	maximum = 48
Slowest packet = 119108
Flit latency average = 20.5686
	minimum = 7
	maximum = 48
Slowest flit = 119108
Fragmentation average = 0
	minimum = 0
	maximum = 0
Injected packet rate average = 0.0095
	minimum = 0.005 (at node 11)
	maximum = 0.013 (at node 7)
Accepted packet rate average = 0.0095625
	minimum = 0 (at node 0)
	maximum = 0.153 (at node 11)
Injected flit rate average = 0.0095
	minimum = 0.005 (at node 11)
	maximum = 0.013 (at node 7)
Accepted flit rate average= 0.0095625
	minimum = 0 (at node 0)
	maximum = 0.153 (at node 11)
Injected packet length average = 1
Accepted packet length average = 1
Total in-flight flits = 4 (4 measured)
latency change    = 0.0854908
throughput change = 0.0653595
Class 0:
Packet latency average = 20.0787
	minimum = 7
	maximum = 48
Network latency average = 20.0787
	minimum = 7
	maximum = 48
Slowest packet = 119108
Flit latency average = 20.1226
	minimum = 7
	maximum = 48
Slowest flit = 119108
Fragmentation average = 0
	minimum = 0
	maximum = 0
Injected packet rate average = 0.009625
	minimum = 0.0055 (at node 12)
	maximum = 0.014 (at node 15)
Accepted packet rate average = 0.0096875
	minimum = 0 (at node 0)
	maximum = 0.155 (at node 11)
Injected flit rate average = 0.009625
	minimum = 0.0055 (at node 12)
	maximum = 0.014 (at node 15)
Accepted flit rate average= 0.0096875
	minimum = 0 (at node 0)
	maximum = 0.155 (at node 11)
Injected packet length average = 1
Accepted packet length average = 1
Total in-flight flits = 3 (3 measured)
latency change    = 0.0206465
throughput change = 0.0129032
Class 0:
Packet latency average = 20.2814
	minimum = 7
	maximum = 50
Network latency average = 20.2814
	minimum = 7
	maximum = 50
Slowest packet = 119452
Flit latency average = 20.3084
	minimum = 7
	maximum = 50
Slowest flit = 119452
Fragmentation average = 0
	minimum = 0
	maximum = 0
Injected packet rate average = 0.00970833
	minimum = 0.00733333 (at node 12)
	maximum = 0.012 (at node 6)
Accepted packet rate average = 0.00972917
	minimum = 0 (at node 0)
	maximum = 0.155667 (at node 11)
Injected flit rate average = 0.00970833
	minimum = 0.00733333 (at node 12)
	maximum = 0.012 (at node 6)
Accepted flit rate average= 0.00972917
	minimum = 0 (at node 0)
	maximum = 0.155667 (at node 11)
Injected packet length average = 1
Accepted packet length average = 1
Total in-flight flits = 4 (4 measured)
latency change    = 0.00999423
throughput change = 0.00428266
Class 0:
Packet latency average = 20.5972
	minimum = 7
	maximum = 54
Network latency average = 20.5972
	minimum = 7
	maximum = 54
Slowest packet = 119629
Flit latency average = 20.6144
	minimum = 7
	maximum = 54
Slowest flit = 119629
Fragmentation average = 0
	minimum = 0
	maximum = 0
Injected packet rate average = 0.01
	minimum = 0.0075 (at node 3)
	maximum = 0.01225 (at node 6)
Accepted packet rate average = 0.00996875
	minimum = 0 (at node 0)
	maximum = 0.1595 (at node 11)
Injected flit rate average = 0.01
	minimum = 0.0075 (at node 3)
	maximum = 0.01225 (at node 6)
Accepted flit rate average= 0.00996875
	minimum = 0 (at node 0)
	maximum = 0.1595 (at node 11)
Injected packet length average = 1
Accepted packet length average = 1
Total in-flight flits = 7 (7 measured)
latency change    = 0.0153308
throughput change = 0.0240334
Draining all recorded packets ...
Draining remaining packets ...
Time taken is 7044 cycles
====== Overall Traffic Statistics ======
====== Traffic class 0 ======
Packet latency average = 20.4414 (100 samples)
	minimum = 7 (100 samples)
	maximum = 51.52 (100 samples)
Network latency average = 20.4414 (100 samples)
	minimum = 7 (100 samples)
	maximum = 51.52 (100 samples)
Flit latency average = 20.4529 (100 samples)
	minimum = 7 (100 samples)
	maximum = 51.62 (100 samples)
Fragmentation average = 0 (100 samples)
	minimum = 0 (100 samples)
	maximum = 0 (100 samples)
Injected packet rate average = 0.0100106 (100 samples)
	minimum = 0.00728964 (100 samples)
	maximum = 0.0128603 (100 samples)
Accepted packet rate average = 0.0100047 (100 samples)
	minimum = 0 (100 samples)
	maximum = 0.160075 (100 samples)
Injected flit rate average = 0.0100106 (100 samples)
	minimum = 0.00728964 (100 samples)
	maximum = 0.0128603 (100 samples)
Accepted flit rate average = 0.0100047 (100 samples)
	minimum = 0 (100 samples)
	maximum = 0.160075 (100 samples)
Injected packet size average = 1 (100 samples)
Accepted packet size average = 1 (100 samples)
Hops average = 3.49907 (100 samples)
Total run time 16.3194
