BEGIN Configuration File: /tmp/tmplvvecfjc.cfg
topology = mesh;
k = 4;
n = 2;
routing_function = min_adapt;
num_vcs = 4;
vc_buf_size = 4;
wait_for_tail_credit = 1;
vc_allocator = islip;
sw_allocator = islip;
alloc_iters = 1;
credit_delay = 2;
routing_delay = 1;
vc_alloc_delay = 1;
sw_alloc_delay = 1;
input_speedup = 2;
output_speedup = 1;
internal_speedup = 1.0;
traffic = transpose;
packet_size = 1;
sim_type = latency;
injection_rate = 0.02;
warmup_periods = 3;
sample_period = 1000;
sim_count = 100;
seed = 3;

END Configuration File: /tmp/tmplvvecfjc.cfg
Class 0:
Packet latency average = 19.5803
	minimum = 7
	maximum = 56
Network latency average = 19.5803
	minimum = 7
	maximum = 56
Slowest packet = 158
Flit latency average = 19.5803
	minimum = 7
	maximum = 56
Slowest flit = 158
Fragmentation average = 0
	minimum = 0
	maximum = 0
Injected packet rate average = 0.0194375
	minimum = 0.011 (at node 12)
	maximum = 0.032 (at node 13)
Accepted packet rate average = 0.0190625
	minimum = 0.01 (at node 3)
	maximum = 0.03 (at node 7)
Injected flit rate average = 0.0194375
	minimum = 0.011 (at node 12)
	maximum = 0.032 (at node 13)
Accepted flit rate average= 0.0190625
	minimum = 0.01 (at node 3)
	maximum = 0.03 (at node 7)
Injected packet length average = 1
Accepted packet length average = 1
Total in-flight flits = 6 (0 measured)
latency change    = 1
throughput change = 1
Class 0:
Packet latency average = 19.3002
	minimum = 7
	maximum = 56
Network latency average = 19.3002
	minimum = 7
	maximum = 56
Slowest packet = 158
Flit latency average = 19.3002
	minimum = 7
	maximum = 56
Slowest flit = 158
Fragmentation average = 0
	minimum = 0
	maximum = 0
Injected packet rate average = 0.019
	minimum = 0.014 (at node 12)
	maximum = 0.025 (at node 11)
Accepted packet rate average = 0.0188437
	minimum = 0.014 (at node 3)
	maximum = 0.0245 (at node 14)
Injected flit rate average = 0.019
	minimum = 0.014 (at node 12)
	maximum = 0.025 (at node 11)
Accepted flit rate average= 0.0188437
	minimum = 0.014 (at node 3)
	maximum = 0.0245 (at node 14)
Injected packet length average = 1
Accepted packet length average = 1
Total in-flight flits = 5 (0 measured)
latency change    = 0.014516
throughput change = 0.0116086
Class 0:
Packet latency average = 20.879
	minimum = 7
	maximum = 65
Network latency average = 20.879
	minimum = 7
	maximum = 65
Slowest packet = 713
Flit latency average = 20.879
	minimum = 7
	maximum = 65
Slowest flit = 713
Fragmentation average = 0
	minimum = 0
	maximum = 0
Injected packet rate average = 0.019625
	minimum = 0.013 (at node 9)
	maximum = 0.027 (at node 12)
Accepted packet rate average = 0.019625
	minimum = 0.013 (at node 6)
	maximum = 0.026 (at node 3)
Injected flit rate average = 0.019625
	minimum = 0.013 (at node 9)
	maximum = 0.027 (at node 12)
Accepted flit rate average= 0.019625
	minimum = 0.013 (at node 6)
	maximum = 0.026 (at node 3)
Injected packet length average = 1
Accepted packet length average = 1
Total in-flight flits = 5 (0 measured)
latency change    = 0.0756174
throughput change = 0.0398089
Warmed up ...Time used is 3000 cycles
Class 0:
Packet latency average = 19.8514
	minimum = 7
	maximum = 45
Network latency average = 19.8514
	minimum = 7
	maximum = 45
Slowest packet = 1099
Flit latency average = 19.9967
	minimum = 7
	maximum = 45
Slowest flit = 921
Fragmentation average = 0
	minimum = 0
	maximum = 0
Injected packet rate average = 0.018875
	minimum = 0.01 (at node 2)
	maximum = 0.027 (at node 8)
Accepted packet rate average = 0.0188125
	minimum = 0.01 (at node 8)
	maximum = 0.028 (at node 2)
Injected flit rate average = 0.018875
	minimum = 0.01 (at node 2)
	maximum = 0.027 (at node 8)
Accepted flit rate average= 0.0188125
	minimum = 0.01 (at node 8)
	maximum = 0.028 (at node 2)
Injected packet length average = 1
Accepted packet length average = 1
Total in-flight flits = 6 (6 measured)
latency change    = 0.0517662
throughput change = 0.0431894
Class 0:
Packet latency average = 19.7306
	minimum = 7
	maximum = 45
Network latency average = 19.7306
	minimum = 7
	maximum = 45
Slowest packet = 1099
Flit latency average = 19.7976
	minimum = 7
	maximum = 45
Slowest flit = 921
Fragmentation average = 0
	minimum = 0
	maximum = 0
Injected packet rate average = 0.0207188
	minimum = 0.0155 (at node 2)
	maximum = 0.025 (at node 10)
Accepted packet rate average = 0.0206875
	minimum = 0.0155 (at node 8)
	maximum = 0.025 (at node 10)
Injected flit rate average = 0.0207188
	minimum = 0.0155 (at node 2)
	maximum = 0.025 (at node 10)
Accepted flit rate average= 0.0206875
	minimum = 0.0155 (at node 8)
	maximum = 0.025 (at node 10)
Injected packet length average = 1
Accepted packet length average = 1
Total in-flight flits = 6 (6 measured)
latency change    = 0.00612033
throughput change = 0.0906344
Class 0:
Packet latency average = 19.75
	minimum = 7
	maximum = 47
Network latency average = 19.75
	minimum = 7
	maximum = 47
Slowest packet = 1625
Flit latency average = 19.7947
	minimum = 7
	maximum = 47
Slowest flit = 1625
Fragmentation average = 0
	minimum = 0
	maximum = 0
Injected packet rate average = 0.0208125
	minimum = 0.015 (at node 2)
	maximum = 0.0246667 (at node 9)
Accepted packet rate average = 0.0206042
	minimum = 0.015 (at node 8)
	maximum = 0.0243333 (at node 6)
Injected flit rate average = 0.0208125
	minimum = 0.015 (at node 2)
	maximum = 0.0246667 (at node 9)
Accepted flit rate average= 0.0206042
	minimum = 0.015 (at node 8)
	maximum = 0.0243333 (at node 6)
Injected packet length average = 1
Accepted packet length average = 1
Total in-flight flits = 15 (15 measured)
latency change    = 0.000982602
throughput change = 0.00404449
Class 0:
Packet latency average = 19.5242
	minimum = 7
	maximum = 47
Network latency average = 19.5242
	minimum = 7
	maximum = 47
Slowest packet = 1625
Flit latency average = 19.5589
	minimum = 7
	maximum = 47
Slowest flit = 1625
Fragmentation average = 0
	minimum = 0
	maximum = 0
Injected packet rate average = 0.0204531
	minimum = 0.01625 (at node 3)
	maximum = 0.02375 (at node 10)
Accepted packet rate average = 0.0204375
	minimum = 0.0165 (at node 12)
	maximum = 0.02375 (at node 10)
Injected flit rate average = 0.0204531
	minimum = 0.01625 (at node 3)
	maximum = 0.02375 (at node 10)
Accepted flit rate average= 0.0204375
	minimum = 0.0165 (at node 12)
	maximum = 0.02375 (at node 10)
Injected packet length average = 1
Accepted packet length average = 1
Total in-flight flits = 6 (6 measured)
latency change    = 0.0115664
throughput change = 0.00815494
Class 0:
Packet latency average = 19.3394
	minimum = 7
	maximum = 48
Network latency average = 19.3394
	minimum = 7
	maximum = 48
Slowest packet = 2513
Flit latency average = 19.3676
	minimum = 7
	maximum = 48
Slowest flit = 2513
Fragmentation average = 0
	minimum = 0
	maximum = 0
Injected packet rate average = 0.020575
	minimum = 0.0166 (at node 3)
	maximum = 0.0234 (at node 5)
Accepted packet rate average = 0.020575
	minimum = 0.0166 (at node 12)
	maximum = 0.0234 (at node 5)
Injected flit rate average = 0.020575
	minimum = 0.0166 (at node 3)
	maximum = 0.0234 (at node 5)
Accepted flit rate average= 0.020575
	minimum = 0.0166 (at node 12)
	maximum = 0.0234 (at node 5)
Injected packet length average = 1
Accepted packet length average = 1
Total in-flight flits = 5 (5 measured)
latency change    = 0.00955291
throughput change = 0.00668287
Draining all recorded packets ...
Draining remaining packets ...
Time taken is 8044 cycles
Class 0:
Packet latency average = 19.7926
	minimum = 7
	maximum = 47
Network latency average = 19.7926
	minimum = 7
	maximum = 47
Slowest packet = 2708
Flit latency average = 19.7926
	minimum = 7
	maximum = 47
Slowest flit = 2708
Fragmentation average = 0
	minimum = 0
	maximum = 0
Injected packet rate average = 0.022375
	minimum = 0.01 (at node 8)
	maximum = 0.029 (at node 6)
Accepted packet rate average = 0.022
	minimum = 0.01 (at node 2)
	maximum = 0.029 (at node 9)
Injected flit rate average = 0.022375
	minimum = 0.01 (at node 8)
	maximum = 0.029 (at node 6)
Accepted flit rate average= 0.022
	minimum = 0.01 (at node 2)
	maximum = 0.029 (at node 9)
Injected packet length average = 1
Accepted packet length average = 1
Total in-flight flits = 6 (0 measured)
latency change    = 1
throughput change = 1
Class 0:
Packet latency average = 19.646
	minimum = 7
	maximum = 47
Network latency average = 19.646
	minimum = 7
	maximum = 47
Slowest packet = 2708
Flit latency average = 19.646
	minimum = 7
	maximum = 47
Slowest flit = 2708
Fragmentation average = 0
	minimum = 0
	maximum = 0
Injected packet rate average = 0.0214375
	minimum = 0.013 (at node 8)
	maximum = 0.024 (at node 2)
Accepted packet rate average = 0.0211875
	minimum = 0.013 (at node 2)
	maximum = 0.0235 (at node 1)
Injected flit rate average = 0.0214375
	minimum = 0.013 (at node 8)
	maximum = 0.024 (at node 2)
Accepted flit rate average= 0.0211875
	minimum = 0.013 (at node 2)
	maximum = 0.0235 (at node 1)
Injected packet length average = 1
Accepted packet length average = 1
Total in-flight flits = 8 (0 measured)
latency change    = 0.00746187
throughput change = 0.0383481
Class 0:
Packet latency average = 19.8602
	minimum = 7
	maximum = 46
Network latency average = 19.8602
	minimum = 7
	maximum = 46
Slowest packet = 3305
Flit latency average = 19.8602
	minimum = 7
	maximum = 46
Slowest flit = 3305
Fragmentation average = 0
	minimum = 0
	maximum = 0
Injected packet rate average = 0.019875
	minimum = 0.013 (at node 1)
	maximum = 0.028 (at node 14)
Accepted packet rate average = 0.020125
	minimum = 0.013 (at node 4)
	maximum = 0.026 (at node 11)
Injected flit rate average = 0.019875
	minimum = 0.013 (at node 1)
	maximum = 0.028 (at node 14)
Accepted flit rate average= 0.020125
	minimum = 0.013 (at node 4)
	maximum = 0.026 (at node 11)
Injected packet length average = 1
Accepted packet length average = 1
Total in-flight flits = 4 (0 measured)
latency change    = 0.0107869
throughput change = 0.052795
Warmed up ...Time used is 3000 cycles
Class 0:
Packet latency average = 19.3715
	minimum = 7
	maximum = 57
Network latency average = 19.3715
	minimum = 7
	maximum = 57
Slowest packet = 3665
Flit latency average = 19.4075
	minimum = 7
	maximum = 57
Slowest flit = 3665
Fragmentation average = 0
	minimum = 0
	maximum = 0
Injected packet rate average = 0.0181875
	minimum = 0.014 (at node 2)
	maximum = 0.026 (at node 1)
Accepted packet rate average = 0.01825
	minimum = 0.014 (at node 7)
	maximum = 0.026 (at node 4)
Injected flit rate average = 0.0181875
	minimum = 0.014 (at node 2)
	maximum = 0.026 (at node 1)
Accepted flit rate average= 0.01825
	minimum = 0.014 (at node 7)
	maximum = 0.026 (at node 4)
Injected packet length average = 1
Accepted packet length average = 1
Total in-flight flits = 3 (3 measured)
latency change    = 0.0252288
throughput change = 0.10274
Class 0:
Packet latency average = 20.1897
	minimum = 7
	maximum = 57
Network latency average = 20.1897
	minimum = 7
	maximum = 57
Slowest packet = 3665
Flit latency average = 20.2013
	minimum = 7
	maximum = 57
Slowest flit = 3665
Fragmentation average = 0
	minimum = 0
	maximum = 0
Injected packet rate average = 0.0195312
	minimum = 0.015 (at node 14)
	maximum = 0.0265 (at node 1)
Accepted packet rate average = 0.0195625
	minimum = 0.015 (at node 15)
	maximum = 0.0265 (at node 4)
Injected flit rate average = 0.0195312
	minimum = 0.015 (at node 14)
	maximum = 0.0265 (at node 1)
Accepted flit rate average= 0.0195625
	minimum = 0.015 (at node 15)
	maximum = 0.0265 (at node 4)
Injected packet length average = 1
Accepted packet length average = 1
Total in-flight flits = 3 (3 measured)
latency change    = 0.0405247
throughput change = 0.0670927
Class 0:
Packet latency average = 20.0569
	minimum = 7
	maximum = 57
Network latency average = 20.0569
	minimum = 7
	maximum = 57
Slowest packet = 3665
Flit latency average = 20.0649
	minimum = 7
	maximum = 57
Slowest flit = 3665
Fragmentation average = 0
	minimum = 0
	maximum = 0
Injected packet rate average = 0.02025
	minimum = 0.017 (at node 10)
	maximum = 0.0246667 (at node 1)
Accepted packet rate average = 0.0202292
	minimum = 0.017 (at node 7)
	maximum = 0.0246667 (at node 4)
Injected flit rate average = 0.02025
	minimum = 0.017 (at node 10)
	maximum = 0.0246667 (at node 1)
Accepted flit rate average= 0.0202292
	minimum = 0.017 (at node 7)
	maximum = 0.0246667 (at node 4)
Injected packet length average = 1
Accepted packet length average = 1
Total in-flight flits = 5 (5 measured)
latency change    = 0.00662285
throughput change = 0.0329557
Class 0:
Packet latency average = 20.0915
	minimum = 7
	maximum = 57
Network latency average = 20.0915
	minimum = 7
	maximum = 57
Slowest packet = 3665
Flit latency average = 20.0975
	minimum = 7
	maximum = 57
Slowest flit = 3665
Fragmentation average = 0
	minimum = 0
	maximum = 0
Injected packet rate average = 0.0200781
	minimum = 0.01575 (at node 13)
	maximum = 0.02475 (at node 5)
Accepted packet rate average = 0.0200313
	minimum = 0.01575 (at node 7)
	maximum = 0.0245 (at node 5)
Injected flit rate average = 0.0200781
	minimum = 0.01575 (at node 13)
	maximum = 0.02475 (at node 5)
Accepted flit rate average= 0.0200313
	minimum = 0.01575 (at node 7)
	maximum = 0.0245 (at node 5)
Injected packet length average = 1
Accepted packet length average = 1
Total in-flight flits = 7 (7 measured)
latency change    = 0.00172572
throughput change = 0.0098804
Class 0:
Packet latency average = 20.0476
	minimum = 7
	maximum = 58
Network latency average = 20.0476
	minimum = 7
	maximum = 58
Slowest packet = 4882
Flit latency average = 20.0525
	minimum = 7
	maximum = 58
Slowest flit = 4882
Fragmentation average = 0
	minimum = 0
	maximum = 0
Injected packet rate average = 0.0200625
	minimum = 0.017 (at node 11)
	maximum = 0.024 (at node 1)
Accepted packet rate average = 0.02
	minimum = 0.017 (at node 14)
	maximum = 0.024 (at node 4)
Injected flit rate average = 0.0200625
	minimum = 0.017 (at node 11)
	maximum = 0.024 (at node 1)
Accepted flit rate average= 0.02
	minimum = 0.017 (at node 14)
	maximum = 0.024 (at node 4)
Injected packet length average = 1
Accepted packet length average = 1
Total in-flight flits = 9 (9 measured)
latency change    = 0.0021913
throughput change = 0.0015625
Draining all recorded packets ...
Draining remaining packets ...
Time taken is 8061 cycles
Class 0:
Packet latency average = 20.0977
	minimum = 7
	maximum = 55
Network latency average = 20.0977
	minimum = 7
	maximum = 55
Slowest packet = 5512
Flit latency average = 20.0977
	minimum = 7
	maximum = 55
Slowest flit = 5512
Fragmentation average = 0
	minimum = 0
	maximum = 0
Injected packet rate average = 0.0221875
	minimum = 0.013 (at node 5)
	maximum = 0.03 (at node 11)
Accepted packet rate average = 0.02175
	minimum = 0.013 (at node 5)
	maximum = 0.029 (at node 14)
Injected flit rate average = 0.0221875
	minimum = 0.013 (at node 5)
	maximum = 0.03 (at node 11)
Accepted flit rate average= 0.02175
	minimum = 0.013 (at node 5)
	maximum = 0.029 (at node 14)
Injected packet length average = 1
Accepted packet length average = 1
Total in-flight flits = 7 (0 measured)
latency change    = 1
throughput change = 1
Class 0:
Packet latency average = 20.2877
	minimum = 7
	maximum = 64
Network latency average = 20.2877
	minimum = 7
	maximum = 64
Slowest packet = 5638
Flit latency average = 20.2877
	minimum = 7
	maximum = 64
Slowest flit = 5638
Fragmentation average = 0
	minimum = 0
	maximum = 0
Injected packet rate average = 0.02075
	minimum = 0.0145 (at node 5)
	maximum = 0.0285 (at node 11)
Accepted packet rate average = 0.0205313
	minimum = 0.0145 (at node 5)
	maximum = 0.0285 (at node 14)
Injected flit rate average = 0.02075
	minimum = 0.0145 (at node 5)
	maximum = 0.0285 (at node 11)
Accepted flit rate average= 0.0205313
	minimum = 0.0145 (at node 5)
	maximum = 0.0285 (at node 14)
Injected packet length average = 1
Accepted packet length average = 1
Total in-flight flits = 7 (0 measured)
latency change    = 0.00936382
throughput change = 0.0593607
Class 0:
Packet latency average = 19.7923
	minimum = 7
	maximum = 48
Network latency average = 19.7923
	minimum = 7
	maximum = 48
Slowest packet = 6046
Flit latency average = 19.7923
	minimum = 7
	maximum = 48
Slowest flit = 6046
Fragmentation average = 0
	minimum = 0
	maximum = 0
Injected packet rate average = 0.021
	minimum = 0.014 (at node 9)
	maximum = 0.027 (at node 3)
Accepted packet rate average = 0.0210625
	minimum = 0.014 (at node 6)
	maximum = 0.026 (at node 1)
Injected flit rate average = 0.021
	minimum = 0.014 (at node 9)
	maximum = 0.027 (at node 3)
Accepted flit rate average= 0.0210625
	minimum = 0.014 (at node 6)
	maximum = 0.026 (at node 1)
Injected packet length average = 1
Accepted packet length average = 1
Total in-flight flits = 6 (0 measured)
latency change    = 0.0250293
throughput change = 0.0252226
Warmed up ...Time used is 3000 cycles
Class 0:
Packet latency average = 19.5152
	minimum = 7
	maximum = 49
Network latency average = 19.5152
	minimum = 7
	maximum = 49
Slowest packet = 6374
Flit latency average = 19.7381
	minimum = 7
	maximum = 49
Slowest flit = 6374
Fragmentation average = 0
	minimum = 0
	maximum = 0
Injected packet rate average = 0.020875
	minimum = 0.015 (at node 1)
	maximum = 0.032 (at node 5)
Accepted packet rate average = 0.021
	minimum = 0.014 (at node 1)
	maximum = 0.032 (at node 5)
Injected flit rate average = 0.020875
	minimum = 0.015 (at node 1)
	maximum = 0.032 (at node 5)
Accepted flit rate average= 0.021
	minimum = 0.014 (at node 1)
	maximum = 0.032 (at node 5)
Injected packet length average = 1
Accepted packet length average = 1
Total in-flight flits = 4 (4 measured)
latency change    = 0.0142009
throughput change = 0.00297619
Class 0:
Packet latency average = 20.1111
	minimum = 7
	maximum = 57
Network latency average = 20.1111
	minimum = 7
	maximum = 57
Slowest packet = 6828
Flit latency average = 20.2173
	minimum = 7
	maximum = 57
Slowest flit = 6828
Fragmentation average = 0
	minimum = 0
	maximum = 0
Injected packet rate average = 0.021
	minimum = 0.017 (at node 15)
	maximum = 0.0255 (at node 5)
Accepted packet rate average = 0.021
	minimum = 0.0165 (at node 15)
	maximum = 0.026 (at node 7)
Injected flit rate average = 0.021
	minimum = 0.017 (at node 15)
	maximum = 0.0255 (at node 5)
Accepted flit rate average= 0.021
	minimum = 0.0165 (at node 15)
	maximum = 0.026 (at node 7)
Injected packet length average = 1
Accepted packet length average = 1
Total in-flight flits = 6 (6 measured)
latency change    = 0.0296334
throughput change = 0
Class 0:
Packet latency average = 19.9217
	minimum = 7
	maximum = 57
Network latency average = 19.9217
	minimum = 7
	maximum = 57
Slowest packet = 6828
Flit latency average = 19.994
	minimum = 7
	maximum = 57
Slowest flit = 6828
Fragmentation average = 0
	minimum = 0
	maximum = 0
Injected packet rate average = 0.0208333
	minimum = 0.0183333 (at node 2)
	maximum = 0.0243333 (at node 5)
Accepted packet rate average = 0.020875
	minimum = 0.0183333 (at node 13)
	maximum = 0.0246667 (at node 3)
Injected flit rate average = 0.0208333
	minimum = 0.0183333 (at node 2)
	maximum = 0.0243333 (at node 5)
Accepted flit rate average= 0.020875
	minimum = 0.0183333 (at node 13)
	maximum = 0.0246667 (at node 3)
Injected packet length average = 1
Accepted packet length average = 1
Total in-flight flits = 4 (4 measured)
latency change    = 0.00950845
throughput change = 0.00598802
Draining all recorded packets ...
Draining remaining packets ...
Time taken is 6035 cycles
Class 0:
Packet latency average = 19.6049
	minimum = 7
	maximum = 54
Network latency average = 19.6049
	minimum = 7
	maximum = 54
Slowest packet = 7210
Flit latency average = 19.6049
	minimum = 7
	maximum = 54
Slowest flit = 7210
Fragmentation average = 0
	minimum = 0
	maximum = 0
Injected packet rate average = 0.020625
	minimum = 0.014 (at node 7)
	maximum = 0.027 (at node 9)
Accepted packet rate average = 0.02025
	minimum = 0.013 (at node 13)
	maximum = 0.027 (at node 6)
Injected flit rate average = 0.020625
	minimum = 0.014 (at node 7)
	maximum = 0.027 (at node 9)
Accepted flit rate average= 0.02025
	minimum = 0.013 (at node 13)
	maximum = 0.027 (at node 6)
Injected packet length average = 1
Accepted packet length average = 1
Total in-flight flits = 6 (0 measured)
latency change    = 1
throughput change = 1
Class 0:
Packet latency average = 19.7945
	minimum = 7
	maximum = 61
Network latency average = 19.7945
	minimum = 7
	maximum = 61
Slowest packet = 7754
Flit latency average = 19.7945
	minimum = 7
	maximum = 61
Slowest flit = 7754
Fragmentation average = 0
	minimum = 0
	maximum = 0
Injected packet rate average = 0.0206875
	minimum = 0.0145 (at node 7)
	maximum = 0.03 (at node 2)
Accepted packet rate average = 0.0205313
	minimum = 0.0145 (at node 13)
	maximum = 0.029 (at node 8)
Injected flit rate average = 0.0206875
	minimum = 0.0145 (at node 7)
	maximum = 0.03 (at node 2)
Accepted flit rate average= 0.0205313
	minimum = 0.0145 (at node 13)
	maximum = 0.029 (at node 8)
Injected packet length average = 1
Accepted packet length average = 1
Total in-flight flits = 5 (0 measured)
latency change    = 0.00957751
throughput change = 0.0136986
Class 0:
Packet latency average = 20.5697
	minimum = 7
	maximum = 55
Network latency average = 20.5697
	minimum = 7
	maximum = 55
Slowest packet = 7952
Flit latency average = 20.5697
	minimum = 7
	maximum = 55
Slowest flit = 7952
Fragmentation average = 0
	minimum = 0
	maximum = 0
Injected packet rate average = 0.02
	minimum = 0.011 (at node 10)
	maximum = 0.025 (at node 9)
Accepted packet rate average = 0.0201875
	minimum = 0.011 (at node 10)
	maximum = 0.026 (at node 11)
Injected flit rate average = 0.02
	minimum = 0.011 (at node 10)
	maximum = 0.025 (at node 9)
Accepted flit rate average= 0.0201875
	minimum = 0.011 (at node 10)
	maximum = 0.026 (at node 11)
Injected packet length average = 1
Accepted packet length average = 1
Total in-flight flits = 2 (0 measured)
latency change    = 0.0376836
throughput change = 0.0170279
Warmed up ...Time used is 3000 cycles
Class 0:
Packet latency average = 19.9773
	minimum = 7
	maximum = 41
Network latency average = 19.9773
	minimum = 7
	maximum = 41
Slowest packet = 8213
Flit latency average = 20.0225
	minimum = 7
	maximum = 41
Slowest flit = 8213
Fragmentation average = 0
	minimum = 0
	maximum = 0
Injected packet rate average = 0.0196875
	minimum = 0.014 (at node 1)
	maximum = 0.023 (at node 3)
Accepted packet rate average = 0.0194375
	minimum = 0.014 (at node 4)
	maximum = 0.023 (at node 1)
Injected flit rate average = 0.0196875
	minimum = 0.014 (at node 1)
	maximum = 0.023 (at node 3)
Accepted flit rate average= 0.0194375
	minimum = 0.014 (at node 4)
	maximum = 0.023 (at node 1)
Injected packet length average = 1
Accepted packet length average = 1
Total in-flight flits = 6 (6 measured)
latency change    = 0.0296492
throughput change = 0.0385852
Class 0:
Packet latency average = 20.212
	minimum = 7
	maximum = 47
Network latency average = 20.212
	minimum = 7
	maximum = 47
Slowest packet = 8520
Flit latency average = 20.2324
	minimum = 7
	maximum = 47
Slowest flit = 8520
Fragmentation average = 0
	minimum = 0
	maximum = 0
Injected packet rate average = 0.0209063
	minimum = 0.0145 (at node 1)
	maximum = 0.025 (at node 8)
Accepted packet rate average = 0.0208438
	minimum = 0.0145 (at node 4)
	maximum = 0.0245 (at node 2)
Injected flit rate average = 0.0209063
	minimum = 0.0145 (at node 1)
	maximum = 0.025 (at node 8)
Accepted flit rate average= 0.0208438
	minimum = 0.0145 (at node 4)
	maximum = 0.0245 (at node 2)
Injected packet length average = 1
Accepted packet length average = 1
Total in-flight flits = 4 (4 measured)
latency change    = 0.0116111
throughput change = 0.0674663
Class 0:
Packet latency average = 20.1765
	minimum = 7
	maximum = 54
Network latency average = 20.1765
	minimum = 7
	maximum = 54
Slowest packet = 8863
Flit latency average = 20.1903
	minimum = 7
	maximum = 54
Slowest flit = 8863
Fragmentation average = 0
	minimum = 0
	maximum = 0
Injected packet rate average = 0.0206875
	minimum = 0.0146667 (at node 1)
	maximum = 0.0236667 (at node 7)
Accepted packet rate average = 0.0205833
	minimum = 0.0146667 (at node 4)
	maximum = 0.0233333 (at node 7)
Injected flit rate average = 0.0206875
	minimum = 0.0146667 (at node 1)
	maximum = 0.0236667 (at node 7)
Accepted flit rate average= 0.0205833
	minimum = 0.0146667 (at node 4)
	maximum = 0.0233333 (at node 7)
Injected packet length average = 1
Accepted packet length average = 1
Total in-flight flits = 7 (7 measured)
latency change    = 0.00176242
throughput change = 0.0126518
Class 0:
Packet latency average = 20.1437
	minimum = 7
	maximum = 54
Network latency average = 20.1437
	minimum = 7
	maximum = 54
Slowest packet = 8863
Flit latency average = 20.1544
	minimum = 7
	maximum = 54
Slowest flit = 8863
Fragmentation average = 0
	minimum = 0
	maximum = 0
Injected packet rate average = 0.0201875
	minimum = 0.015 (at node 1)
	maximum = 0.023 (at node 8)
Accepted packet rate average = 0.0201406
	minimum = 0.015 (at node 4)
	maximum = 0.0225 (at node 2)
Injected flit rate average = 0.0201875
	minimum = 0.015 (at node 1)
	maximum = 0.023 (at node 8)
Accepted flit rate average= 0.0201406
	minimum = 0.015 (at node 4)
	maximum = 0.0225 (at node 2)
Injected packet length average = 1
Accepted packet length average = 1
Total in-flight flits = 5 (5 measured)
latency change    = 0.0016246
throughput change = 0.0219809
Class 0:
Packet latency average = 19.6986
	minimum = 7
	maximum = 54
Network latency average = 19.6986
	minimum = 7
	maximum = 54
Slowest packet = 8863
Flit latency average = 19.7078
	minimum = 7
	maximum = 54
Slowest flit = 8863
Fragmentation average = 0
	minimum = 0
	maximum = 0
Injected packet rate average = 0.02005
	minimum = 0.018 (at node 1)
	maximum = 0.0222 (at node 6)
Accepted packet rate average = 0.019975
	minimum = 0.018 (at node 4)
	maximum = 0.0218 (at node 9)
Injected flit rate average = 0.02005
	minimum = 0.018 (at node 1)
	maximum = 0.0222 (at node 6)
Accepted flit rate average= 0.019975
	minimum = 0.018 (at node 4)
	maximum = 0.0218 (at node 9)
Injected packet length average = 1
Accepted packet length average = 1
Total in-flight flits = 8 (8 measured)
latency change    = 0.0225967
throughput change = 0.00829161
Draining all recorded packets ...
Draining remaining packets ...
Time taken is 8049 cycles
Class 0:
Packet latency average = 19.8598
	minimum = 7
	maximum = 46
Network latency average = 19.8598
	minimum = 7
	maximum = 46
Slowest packet = 9802
Flit latency average = 19.8598
	minimum = 7
	maximum = 46
Slowest flit = 9802
Fragmentation average = 0
	minimum = 0
	maximum = 0
Injected packet rate average = 0.020375
	minimum = 0.016 (at node 3)
	maximum = 0.025 (at node 12)
Accepted packet rate average = 0.0200625
	minimum = 0.016 (at node 11)
	maximum = 0.024 (at node 3)
Injected flit rate average = 0.020375
	minimum = 0.016 (at node 3)
	maximum = 0.025 (at node 12)
Accepted flit rate average= 0.0200625
	minimum = 0.016 (at node 11)
	maximum = 0.024 (at node 3)
Injected packet length average = 1
Accepted packet length average = 1
Total in-flight flits = 5 (0 measured)
latency change    = 1
throughput change = 1
Class 0:
Packet latency average = 19.9872
	minimum = 7
	maximum = 46
Network latency average = 19.9872
	minimum = 7
	maximum = 46
Slowest packet = 9802
Flit latency average = 19.9872
	minimum = 7
	maximum = 46
Slowest flit = 9802
Fragmentation average = 0
	minimum = 0
	maximum = 0
Injected packet rate average = 0.0197188
	minimum = 0.0155 (at node 3)
	maximum = 0.026 (at node 12)
Accepted packet rate average = 0.0195938
	minimum = 0.0155 (at node 12)
	maximum = 0.0255 (at node 3)
Injected flit rate average = 0.0197188
	minimum = 0.0155 (at node 3)
	maximum = 0.026 (at node 12)
Accepted flit rate average= 0.0195938
	minimum = 0.0155 (at node 12)
	maximum = 0.0255 (at node 3)
Injected packet length average = 1
Accepted packet length average = 1
Total in-flight flits = 4 (0 measured)
latency change    = 0.00637545
throughput change = 0.0239234
Class 0:
Packet latency average = 19.6754
	minimum = 7
	maximum = 50
Network latency average = 19.6754
	minimum = 7
	maximum = 50
Slowest packet = 10636
Flit latency average = 19.6754
	minimum = 7
	maximum = 50
Slowest flit = 10636
Fragmentation average = 0
	minimum = 0
	maximum = 0
Injected packet rate average = 0.019125
	minimum = 0.012 (at node 8)
	maximum = 0.025 (at node 5)
Accepted packet rate average = 0.0190625
	minimum = 0.012 (at node 2)
	maximum = 0.025 (at node 5)
Injected flit rate average = 0.019125
	minimum = 0.012 (at node 8)
	maximum = 0.025 (at node 5)
Accepted flit rate average= 0.0190625
	minimum = 0.012 (at node 2)
	maximum = 0.025 (at node 5)
Injected packet length average = 1
Accepted packet length average = 1
Total in-flight flits = 5 (0 measured)
latency change    = 0.0158488
throughput change = 0.0278689
Warmed up ...Time used is 3000 cycles
Class 0:
Packet latency average = 20.3692
	minimum = 7
	maximum = 47
Network latency average = 20.3692
	minimum = 7
	maximum = 47
Slowest packet = 11028
Flit latency average = 20.4355
	minimum = 7
	maximum = 47
Slowest flit = 11028
Fragmentation average = 0
	minimum = 0
	maximum = 0
Injected packet rate average = 0.022
	minimum = 0.012 (at node 4)
	maximum = 0.03 (at node 13)
Accepted packet rate average = 0.0218125
	minimum = 0.013 (at node 1)
	maximum = 0.031 (at node 7)
Injected flit rate average = 0.022
	minimum = 0.012 (at node 4)
	maximum = 0.03 (at node 13)
Accepted flit rate average= 0.0218125
	minimum = 0.013 (at node 1)
	maximum = 0.031 (at node 7)
Injected packet length average = 1
Accepted packet length average = 1
Total in-flight flits = 8 (8 measured)
latency change    = 0.0340601
throughput change = 0.126074
Class 0:
Packet latency average = 20.1872
	minimum = 7
	maximum = 49
Network latency average = 20.1872
	minimum = 7
	maximum = 49
Slowest packet = 11166
Flit latency average = 20.2236
	minimum = 7
	maximum = 49
Slowest flit = 11166
Fragmentation average = 0
	minimum = 0
	maximum = 0
Injected packet rate average = 0.0207188
	minimum = 0.016 (at node 3)
	maximum = 0.0265 (at node 1)
Accepted packet rate average = 0.0206875
	minimum = 0.016 (at node 12)
	maximum = 0.0265 (at node 7)
Injected flit rate average = 0.0207188
	minimum = 0.016 (at node 3)
	maximum = 0.0265 (at node 1)
Accepted flit rate average= 0.0206875
	minimum = 0.016 (at node 12)
	maximum = 0.0265 (at node 7)
Injected packet length average = 1
Accepted packet length average = 1
Total in-flight flits = 6 (6 measured)
latency change    = 0.00901419
throughput change = 0.0543807
Class 0:
Packet latency average = 19.8767
	minimum = 7
	maximum = 49
Network latency average = 19.8767
	minimum = 7
	maximum = 49
Slowest packet = 11166
Flit latency average = 19.9031
	minimum = 7
	maximum = 49
Slowest flit = 11166
Fragmentation average = 0
	minimum = 0
	maximum = 0
Injected packet rate average = 0.0203125
	minimum = 0.015 (at node 3)
	maximum = 0.0246667 (at node 6)
Accepted packet rate average = 0.0202083
	minimum = 0.0143333 (at node 12)
	maximum = 0.0246667 (at node 13)
Injected flit rate average = 0.0203125
	minimum = 0.015 (at node 3)
	maximum = 0.0246667 (at node 6)
Accepted flit rate average= 0.0202083
	minimum = 0.0143333 (at node 12)
	maximum = 0.0246667 (at node 13)
Injected packet length average = 1
Accepted packet length average = 1
Total in-flight flits = 10 (10 measured)
latency change    = 0.0156229
throughput change = 0.0237113
Class 0:
Packet latency average = 19.8144
	minimum = 7
	maximum = 49
Network latency average = 19.8144
	minimum = 7
	maximum = 49
Slowest packet = 11166
Flit latency average = 19.8345
	minimum = 7
	maximum = 49
Slowest flit = 11166
Fragmentation average = 0
	minimum = 0
	maximum = 0
Injected packet rate average = 0.0202188
	minimum = 0.0155 (at node 3)
	maximum = 0.0235 (at node 6)
Accepted packet rate average = 0.0202031
	minimum = 0.01525 (at node 12)
	maximum = 0.0235 (at node 9)
Injected flit rate average = 0.0202188
	minimum = 0.0155 (at node 3)
	maximum = 0.0235 (at node 6)
Accepted flit rate average= 0.0202031
	minimum = 0.01525 (at node 12)
	maximum = 0.0235 (at node 9)
Injected packet length average = 1
Accepted packet length average = 1
Total in-flight flits = 6 (6 measured)
latency change    = 0.00314129
throughput change = 0.000257798
Class 0:
Packet latency average = 19.8416
	minimum = 7
	maximum = 52
Network latency average = 19.8416
	minimum = 7
	maximum = 52
Slowest packet = 12317
Flit latency average = 19.8572
	minimum = 7
	maximum = 52
Slowest flit = 12317
Fragmentation average = 0
	minimum = 0
	maximum = 0
Injected packet rate average = 0.0207125
	minimum = 0.0174 (at node 10)
	maximum = 0.0242 (at node 6)
Accepted packet rate average = 0.0206625
	minimum = 0.0174 (at node 10)
	maximum = 0.0242 (at node 9)
Injected flit rate average = 0.0207125
	minimum = 0.0174 (at node 10)
	maximum = 0.0242 (at node 6)
Accepted flit rate average= 0.0206625
	minimum = 0.0174 (at node 10)
	maximum = 0.0242 (at node 9)
Injected packet length average = 1
Accepted packet length average = 1
Total in-flight flits = 9 (9 measured)
latency change    = 0.00137011
throughput change = 0.0222323
Draining all recorded packets ...
Draining remaining packets ...
Time taken is 8044 cycles
Class 0:
Packet latency average = 19.9114
	minimum = 7
	maximum = 47
Network latency average = 19.9114
	minimum = 7
	maximum = 47
Slowest packet = 12548
Flit latency average = 19.9114
	minimum = 7
	maximum = 47
Slowest flit = 12548
Fragmentation average = 0
	minimum = 0
	maximum = 0
Injected packet rate average = 0.0205
	minimum = 0.015 (at node 15)
	maximum = 0.029 (at node 12)
Accepted packet rate average = 0.01975
	minimum = 0.015 (at node 2)
	maximum = 0.025 (at node 1)
Injected flit rate average = 0.0205
	minimum = 0.015 (at node 15)
	maximum = 0.029 (at node 12)
Accepted flit rate average= 0.01975
	minimum = 0.015 (at node 2)
	maximum = 0.025 (at node 1)
Injected packet length average = 1
Accepted packet length average = 1
Total in-flight flits = 12 (0 measured)
latency change    = 1
throughput change = 1
Class 0:
Packet latency average = 20.3333
	minimum = 7
	maximum = 54
Network latency average = 20.3333
	minimum = 7
	maximum = 54
Slowest packet = 12836
Flit latency average = 20.3333
	minimum = 7
	maximum = 54
Slowest flit = 12836
Fragmentation average = 0
	minimum = 0
	maximum = 0
Injected packet rate average = 0.0203125
	minimum = 0.017 (at node 13)
	maximum = 0.0235 (at node 12)
Accepted packet rate average = 0.0200625
	minimum = 0.0165 (at node 7)
	maximum = 0.0235 (at node 3)
Injected flit rate average = 0.0203125
	minimum = 0.017 (at node 13)
	maximum = 0.0235 (at node 12)
Accepted flit rate average= 0.0200625
	minimum = 0.0165 (at node 7)
	maximum = 0.0235 (at node 3)
Injected packet length average = 1
Accepted packet length average = 1
Total in-flight flits = 8 (0 measured)
latency change    = 0.0207512
throughput change = 0.0155763
Class 0:
Packet latency average = 19.9799
	minimum = 7
	maximum = 49
Network latency average = 19.9799
	minimum = 7
	maximum = 49
Slowest packet = 13148
Flit latency average = 19.9799
	minimum = 7
	maximum = 49
Slowest flit = 13148
Fragmentation average = 0
	minimum = 0
	maximum = 0
Injected packet rate average = 0.018375
	minimum = 0.012 (at node 4)
	maximum = 0.028 (at node 13)
Accepted packet rate average = 0.0186875
	minimum = 0.012 (at node 1)
	maximum = 0.028 (at node 7)
Injected flit rate average = 0.018375
	minimum = 0.012 (at node 4)
	maximum = 0.028 (at node 13)
Accepted flit rate average= 0.0186875
	minimum = 0.012 (at node 1)
	maximum = 0.028 (at node 7)
Injected packet length average = 1
Accepted packet length average = 1
Total in-flight flits = 3 (0 measured)
latency change    = 0.0176878
throughput change = 0.0735786
Warmed up ...Time used is 3000 cycles
Class 0:
Packet latency average = 19.1994
	minimum = 7
	maximum = 49
Network latency average = 19.1994
	minimum = 7
	maximum = 49
Slowest packet = 13553
Flit latency average = 19.3009
	minimum = 7
	maximum = 49
Slowest flit = 13553
Fragmentation average = 0
	minimum = 0
	maximum = 0
Injected packet rate average = 0.020625
	minimum = 0.014 (at node 7)
	maximum = 0.028 (at node 6)
Accepted packet rate average = 0.0205625
	minimum = 0.014 (at node 13)
	maximum = 0.028 (at node 9)
Injected flit rate average = 0.020625
	minimum = 0.014 (at node 7)
	maximum = 0.028 (at node 6)
Accepted flit rate average= 0.0205625
	minimum = 0.014 (at node 13)
	maximum = 0.028 (at node 9)
Injected packet length average = 1
Accepted packet length average = 1
Total in-flight flits = 4 (4 measured)
latency change    = 0.0406548
throughput change = 0.0911854
Class 0:
Packet latency average = 19.3089
	minimum = 7
	maximum = 49
Network latency average = 19.3089
	minimum = 7
	maximum = 49
Slowest packet = 13553
Flit latency average = 19.3592
	minimum = 7
	maximum = 49
Slowest flit = 13553
Fragmentation average = 0
	minimum = 0
	maximum = 0
Injected packet rate average = 0.0205625
	minimum = 0.0175 (at node 4)
	maximum = 0.026 (at node 6)
Accepted packet rate average = 0.0205313
	minimum = 0.0175 (at node 1)
	maximum = 0.026 (at node 9)
Injected flit rate average = 0.0205625
	minimum = 0.0175 (at node 4)
	maximum = 0.026 (at node 6)
Accepted flit rate average= 0.0205313
	minimum = 0.0175 (at node 1)
	maximum = 0.026 (at node 9)
Injected packet length average = 1
Accepted packet length average = 1
Total in-flight flits = 4 (4 measured)
latency change    = 0.00567004
throughput change = 0.00152207
Class 0:
Packet latency average = 19.4975
	minimum = 7
	maximum = 51
Network latency average = 19.4975
	minimum = 7
	maximum = 51
Slowest packet = 14164
Flit latency average = 19.5305
	minimum = 7
	maximum = 51
Slowest flit = 14164
Fragmentation average = 0
	minimum = 0
	maximum = 0
Injected packet rate average = 0.0205833
	minimum = 0.018 (at node 0)
	maximum = 0.0253333 (at node 10)
Accepted packet rate average = 0.0205
	minimum = 0.0176667 (at node 11)
	maximum = 0.0253333 (at node 10)
Injected flit rate average = 0.0205833
	minimum = 0.018 (at node 0)
	maximum = 0.0253333 (at node 10)
Accepted flit rate average= 0.0205
	minimum = 0.0176667 (at node 11)
	maximum = 0.0253333 (at node 10)
Injected packet length average = 1
Accepted packet length average = 1
Total in-flight flits = 7 (7 measured)
latency change    = 0.00967219
throughput change = 0.00152439
Class 0:
Packet latency average = 19.3354
	minimum = 7
	maximum = 51
Network latency average = 19.3354
	minimum = 7
	maximum = 51
Slowest packet = 14164
Flit latency average = 19.3607
	minimum = 7
	maximum = 51
Slowest flit = 14164
Fragmentation average = 0
	minimum = 0
	maximum = 0
Injected packet rate average = 0.0203594
	minimum = 0.01725 (at node 12)
	maximum = 0.02325 (at node 6)
Accepted packet rate average = 0.0203594
	minimum = 0.01725 (at node 3)
	maximum = 0.02325 (at node 10)
Injected flit rate average = 0.0203594
	minimum = 0.01725 (at node 12)
	maximum = 0.02325 (at node 6)
Accepted flit rate average= 0.0203594
	minimum = 0.01725 (at node 3)
	maximum = 0.02325 (at node 10)
Injected packet length average = 1
Accepted packet length average = 1
Total in-flight flits = 3 (3 measured)
latency change    = 0.00838188
throughput change = 0.00690714
Draining all recorded packets ...
Draining remaining packets ...
Time taken is 7036 cycles
Class 0:
Packet latency average = 18.549
	minimum = 7
	maximum = 46
Network latency average = 18.549
	minimum = 7
	maximum = 46
Slowest packet = 14817
Flit latency average = 18.549
	minimum = 7
	maximum = 46
Slowest flit = 14817
Fragmentation average = 0
	minimum = 0
	maximum = 0
Injected packet rate average = 0.019625
	minimum = 0.013 (at node 11)
	maximum = 0.029 (at node 1)
Accepted packet rate average = 0.019125
	minimum = 0.013 (at node 12)
	maximum = 0.029 (at node 4)
Injected flit rate average = 0.019625
	minimum = 0.013 (at node 11)
	maximum = 0.029 (at node 1)
Accepted flit rate average= 0.019125
	minimum = 0.013 (at node 12)
	maximum = 0.029 (at node 4)
Injected packet length average = 1
Accepted packet length average = 1
Total in-flight flits = 8 (0 measured)
latency change    = 1
throughput change = 1
Class 0:
Packet latency average = 19.9265
	minimum = 7
	maximum = 54
Network latency average = 19.9265
	minimum = 7
	maximum = 54
Slowest packet = 15028
Flit latency average = 19.9265
	minimum = 7
	maximum = 54
Slowest flit = 15028
Fragmentation average = 0
	minimum = 0
	maximum = 0
Injected packet rate average = 0.0198438
	minimum = 0.014 (at node 11)
	maximum = 0.0265 (at node 1)
Accepted packet rate average = 0.0195625
	minimum = 0.014 (at node 14)
	maximum = 0.0265 (at node 4)
Injected flit rate average = 0.0198438
	minimum = 0.014 (at node 11)
	maximum = 0.0265 (at node 1)
Accepted flit rate average= 0.0195625
	minimum = 0.014 (at node 14)
	maximum = 0.0265 (at node 4)
Injected packet length average = 1
Accepted packet length average = 1
Total in-flight flits = 9 (0 measured)
latency change    = 0.0691289
throughput change = 0.0223642
Class 0:
Packet latency average = 19.4023
	minimum = 7
	maximum = 47
Network latency average = 19.4023
	minimum = 7
	maximum = 47
Slowest packet = 15547
Flit latency average = 19.4023
	minimum = 7
	maximum = 47
Slowest flit = 15547
Fragmentation average = 0
	minimum = 0
	maximum = 0
Injected packet rate average = 0.022125
	minimum = 0.008 (at node 4)
	maximum = 0.032 (at node 11)
Accepted packet rate average = 0.0220625
	minimum = 0.008 (at node 1)
	maximum = 0.03 (at node 10)
Injected flit rate average = 0.022125
	minimum = 0.008 (at node 4)
	maximum = 0.032 (at node 11)
Accepted flit rate average= 0.0220625
	minimum = 0.008 (at node 1)
	maximum = 0.03 (at node 10)
Injected packet length average = 1
Accepted packet length average = 1
Total in-flight flits = 10 (0 measured)
latency change    = 0.0270201
throughput change = 0.113314
Warmed up ...Time used is 3000 cycles
Class 0:
Packet latency average = 19.4812
	minimum = 7
	maximum = 46
Network latency average = 19.4812
	minimum = 7
	maximum = 46
Slowest packet = 15772
Flit latency average = 19.5879
	minimum = 7
	maximum = 46
Slowest flit = 15772
Fragmentation average = 0
	minimum = 0
	maximum = 0
Injected packet rate average = 0.0203125
	minimum = 0.013 (at node 10)
	maximum = 0.027 (at node 5)
Accepted packet rate average = 0.020625
	minimum = 0.013 (at node 10)
	maximum = 0.027 (at node 5)
Injected flit rate average = 0.0203125
	minimum = 0.013 (at node 10)
	maximum = 0.027 (at node 5)
Accepted flit rate average= 0.020625
	minimum = 0.013 (at node 10)
	maximum = 0.027 (at node 5)
Injected packet length average = 1
Accepted packet length average = 1
Total in-flight flits = 5 (5 measured)
latency change    = 0.00405435
throughput change = 0.069697
Class 0:
Packet latency average = 19.6312
	minimum = 7
	maximum = 46
Network latency average = 19.6312
	minimum = 7
	maximum = 46
Slowest packet = 15772
Flit latency average = 19.6846
	minimum = 7
	maximum = 46
Slowest flit = 15772
Fragmentation average = 0
	minimum = 0
	maximum = 0
Injected packet rate average = 0.0196563
	minimum = 0.015 (at node 10)
	maximum = 0.0255 (at node 13)
Accepted packet rate average = 0.0197188
	minimum = 0.014 (at node 10)
	maximum = 0.026 (at node 7)
Injected flit rate average = 0.0196563
	minimum = 0.015 (at node 10)
	maximum = 0.0255 (at node 13)
Accepted flit rate average= 0.0197188
	minimum = 0.014 (at node 10)
	maximum = 0.026 (at node 7)
Injected packet length average = 1
Accepted packet length average = 1
Total in-flight flits = 8 (8 measured)
latency change    = 0.00764037
throughput change = 0.0459588
Class 0:
Packet latency average = 19.871
	minimum = 7
	maximum = 46
Network latency average = 19.871
	minimum = 7
	maximum = 46
Slowest packet = 15772
Flit latency average = 19.903
	minimum = 7
	maximum = 46
Slowest flit = 15772
Fragmentation average = 0
	minimum = 0
	maximum = 0
Injected packet rate average = 0.0202917
	minimum = 0.0163333 (at node 11)
	maximum = 0.026 (at node 13)
Accepted packet rate average = 0.0203958
	minimum = 0.017 (at node 10)
	maximum = 0.0263333 (at node 7)
Injected flit rate average = 0.0202917
	minimum = 0.0163333 (at node 11)
	maximum = 0.026 (at node 13)
Accepted flit rate average= 0.0203958
	minimum = 0.017 (at node 10)
	maximum = 0.0263333 (at node 7)
Injected packet length average = 1
Accepted packet length average = 1
Total in-flight flits = 5 (5 measured)
latency change    = 0.0120659
throughput change = 0.0331971
Class 0:
Packet latency average = 19.824
	minimum = 7
	maximum = 54
Network latency average = 19.824
	minimum = 7
	maximum = 54
Slowest packet = 16696
Flit latency average = 19.8485
	minimum = 7
	maximum = 54
Slowest flit = 16696
Fragmentation average = 0
	minimum = 0
	maximum = 0
Injected packet rate average = 0.0202656
	minimum = 0.01725 (at node 11)
	maximum = 0.02575 (at node 13)
Accepted packet rate average = 0.0203125
	minimum = 0.0175 (at node 14)
	maximum = 0.026 (at node 7)
Injected flit rate average = 0.0202656
	minimum = 0.01725 (at node 11)
	maximum = 0.02575 (at node 13)
Accepted flit rate average= 0.0203125
	minimum = 0.0175 (at node 14)
	maximum = 0.026 (at node 7)
Injected packet length average = 1
Accepted packet length average = 1
Total in-flight flits = 7 (7 measured)
latency change    = 0.00236935
throughput change = 0.00410256
Draining all recorded packets ...
Draining remaining packets ...
Time taken is 7061 cycles
Class 0:
Packet latency average = 19.1827
	minimum = 7
	maximum = 51
Network latency average = 19.1827
	minimum = 7
	maximum = 51
Slowest packet = 17135
Flit latency average = 19.1827
	minimum = 7
	maximum = 51
Slowest flit = 17135
Fragmentation average = 0
	minimum = 0
	maximum = 0
Injected packet rate average = 0.01975
	minimum = 0.008 (at node 4)
	maximum = 0.03 (at node 0)
Accepted packet rate average = 0.0195
	minimum = 0.008 (at node 1)
	maximum = 0.03 (at node 0)
Injected flit rate average = 0.01975
	minimum = 0.008 (at node 4)
	maximum = 0.03 (at node 0)
Accepted flit rate average= 0.0195
	minimum = 0.008 (at node 1)
	maximum = 0.03 (at node 0)
Injected packet length average = 1
Accepted packet length average = 1
Total in-flight flits = 4 (0 measured)
latency change    = 1
throughput change = 1
Class 0:
Packet latency average = 19.2437
	minimum = 7
	maximum = 55
Network latency average = 19.2437
	minimum = 7
	maximum = 55
Slowest packet = 17474
Flit latency average = 19.2437
	minimum = 7
	maximum = 55
Slowest flit = 17474
Fragmentation average = 0
	minimum = 0
	maximum = 0
Injected packet rate average = 0.02025
	minimum = 0.016 (at node 4)
	maximum = 0.026 (at node 0)
Accepted packet rate average = 0.02
	minimum = 0.016 (at node 1)
	maximum = 0.026 (at node 0)
Injected flit rate average = 0.02025
	minimum = 0.016 (at node 4)
	maximum = 0.026 (at node 0)
Accepted flit rate average= 0.02
	minimum = 0.016 (at node 1)
	maximum = 0.026 (at node 0)
Injected packet length average = 1
Accepted packet length average = 1
Total in-flight flits = 8 (0 measured)
latency change    = 0.00317286
throughput change = 0.025
Class 0:
Packet latency average = 19.9551
	minimum = 7
	maximum = 46
Network latency average = 19.9551
	minimum = 7
	maximum = 46
Slowest packet = 17562
Flit latency average = 19.9551
	minimum = 7
	maximum = 46
Slowest flit = 17562
Fragmentation average = 0
	minimum = 0
	maximum = 0
Injected packet rate average = 0.01925
	minimum = 0.013 (at node 1)
	maximum = 0.026 (at node 9)
Accepted packet rate average = 0.0195
	minimum = 0.012 (at node 4)
	maximum = 0.026 (at node 2)
Injected flit rate average = 0.01925
	minimum = 0.013 (at node 1)
	maximum = 0.026 (at node 9)
Accepted flit rate average= 0.0195
	minimum = 0.012 (at node 4)
	maximum = 0.026 (at node 2)
Injected packet length average = 1
Accepted packet length average = 1
Total in-flight flits = 4 (0 measured)
latency change    = 0.0356489
throughput change = 0.025641
Warmed up ...Time used is 3000 cycles
Class 0:
Packet latency average = 21.0424
	minimum = 7
	maximum = 57
Network latency average = 21.0424
	minimum = 7
	maximum = 57
Slowest packet = 17927
Flit latency average = 21.024
	minimum = 7
	maximum = 57
Slowest flit = 17927
Fragmentation average = 0
	minimum = 0
	maximum = 0
Injected packet rate average = 0.0208125
	minimum = 0.012 (at node 10)
	maximum = 0.03 (at node 2)
Accepted packet rate average = 0.020875
	minimum = 0.012 (at node 10)
	maximum = 0.031 (at node 8)
Injected flit rate average = 0.0208125
	minimum = 0.012 (at node 10)
	maximum = 0.03 (at node 2)
Accepted flit rate average= 0.020875
	minimum = 0.012 (at node 10)
	maximum = 0.031 (at node 8)
Injected packet length average = 1
Accepted packet length average = 1
Total in-flight flits = 3 (3 measured)
latency change    = 0.0516716
throughput change = 0.0658683
Class 0:
Packet latency average = 20.2829
	minimum = 7
	maximum = 57
Network latency average = 20.2829
	minimum = 7
	maximum = 57
Slowest packet = 17927
Flit latency average = 20.2778
	minimum = 7
	maximum = 57
Slowest flit = 17927
Fragmentation average = 0
	minimum = 0
	maximum = 0
Injected packet rate average = 0.0191875
	minimum = 0.014 (at node 10)
	maximum = 0.024 (at node 2)
Accepted packet rate average = 0.019125
	minimum = 0.014 (at node 10)
	maximum = 0.0245 (at node 8)
Injected flit rate average = 0.0191875
	minimum = 0.014 (at node 10)
	maximum = 0.024 (at node 2)
Accepted flit rate average= 0.019125
	minimum = 0.014 (at node 10)
	maximum = 0.0245 (at node 8)
Injected packet length average = 1
Accepted packet length average = 1
Total in-flight flits = 6 (6 measured)
latency change    = 0.0374468
throughput change = 0.0915033
Class 0:
Packet latency average = 20.1264
	minimum = 7
	maximum = 57
Network latency average = 20.1264
	minimum = 7
	maximum = 57
Slowest packet = 17927
Flit latency average = 20.1236
	minimum = 7
	maximum = 57
Slowest flit = 17927
Fragmentation average = 0
	minimum = 0
	maximum = 0
Injected packet rate average = 0.01875
	minimum = 0.015 (at node 6)
	maximum = 0.0223333 (at node 3)
Accepted packet rate average = 0.0187083
	minimum = 0.015 (at node 9)
	maximum = 0.0223333 (at node 5)
Injected flit rate average = 0.01875
	minimum = 0.015 (at node 6)
	maximum = 0.0223333 (at node 3)
Accepted flit rate average= 0.0187083
	minimum = 0.015 (at node 9)
	maximum = 0.0223333 (at node 5)
Injected packet length average = 1
Accepted packet length average = 1
Total in-flight flits = 6 (6 measured)
latency change    = 0.00777568
throughput change = 0.0222717
Class 0:
Packet latency average = 20.0625
	minimum = 7
	maximum = 57
Network latency average = 20.0625
	minimum = 7
	maximum = 57
Slowest packet = 17927
Flit latency average = 20.0607
	minimum = 7
	maximum = 57
Slowest flit = 17927
Fragmentation average = 0
	minimum = 0
	maximum = 0
Injected packet rate average = 0.0190781
	minimum = 0.01475 (at node 15)
	maximum = 0.02275 (at node 5)
Accepted packet rate average = 0.0190625
	minimum = 0.01475 (at node 15)
	maximum = 0.02275 (at node 5)
Injected flit rate average = 0.0190781
	minimum = 0.01475 (at node 15)
	maximum = 0.02275 (at node 5)
Accepted flit rate average= 0.0190625
	minimum = 0.01475 (at node 15)
	maximum = 0.02275 (at node 5)
Injected packet length average = 1
Accepted packet length average = 1
Total in-flight flits = 5 (5 measured)
latency change    = 0.00318496
throughput change = 0.0185792
Class 0:
Packet latency average = 19.9286
	minimum = 7
	maximum = 57
Network latency average = 19.9286
	minimum = 7
	maximum = 57
Slowest packet = 17927
Flit latency average = 19.9275
	minimum = 7
	maximum = 57
Slowest flit = 17927
Fragmentation average = 0
	minimum = 0
	maximum = 0
Injected packet rate average = 0.0194625
	minimum = 0.0142 (at node 15)
	maximum = 0.022 (at node 2)
Accepted packet rate average = 0.0194875
	minimum = 0.0142 (at node 15)
	maximum = 0.0222 (at node 8)
Injected flit rate average = 0.0194625
	minimum = 0.0142 (at node 15)
	maximum = 0.022 (at node 2)
Accepted flit rate average= 0.0194875
	minimum = 0.0142 (at node 15)
	maximum = 0.0222 (at node 8)
Injected packet length average = 1
Accepted packet length average = 1
Total in-flight flits = 2 (2 measured)
latency change    = 0.00671811
throughput change = 0.0218089
Draining all recorded packets ...
Draining remaining packets ...
Time taken is 8007 cycles
Class 0:
Packet latency average = 20.028
	minimum = 7
	maximum = 49
Network latency average = 20.028
	minimum = 7
	maximum = 49
Slowest packet = 19637
Flit latency average = 20.028
	minimum = 7
	maximum = 49
Slowest flit = 19637
Fragmentation average = 0
	minimum = 0
	maximum = 0
Injected packet rate average = 0.0183125
	minimum = 0.011 (at node 6)
	maximum = 0.026 (at node 13)
Accepted packet rate average = 0.017875
	minimum = 0.011 (at node 9)
	maximum = 0.025 (at node 7)
Injected flit rate average = 0.0183125
	minimum = 0.011 (at node 6)
	maximum = 0.026 (at node 13)
Accepted flit rate average= 0.017875
	minimum = 0.011 (at node 9)
	maximum = 0.025 (at node 7)
Injected packet length average = 1
Accepted packet length average = 1
Total in-flight flits = 7 (0 measured)
latency change    = 1
throughput change = 1
Class 0:
Packet latency average = 19.9819
	minimum = 7
	maximum = 54
Network latency average = 19.9819
	minimum = 7
	maximum = 54
Slowest packet = 19717
Flit latency average = 19.9819
	minimum = 7
	maximum = 54
Slowest flit = 19717
Fragmentation average = 0
	minimum = 0
	maximum = 0
Injected packet rate average = 0.0192187
	minimum = 0.014 (at node 8)
	maximum = 0.0265 (at node 0)
Accepted packet rate average = 0.0189687
	minimum = 0.0135 (at node 2)
	maximum = 0.0265 (at node 0)
Injected flit rate average = 0.0192187
	minimum = 0.014 (at node 8)
	maximum = 0.0265 (at node 0)
Accepted flit rate average= 0.0189687
	minimum = 0.0135 (at node 2)
	maximum = 0.0265 (at node 0)
Injected packet length average = 1
Accepted packet length average = 1
Total in-flight flits = 8 (0 measured)
latency change    = 0.00230679
throughput change = 0.0576606
Class 0:
Packet latency average = 19.1017
	minimum = 7
	maximum = 47
Network latency average = 19.1017
	minimum = 7
	maximum = 47
Slowest packet = 20042
Flit latency average = 19.1017
	minimum = 7
	maximum = 47
Slowest flit = 20042
Fragmentation average = 0
	minimum = 0
	maximum = 0
Injected packet rate average = 0.0214375
	minimum = 0.011 (at node 2)
	maximum = 0.035 (at node 14)
Accepted packet rate average = 0.0215
	minimum = 0.012 (at node 8)
	maximum = 0.034 (at node 11)
Injected flit rate average = 0.0214375
	minimum = 0.011 (at node 2)
	maximum = 0.035 (at node 14)
Accepted flit rate average= 0.0215
	minimum = 0.012 (at node 8)
	maximum = 0.034 (at node 11)
Injected packet length average = 1
Accepted packet length average = 1
Total in-flight flits = 7 (0 measured)
latency change    = 0.0460761
throughput change = 0.117733
Warmed up ...Time used is 3000 cycles
Class 0:
Packet latency average = 19.0517
	minimum = 7
	maximum = 48
Network latency average = 19.0517
	minimum = 7
	maximum = 48
Slowest packet = 20457
Flit latency average = 19.2727
	minimum = 7
	maximum = 48
Slowest flit = 20457
Fragmentation average = 0
	minimum = 0
	maximum = 0
Injected packet rate average = 0.0186875
	minimum = 0.01 (at node 14)
	maximum = 0.03 (at node 10)
Accepted packet rate average = 0.0185625
	minimum = 0.011 (at node 11)
	maximum = 0.028 (at node 10)
Injected flit rate average = 0.0186875
	minimum = 0.01 (at node 14)
	maximum = 0.03 (at node 10)
Accepted flit rate average= 0.0185625
	minimum = 0.011 (at node 11)
	maximum = 0.028 (at node 10)
Injected packet length average = 1
Accepted packet length average = 1
Total in-flight flits = 9 (9 measured)
latency change    = 0.00262549
throughput change = 0.158249
Class 0:
Packet latency average = 19.5139
	minimum = 7
	maximum = 48
Network latency average = 19.5139
	minimum = 7
	maximum = 48
Slowest packet = 20457
Flit latency average = 19.6149
	minimum = 7
	maximum = 48
Slowest flit = 20457
Fragmentation average = 0
	minimum = 0
	maximum = 0
Injected packet rate average = 0.0191562
	minimum = 0.0155 (at node 15)
	maximum = 0.0235 (at node 1)
Accepted packet rate average = 0.0193125
	minimum = 0.0155 (at node 15)
	maximum = 0.0235 (at node 4)
Injected flit rate average = 0.0191562
	minimum = 0.0155 (at node 15)
	maximum = 0.0235 (at node 1)
Accepted flit rate average= 0.0193125
	minimum = 0.0155 (at node 15)
	maximum = 0.0235 (at node 4)
Injected packet length average = 1
Accepted packet length average = 1
Total in-flight flits = 2 (2 measured)
latency change    = 0.023685
throughput change = 0.038835
Class 0:
Packet latency average = 19.4337
	minimum = 7
	maximum = 48
Network latency average = 19.4337
	minimum = 7
	maximum = 48
Slowest packet = 20457
Flit latency average = 19.5011
	minimum = 7
	maximum = 48
Slowest flit = 20457
Fragmentation average = 0
	minimum = 0
	maximum = 0
Injected packet rate average = 0.0194375
	minimum = 0.0166667 (at node 15)
	maximum = 0.0236667 (at node 0)
Accepted packet rate average = 0.0194583
	minimum = 0.0166667 (at node 15)
	maximum = 0.0236667 (at node 0)
Injected flit rate average = 0.0194375
	minimum = 0.0166667 (at node 15)
	maximum = 0.0236667 (at node 0)
Accepted flit rate average= 0.0194583
	minimum = 0.0166667 (at node 15)
	maximum = 0.0236667 (at node 0)
Injected packet length average = 1
Accepted packet length average = 1
Total in-flight flits = 6 (6 measured)
latency change    = 0.00412967
throughput change = 0.00749465
Class 0:
Packet latency average = 19.7727
	minimum = 7
	maximum = 48
Network latency average = 19.7727
	minimum = 7
	maximum = 48
Slowest packet = 20457
Flit latency average = 19.8214
	minimum = 7
	maximum = 48
Slowest flit = 20457
Fragmentation average = 0
	minimum = 0
	maximum = 0
Injected packet rate average = 0.0193906
	minimum = 0.01575 (at node 15)
	maximum = 0.0225 (at node 1)
Accepted packet rate average = 0.0194219
	minimum = 0.01575 (at node 15)
	maximum = 0.0225 (at node 4)
Injected flit rate average = 0.0193906
	minimum = 0.01575 (at node 15)
	maximum = 0.0225 (at node 1)
Accepted flit rate average= 0.0194219
	minimum = 0.01575 (at node 15)
	maximum = 0.0225 (at node 4)
Injected packet length average = 1
Accepted packet length average = 1
Total in-flight flits = 5 (5 measured)
latency change    = 0.0171447
throughput change = 0.00187718
Draining all recorded packets ...
Draining remaining packets ...
Time taken is 7065 cycles
Class 0:
Packet latency average = 19.1384
	minimum = 7
	maximum = 53
Network latency average = 19.1384
	minimum = 7
	maximum = 53
Slowest packet = 21850
Flit latency average = 19.1384
	minimum = 7
	maximum = 53
Slowest flit = 21850
Fragmentation average = 0
	minimum = 0
	maximum = 0
Injected packet rate average = 0.0203125
	minimum = 0.014 (at node 0)
	maximum = 0.027 (at node 10)
Accepted packet rate average = 0.019875
	minimum = 0.014 (at node 0)
	maximum = 0.027 (at node 10)
Injected flit rate average = 0.0203125
	minimum = 0.014 (at node 0)
	maximum = 0.027 (at node 10)
Accepted flit rate average= 0.019875
	minimum = 0.014 (at node 0)
	maximum = 0.027 (at node 10)
Injected packet length average = 1
Accepted packet length average = 1
Total in-flight flits = 7 (0 measured)
latency change    = 1
throughput change = 1
Class 0:
Packet latency average = 19.7654
	minimum = 7
	maximum = 53
Network latency average = 19.7654
	minimum = 7
	maximum = 53
Slowest packet = 21850
Flit latency average = 19.7654
	minimum = 7
	maximum = 53
Slowest flit = 21850
Fragmentation average = 0
	minimum = 0
	maximum = 0
Injected packet rate average = 0.0204063
	minimum = 0.0155 (at node 6)
	maximum = 0.025 (at node 14)
Accepted packet rate average = 0.02025
	minimum = 0.0155 (at node 1)
	maximum = 0.0245 (at node 4)
Injected flit rate average = 0.0204063
	minimum = 0.0155 (at node 6)
	maximum = 0.025 (at node 14)
Accepted flit rate average= 0.02025
	minimum = 0.0155 (at node 1)
	maximum = 0.0245 (at node 4)
Injected packet length average = 1
Accepted packet length average = 1
Total in-flight flits = 5 (0 measured)
latency change    = 0.0317255
throughput change = 0.0185185
Class 0:
Packet latency average = 18.9784
	minimum = 7
	maximum = 46
Network latency average = 18.9784
	minimum = 7
	maximum = 46
Slowest packet = 22296
Flit latency average = 18.9784
	minimum = 7
	maximum = 46
Slowest flit = 22296
Fragmentation average = 0
	minimum = 0
	maximum = 0
Injected packet rate average = 0.0204375
	minimum = 0.011 (at node 5)
	maximum = 0.026 (at node 0)
Accepted packet rate average = 0.02025
	minimum = 0.011 (at node 5)
	maximum = 0.026 (at node 0)
Injected flit rate average = 0.0204375
	minimum = 0.011 (at node 5)
	maximum = 0.026 (at node 0)
Accepted flit rate average= 0.02025
	minimum = 0.011 (at node 5)
	maximum = 0.026 (at node 0)
Injected packet length average = 1
Accepted packet length average = 1
Total in-flight flits = 8 (0 measured)
latency change    = 0.0414702
throughput change = 0
Warmed up ...Time used is 3000 cycles
Class 0:
Packet latency average = 19.9812
	minimum = 7
	maximum = 52
Network latency average = 19.9812
	minimum = 7
	maximum = 52
Slowest packet = 22931
Flit latency average = 20.0917
	minimum = 7
	maximum = 52
Slowest flit = 22931
Fragmentation average = 0
	minimum = 0
	maximum = 0
Injected packet rate average = 0.0201875
	minimum = 0.012 (at node 9)
	maximum = 0.028 (at node 8)
Accepted packet rate average = 0.0204375
	minimum = 0.012 (at node 6)
	maximum = 0.028 (at node 2)
Injected flit rate average = 0.0201875
	minimum = 0.012 (at node 9)
	maximum = 0.028 (at node 8)
Accepted flit rate average= 0.0204375
	minimum = 0.012 (at node 6)
	maximum = 0.028 (at node 2)
Injected packet length average = 1
Accepted packet length average = 1
Total in-flight flits = 4 (4 measured)
latency change    = 0.050187
throughput change = 0.00917431
Class 0:
Packet latency average = 20.0724
	minimum = 7
	maximum = 52
Network latency average = 20.0724
	minimum = 7
	maximum = 52
Slowest packet = 22931
Flit latency average = 20.1299
	minimum = 7
	maximum = 52
Slowest flit = 22931
Fragmentation average = 0
	minimum = 0
	maximum = 0
Injected packet rate average = 0.0191562
	minimum = 0.012 (at node 9)
	maximum = 0.0235 (at node 6)
Accepted packet rate average = 0.01925
	minimum = 0.012 (at node 6)
	maximum = 0.0245 (at node 9)
Injected flit rate average = 0.0191562
	minimum = 0.012 (at node 9)
	maximum = 0.0235 (at node 6)
Accepted flit rate average= 0.01925
	minimum = 0.012 (at node 6)
	maximum = 0.0245 (at node 9)
Injected packet length average = 1
Accepted packet length average = 1
Total in-flight flits = 5 (5 measured)
latency change    = 0.00454242
throughput change = 0.0616883
Class 0:
Packet latency average = 20.0324
	minimum = 7
	maximum = 52
Network latency average = 20.0324
	minimum = 7
	maximum = 52
Slowest packet = 22931
Flit latency average = 20.0695
	minimum = 7
	maximum = 52
Slowest flit = 22931
Fragmentation average = 0
	minimum = 0
	maximum = 0
Injected packet rate average = 0.0200833
	minimum = 0.0156667 (at node 5)
	maximum = 0.0246667 (at node 8)
Accepted packet rate average = 0.0200833
	minimum = 0.0156667 (at node 5)
	maximum = 0.0246667 (at node 2)
Injected flit rate average = 0.0200833
	minimum = 0.0156667 (at node 5)
	maximum = 0.0246667 (at node 8)
Accepted flit rate average= 0.0200833
	minimum = 0.0156667 (at node 5)
	maximum = 0.0246667 (at node 2)
Injected packet length average = 1
Accepted packet length average = 1
Total in-flight flits = 8 (8 measured)
latency change    = 0.00199385
throughput change = 0.0414938
Class 0:
Packet latency average = 19.9292
	minimum = 7
	maximum = 54
Network latency average = 19.9292
	minimum = 7
	maximum = 54
Slowest packet = 23576
Flit latency average = 19.9572
	minimum = 7
	maximum = 54
Slowest flit = 23576
Fragmentation average = 0
	minimum = 0
	maximum = 0
Injected packet rate average = 0.0203594
	minimum = 0.016 (at node 5)
	maximum = 0.0245 (at node 8)
Accepted packet rate average = 0.0204219
	minimum = 0.016 (at node 5)
	maximum = 0.0245 (at node 2)
Injected flit rate average = 0.0203594
	minimum = 0.016 (at node 5)
	maximum = 0.0245 (at node 8)
Accepted flit rate average= 0.0204219
	minimum = 0.016 (at node 5)
	maximum = 0.0245 (at node 2)
Injected packet length average = 1
Accepted packet length average = 1
Total in-flight flits = 4 (4 measured)
latency change    = 0.00518087
throughput change = 0.0165774
Class 0:
Packet latency average = 20.1352
	minimum = 7
	maximum = 54
Network latency average = 20.1352
	minimum = 7
	maximum = 54
Slowest packet = 23576
Flit latency average = 20.1564
	minimum = 7
	maximum = 54
Slowest flit = 23576
Fragmentation average = 0
	minimum = 0
	maximum = 0
Injected packet rate average = 0.020525
	minimum = 0.0156 (at node 5)
	maximum = 0.025 (at node 8)
Accepted packet rate average = 0.0205375
	minimum = 0.0156 (at node 5)
	maximum = 0.025 (at node 2)
Injected flit rate average = 0.020525
	minimum = 0.0156 (at node 5)
	maximum = 0.025 (at node 8)
Accepted flit rate average= 0.0205375
	minimum = 0.0156 (at node 5)
	maximum = 0.025 (at node 2)
Injected packet length average = 1
Accepted packet length average = 1
Total in-flight flits = 7 (7 measured)
latency change    = 0.0102305
throughput change = 0.00562995
Draining all recorded packets ...
Draining remaining packets ...
Time taken is 8055 cycles
Class 0:
Packet latency average = 19.1379
	minimum = 7
	maximum = 61
Network latency average = 19.1379
	minimum = 7
	maximum = 61
Slowest packet = 24332
Flit latency average = 19.1379
	minimum = 7
	maximum = 61
Slowest flit = 24332
Fragmentation average = 0
	minimum = 0
	maximum = 0
Injected packet rate average = 0.01875
	minimum = 0.012 (at node 7)
	maximum = 0.027 (at node 14)
Accepted packet rate average = 0.018125
	minimum = 0.011 (at node 13)
	maximum = 0.026 (at node 11)
Injected flit rate average = 0.01875
	minimum = 0.012 (at node 7)
	maximum = 0.027 (at node 14)
Accepted flit rate average= 0.018125
	minimum = 0.011 (at node 13)
	maximum = 0.026 (at node 11)
Injected packet length average = 1
Accepted packet length average = 1
Total in-flight flits = 10 (0 measured)
latency change    = 1
throughput change = 1
Class 0:
Packet latency average = 19.5146
	minimum = 7
	maximum = 61
Network latency average = 19.5146
	minimum = 7
	maximum = 61
Slowest packet = 24332
Flit latency average = 19.5146
	minimum = 7
	maximum = 61
Slowest flit = 24332
Fragmentation average = 0
	minimum = 0
	maximum = 0
Injected packet rate average = 0.0195625
	minimum = 0.014 (at node 7)
	maximum = 0.026 (at node 14)
Accepted packet rate average = 0.01925
	minimum = 0.014 (at node 13)
	maximum = 0.0255 (at node 11)
Injected flit rate average = 0.0195625
	minimum = 0.014 (at node 7)
	maximum = 0.026 (at node 14)
Accepted flit rate average= 0.01925
	minimum = 0.014 (at node 13)
	maximum = 0.0255 (at node 11)
Injected packet length average = 1
Accepted packet length average = 1
Total in-flight flits = 10 (0 measured)
latency change    = 0.0193024
throughput change = 0.0584416
Class 0:
Packet latency average = 20.3323
	minimum = 7
	maximum = 49
Network latency average = 20.3323
	minimum = 7
	maximum = 49
Slowest packet = 24891
Flit latency average = 20.3323
	minimum = 7
	maximum = 49
Slowest flit = 24891
Fragmentation average = 0
	minimum = 0
	maximum = 0
Injected packet rate average = 0.01925
	minimum = 0.015 (at node 5)
	maximum = 0.025 (at node 2)
Accepted packet rate average = 0.0195625
	minimum = 0.016 (at node 0)
	maximum = 0.028 (at node 8)
Injected flit rate average = 0.01925
	minimum = 0.015 (at node 5)
	maximum = 0.025 (at node 2)
Accepted flit rate average= 0.0195625
	minimum = 0.016 (at node 0)
	maximum = 0.028 (at node 8)
Injected packet length average = 1
Accepted packet length average = 1
Total in-flight flits = 5 (0 measured)
latency change    = 0.0402148
throughput change = 0.0159744
Warmed up ...Time used is 3000 cycles
Class 0:
Packet latency average = 18.4739
	minimum = 7
	maximum = 38
Network latency average = 18.4739
	minimum = 7
	maximum = 38
Slowest packet = 25366
Flit latency average = 18.5171
	minimum = 7
	maximum = 38
Slowest flit = 25366
Fragmentation average = 0
	minimum = 0
	maximum = 0
Injected packet rate average = 0.0183125
	minimum = 0.01 (at node 12)
	maximum = 0.028 (at node 1)
Accepted packet rate average = 0.01825
	minimum = 0.009 (at node 3)
	maximum = 0.029 (at node 4)
Injected flit rate average = 0.0183125
	minimum = 0.01 (at node 12)
	maximum = 0.028 (at node 1)
Accepted flit rate average= 0.01825
	minimum = 0.009 (at node 3)
	maximum = 0.029 (at node 4)
Injected packet length average = 1
Accepted packet length average = 1
Total in-flight flits = 6 (6 measured)
latency change    = 0.100596
throughput change = 0.0719178
Class 0:
Packet latency average = 19.0063
	minimum = 7
	maximum = 49
Network latency average = 19.0063
	minimum = 7
	maximum = 49
Slowest packet = 25627
Flit latency average = 19.022
	minimum = 7
	maximum = 49
Slowest flit = 25627
Fragmentation average = 0
	minimum = 0
	maximum = 0
Injected packet rate average = 0.0199063
	minimum = 0.015 (at node 4)
	maximum = 0.0265 (at node 1)
Accepted packet rate average = 0.0199063
	minimum = 0.015 (at node 1)
	maximum = 0.028 (at node 4)
Injected flit rate average = 0.0199063
	minimum = 0.015 (at node 4)
	maximum = 0.0265 (at node 1)
Accepted flit rate average= 0.0199063
	minimum = 0.015 (at node 1)
	maximum = 0.028 (at node 4)
Injected packet length average = 1
Accepted packet length average = 1
Total in-flight flits = 5 (5 measured)
latency change    = 0.028015
throughput change = 0.0832025
Class 0:
Packet latency average = 19.4304
	minimum = 7
	maximum = 49
Network latency average = 19.4304
	minimum = 7
	maximum = 49
Slowest packet = 25627
Flit latency average = 19.4386
	minimum = 7
	maximum = 49
Slowest flit = 25627
Fragmentation average = 0
	minimum = 0
	maximum = 0
Injected packet rate average = 0.0198542
	minimum = 0.0163333 (at node 4)
	maximum = 0.024 (at node 10)
Accepted packet rate average = 0.0198542
	minimum = 0.0163333 (at node 1)
	maximum = 0.024 (at node 10)
Injected flit rate average = 0.0198542
	minimum = 0.0163333 (at node 4)
	maximum = 0.024 (at node 10)
Accepted flit rate average= 0.0198542
	minimum = 0.0163333 (at node 1)
	maximum = 0.024 (at node 10)
Injected packet length average = 1
Accepted packet length average = 1
Total in-flight flits = 5 (5 measured)
latency change    = 0.0218241
throughput change = 0.00262329
Class 0:
Packet latency average = 19.3845
	minimum = 7
	maximum = 55
Network latency average = 19.3845
	minimum = 7
	maximum = 55
Slowest packet = 26267
Flit latency average = 19.3909
	minimum = 7
	maximum = 55
Slowest flit = 26267
Fragmentation average = 0
	minimum = 0
	maximum = 0
Injected packet rate average = 0.0198438
	minimum = 0.01675 (at node 4)
	maximum = 0.02425 (at node 10)
Accepted packet rate average = 0.0198281
	minimum = 0.01675 (at node 1)
	maximum = 0.02425 (at node 10)
Injected flit rate average = 0.0198438
	minimum = 0.01675 (at node 4)
	maximum = 0.02425 (at node 10)
Accepted flit rate average= 0.0198281
	minimum = 0.01675 (at node 1)
	maximum = 0.02425 (at node 10)
Injected packet length average = 1
Accepted packet length average = 1
Total in-flight flits = 6 (6 measured)
latency change    = 0.00236715
throughput change = 0.00131337
Class 0:
Packet latency average = 19.3659
	minimum = 7
	maximum = 55
Network latency average = 19.3659
	minimum = 7
	maximum = 55
Slowest packet = 26267
Flit latency average = 19.371
	minimum = 7
	maximum = 55
Slowest flit = 26267
Fragmentation average = 0
	minimum = 0
	maximum = 0
Injected packet rate average = 0.02
	minimum = 0.0166 (at node 4)
	maximum = 0.0232 (at node 10)
Accepted packet rate average = 0.0200125
	minimum = 0.0166 (at node 1)
	maximum = 0.023 (at node 10)
Injected flit rate average = 0.02
	minimum = 0.0166 (at node 4)
	maximum = 0.0232 (at node 10)
Accepted flit rate average= 0.0200125
	minimum = 0.0166 (at node 1)
	maximum = 0.023 (at node 10)
Injected packet length average = 1
Accepted packet length average = 1
Total in-flight flits = 4 (4 measured)
latency change    = 0.00095936
throughput change = 0.00921299
Draining all recorded packets ...
Draining remaining packets ...
Time taken is 8058 cycles
Class 0:
Packet latency average = 19.9741
	minimum = 7
	maximum = 44
Network latency average = 19.9741
	minimum = 7
	maximum = 44
Slowest packet = 26868
Flit latency average = 19.9741
	minimum = 7
	maximum = 44
Slowest flit = 26868
Fragmentation average = 0
	minimum = 0
	maximum = 0
Injected packet rate average = 0.0199375
	minimum = 0.009 (at node 14)
	maximum = 0.028 (at node 13)
Accepted packet rate average = 0.0193125
	minimum = 0.009 (at node 11)
	maximum = 0.028 (at node 7)
Injected flit rate average = 0.0199375
	minimum = 0.009 (at node 14)
	maximum = 0.028 (at node 13)
Accepted flit rate average= 0.0193125
	minimum = 0.009 (at node 11)
	maximum = 0.028 (at node 7)
Injected packet length average = 1
Accepted packet length average = 1
Total in-flight flits = 10 (0 measured)
latency change    = 1
throughput change = 1
Class 0:
Packet latency average = 19.758
	minimum = 7
	maximum = 53
Network latency average = 19.758
	minimum = 7
	maximum = 53
Slowest packet = 27141
Flit latency average = 19.758
	minimum = 7
	maximum = 53
Slowest flit = 27141
Fragmentation average = 0
	minimum = 0
	maximum = 0
Injected packet rate average = 0.0195938
	minimum = 0.0125 (at node 14)
	maximum = 0.025 (at node 12)
Accepted packet rate average = 0.0195
	minimum = 0.0125 (at node 11)
	maximum = 0.0245 (at node 3)
Injected flit rate average = 0.0195938
	minimum = 0.0125 (at node 14)
	maximum = 0.025 (at node 12)
Accepted flit rate average= 0.0195
	minimum = 0.0125 (at node 11)
	maximum = 0.0245 (at node 3)
Injected packet length average = 1
Accepted packet length average = 1
Total in-flight flits = 3 (0 measured)
latency change    = 0.0109372
throughput change = 0.00961538
Class 0:
Packet latency average = 20.5284
	minimum = 7
	maximum = 56
Network latency average = 20.5284
	minimum = 7
	maximum = 56
Slowest packet = 27614
Flit latency average = 20.5284
	minimum = 7
	maximum = 56
Slowest flit = 27614
Fragmentation average = 0
	minimum = 0
	maximum = 0
Injected packet rate average = 0.02125
	minimum = 0.014 (at node 10)
	maximum = 0.035 (at node 3)
Accepted packet rate average = 0.0209375
	minimum = 0.014 (at node 10)
	maximum = 0.033 (at node 12)
Injected flit rate average = 0.02125
	minimum = 0.014 (at node 10)
	maximum = 0.035 (at node 3)
Accepted flit rate average= 0.0209375
	minimum = 0.014 (at node 10)
	maximum = 0.033 (at node 12)
Injected packet length average = 1
Accepted packet length average = 1
Total in-flight flits = 8 (0 measured)
latency change    = 0.0375259
throughput change = 0.0686567
Warmed up ...Time used is 3000 cycles
Class 0:
Packet latency average = 19.6301
	minimum = 7
	maximum = 43
Network latency average = 19.6301
	minimum = 7
	maximum = 43
Slowest packet = 27937
Flit latency average = 19.8563
	minimum = 7
	maximum = 56
Slowest flit = 27776
Fragmentation average = 0
	minimum = 0
	maximum = 0
Injected packet rate average = 0.0204375
	minimum = 0.014 (at node 15)
	maximum = 0.029 (at node 4)
Accepted packet rate average = 0.0204375
	minimum = 0.014 (at node 15)
	maximum = 0.03 (at node 1)
Injected flit rate average = 0.0204375
	minimum = 0.014 (at node 15)
	maximum = 0.029 (at node 4)
Accepted flit rate average= 0.0204375
	minimum = 0.014 (at node 15)
	maximum = 0.03 (at node 1)
Injected packet length average = 1
Accepted packet length average = 1
Total in-flight flits = 8 (8 measured)
latency change    = 0.0457595
throughput change = 0.0244648
Class 0:
Packet latency average = 19.0903
	minimum = 7
	maximum = 43
Network latency average = 19.0903
	minimum = 7
	maximum = 43
Slowest packet = 27937
Flit latency average = 19.215
	minimum = 7
	maximum = 56
Slowest flit = 27776
Fragmentation average = 0
	minimum = 0
	maximum = 0
Injected packet rate average = 0.0194687
	minimum = 0.0155 (at node 3)
	maximum = 0.0255 (at node 4)
Accepted packet rate average = 0.019625
	minimum = 0.016 (at node 13)
	maximum = 0.026 (at node 1)
Injected flit rate average = 0.0194687
	minimum = 0.0155 (at node 3)
	maximum = 0.0255 (at node 4)
Accepted flit rate average= 0.019625
	minimum = 0.016 (at node 13)
	maximum = 0.026 (at node 1)
Injected packet length average = 1
Accepted packet length average = 1
Total in-flight flits = 3 (3 measured)
latency change    = 0.0282746
throughput change = 0.0414013
Class 0:
Packet latency average = 19.2772
	minimum = 7
	maximum = 44
Network latency average = 19.2772
	minimum = 7
	maximum = 44
Slowest packet = 28497
Flit latency average = 19.361
	minimum = 7
	maximum = 56
Slowest flit = 27776
Fragmentation average = 0
	minimum = 0
	maximum = 0
Injected packet rate average = 0.0189792
	minimum = 0.015 (at node 3)
	maximum = 0.022 (at node 5)
Accepted packet rate average = 0.0191042
	minimum = 0.0156667 (at node 12)
	maximum = 0.0216667 (at node 1)
Injected flit rate average = 0.0189792
	minimum = 0.015 (at node 3)
	maximum = 0.022 (at node 5)
Accepted flit rate average= 0.0191042
	minimum = 0.0156667 (at node 12)
	maximum = 0.0216667 (at node 1)
Injected packet length average = 1
Accepted packet length average = 1
Total in-flight flits = 2 (2 measured)
latency change    = 0.00969564
throughput change = 0.0272628
Draining all recorded packets ...
Draining remaining packets ...
Time taken is 6042 cycles
Class 0:
Packet latency average = 19.5017
	minimum = 7
	maximum = 51
Network latency average = 19.5017
	minimum = 7
	maximum = 51
Slowest packet = 28749
Flit latency average = 19.5017
	minimum = 7
	maximum = 51
Slowest flit = 28749
Fragmentation average = 0
	minimum = 0
	maximum = 0
Injected packet rate average = 0.019
	minimum = 0.011 (at node 2)
	maximum = 0.026 (at node 10)
Accepted packet rate average = 0.0184375
	minimum = 0.011 (at node 8)
	maximum = 0.026 (at node 10)
Injected flit rate average = 0.019
	minimum = 0.011 (at node 2)
	maximum = 0.026 (at node 10)
Accepted flit rate average= 0.0184375
	minimum = 0.011 (at node 8)
	maximum = 0.026 (at node 10)
Injected packet length average = 1
Accepted packet length average = 1
Total in-flight flits = 9 (0 measured)
latency change    = 1
throughput change = 1
Class 0:
Packet latency average = 19.7042
	minimum = 7
	maximum = 51
Network latency average = 19.7042
	minimum = 7
	maximum = 51
Slowest packet = 28749
Flit latency average = 19.7042
	minimum = 7
	maximum = 51
Slowest flit = 28749
Fragmentation average = 0
	minimum = 0
	maximum = 0
Injected packet rate average = 0.02025
	minimum = 0.014 (at node 7)
	maximum = 0.0245 (at node 3)
Accepted packet rate average = 0.0199688
	minimum = 0.0135 (at node 13)
	maximum = 0.0235 (at node 12)
Injected flit rate average = 0.02025
	minimum = 0.014 (at node 7)
	maximum = 0.0245 (at node 3)
Accepted flit rate average= 0.0199688
	minimum = 0.0135 (at node 13)
	maximum = 0.0235 (at node 12)
Injected packet length average = 1
Accepted packet length average = 1
Total in-flight flits = 9 (0 measured)
latency change    = 0.0102785
throughput change = 0.0766823
Class 0:
Packet latency average = 20.1741
	minimum = 7
	maximum = 46
Network latency average = 20.1741
	minimum = 7
	maximum = 46
Slowest packet = 29346
Flit latency average = 20.1741
	minimum = 7
	maximum = 46
Slowest flit = 29346
Fragmentation average = 0
	minimum = 0
	maximum = 0
Injected packet rate average = 0.019875
	minimum = 0.012 (at node 8)
	maximum = 0.029 (at node 6)
Accepted packet rate average = 0.01975
	minimum = 0.012 (at node 2)
	maximum = 0.029 (at node 13)
Injected flit rate average = 0.019875
	minimum = 0.012 (at node 8)
	maximum = 0.029 (at node 6)
Accepted flit rate average= 0.01975
	minimum = 0.012 (at node 2)
	maximum = 0.029 (at node 13)
Injected packet length average = 1
Accepted packet length average = 1
Total in-flight flits = 11 (0 measured)
latency change    = 0.0232886
throughput change = 0.0110759
Warmed up ...Time used is 3000 cycles
Class 0:
[...]
Injected packet rate average = 0.0215625
	minimum = 0.013 (at node 7)
	maximum = 0.034 (at node 13)
Accepted packet rate average = 0.0211875
	minimum = 0.012 (at node 13)
	maximum = 0.035 (at node 7)
Injected flit rate average = 0.0215625
	minimum = 0.013 (at node 7)
	maximum = 0.034 (at node 13)
Accepted flit rate average= 0.0211875
	minimum = 0.012 (at node 13)
	maximum = 0.035 (at node 7)
Injected packet length average = 1
Accepted packet length average = 1
Total in-flight flits = 12 (0 measured)
latency change    = 0.0177852
throughput change = 0.0943953
Warmed up ...Time used is 3000 cycles
Class 0:
Packet latency average = 20.1481
	minimum = 7
	maximum = 47
Network latency average = 20.1481
	minimum = 7
	maximum = 47
Slowest packet = 220259
Flit latency average = 20.1683
	minimum = 7
	maximum = 47
Slowest flit = 220259
Fragmentation average = 0
	minimum = 0
	maximum = 0
Injected packet rate average = 0.0189375
	minimum = 0.012 (at node 1)
	maximum = 0.031 (at node 2)
Accepted packet rate average = 0.0193125
	minimum = 0.013 (at node 4)
	maximum = 0.031 (at node 8)
Injected flit rate average = 0.0189375
	minimum = 0.012 (at node 1)
	maximum = 0.031 (at node 2)
Accepted flit rate average= 0.0193125
	minimum = 0.013 (at node 4)
	maximum = 0.031 (at node 8)
Injected packet length average = 1
Accepted packet length average = 1
Total in-flight flits = 6 (6 measured)
latency change    = 0.000992322
throughput change = 0.0970874
Class 0:
Packet latency average = 20.2278
	minimum = 7
	maximum = 47
Network latency average = 20.2278
	minimum = 7
	maximum = 47
Slowest packet = 220259
Flit latency average = 20.2358
	minimum = 7
	maximum = 47
Slowest flit = 220259
Fragmentation average = 0
	minimum = 0
	maximum = 0
Injected packet rate average = 0.02025
	minimum = 0.0125 (at node 14)
	maximum = 0.0255 (at node 2)
Accepted packet rate average = 0.0204063
	minimum = 0.0125 (at node 11)
	maximum = 0.025 (at node 8)
Injected flit rate average = 0.02025
	minimum = 0.0125 (at node 14)
	maximum = 0.0255 (at node 2)
Accepted flit rate average= 0.0204063
	minimum = 0.0125 (at node 11)
	maximum = 0.025 (at node 8)
Injected packet length average = 1
Accepted packet length average = 1
Total in-flight flits = 7 (7 measured)
latency change    = 0.00393622
throughput change = 0.0535988
Class 0:
Packet latency average = 19.9255
	minimum = 7
	maximum = 51
Network latency average = 19.9255
	minimum = 7
	maximum = 51
Slowest packet = 220957
Flit latency average = 19.9348
	minimum = 7
	maximum = 51
Slowest flit = 220957
Fragmentation average = 0
	minimum = 0
	maximum = 0
Injected packet rate average = 0.0197083
	minimum = 0.013 (at node 14)
	maximum = 0.0226667 (at node 2)
Accepted packet rate average = 0.0198125
	minimum = 0.0126667 (at node 11)
	maximum = 0.0226667 (at node 8)
Injected flit rate average = 0.0197083
	minimum = 0.013 (at node 14)
	maximum = 0.0226667 (at node 2)
Accepted flit rate average= 0.0198125
	minimum = 0.0126667 (at node 11)
	maximum = 0.0226667 (at node 8)
Injected packet length average = 1
Accepted packet length average = 1
Total in-flight flits = 7 (7 measured)
latency change    = 0.0151724
throughput change = 0.0299685
Class 0:
Packet latency average = 20.0318
	minimum = 7
	maximum = 51
Network latency average = 20.0318
	minimum = 7
	maximum = 51
Slowest packet = 220957
Flit latency average = 20.0377
	minimum = 7
	maximum = 51
Slowest flit = 220957
Fragmentation average = 0
	minimum = 0
	maximum = 0
Injected packet rate average = 0.0202344
	minimum = 0.015 (at node 14)
	maximum = 0.023 (at node 7)
Accepted packet rate average = 0.0203125
	minimum = 0.015 (at node 11)
	maximum = 0.02275 (at node 13)
Injected flit rate average = 0.0202344
	minimum = 0.015 (at node 14)
	maximum = 0.023 (at node 7)
Accepted flit rate average= 0.0203125
	minimum = 0.015 (at node 11)
	maximum = 0.02275 (at node 13)
Injected packet length average = 1
Accepted packet length average = 1
Total in-flight flits = 7 (7 measured)
latency change    = 0.00531053
throughput change = 0.0246154
Class 0:
Packet latency average = 20.1426
	minimum = 7
	maximum = 51
Network latency average = 20.1426
	minimum = 7
	maximum = 51
Slowest packet = 220957
Flit latency average = 20.1464
	minimum = 7
	maximum = 51
Slowest flit = 220957
Fragmentation average = 0
	minimum = 0
	maximum = 0
Injected packet rate average = 0.02045
	minimum = 0.0152 (at node 14)
	maximum = 0.0228 (at node 7)
Accepted packet rate average = 0.0204875
	minimum = 0.0152 (at node 11)
	maximum = 0.0226 (at node 8)
Injected flit rate average = 0.02045
	minimum = 0.0152 (at node 14)
	maximum = 0.0228 (at node 7)
Accepted flit rate average= 0.0204875
	minimum = 0.0152 (at node 11)
	maximum = 0.0226 (at node 8)
Injected packet length average = 1
Accepted packet length average = 1
Total in-flight flits = 9 (9 measured)
latency change    = 0.00549887
throughput change = 0.00854179
Draining all recorded packets ...
Draining remaining packets ...
Time taken is 8041 cycles
Class 0:
Packet latency average = 19.5288
	minimum = 7
	maximum = 45
Network latency average = 19.5288
	minimum = 7
	maximum = 45
Slowest packet = 221917
Flit latency average = 19.5288
	minimum = 7
	maximum = 45
Slowest flit = 221917
Fragmentation average = 0
	minimum = 0
	maximum = 0
Injected packet rate average = 0.01975
	minimum = 0.014 (at node 3)
	maximum = 0.027 (at node 6)
Accepted packet rate average = 0.0195
	minimum = 0.014 (at node 7)
	maximum = 0.027 (at node 9)
Injected flit rate average = 0.01975
	minimum = 0.014 (at node 3)
	maximum = 0.027 (at node 6)
Accepted flit rate average= 0.0195
	minimum = 0.014 (at node 7)
	maximum = 0.027 (at node 9)
Injected packet length average = 1
Accepted packet length average = 1
Total in-flight flits = 4 (0 measured)
latency change    = 1
throughput change = 1
Class 0:
Packet latency average = 19.3089
	minimum = 7
	maximum = 45
Network latency average = 19.3089
	minimum = 7
	maximum = 45
Slowest packet = 221917
Flit latency average = 19.3089
	minimum = 7
	maximum = 45
Slowest flit = 221917
Fragmentation average = 0
	minimum = 0
	maximum = 0
Injected packet rate average = 0.0193125
	minimum = 0.0155 (at node 3)
	maximum = 0.024 (at node 6)
Accepted packet rate average = 0.0192187
	minimum = 0.0155 (at node 12)
	maximum = 0.024 (at node 9)
Injected flit rate average = 0.0193125
	minimum = 0.0155 (at node 3)
	maximum = 0.024 (at node 6)
Accepted flit rate average= 0.0192187
	minimum = 0.0155 (at node 12)
	maximum = 0.024 (at node 9)
Injected packet length average = 1
Accepted packet length average = 1
Total in-flight flits = 3 (0 measured)
latency change    = 0.0113887
throughput change = 0.0146341
Class 0:
Packet latency average = 18.2517
	minimum = 7
	maximum = 58
Network latency average = 18.2517
	minimum = 7
	maximum = 58
Slowest packet = 222473
Flit latency average = 18.2517
	minimum = 7
	maximum = 58
Slowest flit = 222473
Fragmentation average = 0
	minimum = 0
	maximum = 0
Injected packet rate average = 0.0184375
	minimum = 0.008 (at node 12)
	maximum = 0.027 (at node 14)
Accepted packet rate average = 0.018375
	minimum = 0.009 (at node 8)
	maximum = 0.026 (at node 0)
Injected flit rate average = 0.0184375
	minimum = 0.008 (at node 12)
	maximum = 0.027 (at node 14)
Accepted flit rate average= 0.018375
	minimum = 0.009 (at node 8)
	maximum = 0.026 (at node 0)
Injected packet length average = 1
Accepted packet length average = 1
Total in-flight flits = 4 (0 measured)
latency change    = 0.0579257
throughput change = 0.0459184
Warmed up ...Time used is 3000 cycles
Class 0:
Packet latency average = 19.7333
	minimum = 7
	maximum = 53
Network latency average = 19.7333
	minimum = 7
	maximum = 53
Slowest packet = 222933
Flit latency average = 19.7305
	minimum = 7
	maximum = 53
Slowest flit = 222933
Fragmentation average = 0
	minimum = 0
	maximum = 0
Injected packet rate average = 0.0210625
	minimum = 0.015 (at node 7)
	maximum = 0.03 (at node 5)
Accepted packet rate average = 0.020875
	minimum = 0.013 (at node 13)
	maximum = 0.03 (at node 5)
Injected flit rate average = 0.0210625
	minimum = 0.015 (at node 7)
	maximum = 0.03 (at node 5)
Accepted flit rate average= 0.020875
	minimum = 0.013 (at node 13)
	maximum = 0.03 (at node 5)
Injected packet length average = 1
Accepted packet length average = 1
Total in-flight flits = 7 (7 measured)
latency change    = 0.0750827
throughput change = 0.11976
Class 0:
Packet latency average = 19.9042
	minimum = 7
	maximum = 55
Network latency average = 19.9042
	minimum = 7
	maximum = 55
Slowest packet = 223200
Flit latency average = 19.9018
	minimum = 7
	maximum = 55
Slowest flit = 223200
Fragmentation average = 0
	minimum = 0
	maximum = 0
Injected packet rate average = 0.0210938
	minimum = 0.0155 (at node 1)
	maximum = 0.0265 (at node 5)
Accepted packet rate average = 0.021
	minimum = 0.0155 (at node 4)
	maximum = 0.0265 (at node 5)
Injected flit rate average = 0.0210938
	minimum = 0.0155 (at node 1)
	maximum = 0.0265 (at node 5)
Accepted flit rate average= 0.021
	minimum = 0.0155 (at node 4)
	maximum = 0.0265 (at node 5)
Injected packet length average = 1
Accepted packet length average = 1
Total in-flight flits = 7 (7 measured)
latency change    = 0.00858404
throughput change = 0.00595238
Class 0:
Packet latency average = 19.8919
	minimum = 7
	maximum = 55
Network latency average = 19.8919
	minimum = 7
	maximum = 55
Slowest packet = 223200
Flit latency average = 19.8903
	minimum = 7
	maximum = 55
Slowest flit = 223200
Fragmentation average = 0
	minimum = 0
	maximum = 0
Injected packet rate average = 0.0203542
	minimum = 0.014 (at node 1)
	maximum = 0.0243333 (at node 5)
Accepted packet rate average = 0.0203125
	minimum = 0.0133333 (at node 4)
	maximum = 0.0243333 (at node 5)
Injected flit rate average = 0.0203542
	minimum = 0.014 (at node 1)
	maximum = 0.0243333 (at node 5)
Accepted flit rate average= 0.0203125
	minimum = 0.0133333 (at node 4)
	maximum = 0.0243333 (at node 5)
Injected packet length average = 1
Accepted packet length average = 1
Total in-flight flits = 6 (6 measured)
latency change    = 0.000619729
throughput change = 0.0338462
Class 0:
Packet latency average = 20.2439
	minimum = 7
	maximum = 66
Network latency average = 20.2439
	minimum = 7
	maximum = 66
Slowest packet = 223964
Flit latency average = 20.2416
	minimum = 7
	maximum = 66
Slowest flit = 223964
Fragmentation average = 0
	minimum = 0
	maximum = 0
Injected packet rate average = 0.0205313
	minimum = 0.015 (at node 1)
	maximum = 0.02375 (at node 12)
Accepted packet rate average = 0.0204375
	minimum = 0.0145 (at node 4)
	maximum = 0.02375 (at node 3)
Injected flit rate average = 0.0205313
	minimum = 0.015 (at node 1)
	maximum = 0.02375 (at node 12)
Accepted flit rate average= 0.0204375
	minimum = 0.0145 (at node 4)
	maximum = 0.02375 (at node 3)
Injected packet length average = 1
Accepted packet length average = 1
Total in-flight flits = 10 (10 measured)
latency change    = 0.017388
throughput change = 0.00611621
Draining all recorded packets ...
Draining remaining packets ...
Time taken is 7055 cycles
Class 0:
Packet latency average = 18.719
	minimum = 7
	maximum = 47
Network latency average = 18.719
	minimum = 7
	maximum = 47
Slowest packet = 224211
Flit latency average = 18.719
	minimum = 7
	maximum = 47
Slowest flit = 224211
Fragmentation average = 0
	minimum = 0
	maximum = 0
Injected packet rate average = 0.0196875
	minimum = 0.015 (at node 7)
	maximum = 0.026 (at node 15)
Accepted packet rate average = 0.019125
	minimum = 0.014 (at node 12)
	maximum = 0.026 (at node 15)
Injected flit rate average = 0.0196875
	minimum = 0.015 (at node 7)
	maximum = 0.026 (at node 15)
Accepted flit rate average= 0.019125
	minimum = 0.014 (at node 12)
	maximum = 0.026 (at node 15)
Injected packet length average = 1
Accepted packet length average = 1
Total in-flight flits = 9 (0 measured)
latency change    = 1
throughput change = 1
Class 0:
Packet latency average = 19.8574
	minimum = 7
	maximum = 56
Network latency average = 19.8574
	minimum = 7
	maximum = 56
Slowest packet = 224406
Flit latency average = 19.8574
	minimum = 7
	maximum = 56
Slowest flit = 224406
Fragmentation average = 0
	minimum = 0
	maximum = 0
Injected packet rate average = 0.0195938
	minimum = 0.0165 (at node 3)
	maximum = 0.023 (at node 12)
Accepted packet rate average = 0.0195
	minimum = 0.016 (at node 13)
	maximum = 0.023 (at node 3)
Injected flit rate average = 0.0195938
	minimum = 0.0165 (at node 3)
	maximum = 0.023 (at node 12)
Accepted flit rate average= 0.0195
	minimum = 0.016 (at node 13)
	maximum = 0.023 (at node 3)
Injected packet length average = 1
Accepted packet length average = 1
Total in-flight flits = 3 (0 measured)
latency change    = 0.0573297
throughput change = 0.0192308
Class 0:
Packet latency average = 19.0503
	minimum = 7
	maximum = 46
Network latency average = 19.0503
	minimum = 7
	maximum = 46
Slowest packet = 224907
Flit latency average = 19.0503
	minimum = 7
	maximum = 46
Slowest flit = 224907
Fragmentation average = 0
	minimum = 0
	maximum = 0
Injected packet rate average = 0.0199375
	minimum = 0.013 (at node 4)
	maximum = 0.037 (at node 11)
Accepted packet rate average = 0.019875
	minimum = 0.013 (at node 1)
	maximum = 0.037 (at node 14)
Injected flit rate average = 0.0199375
	minimum = 0.013 (at node 4)
	maximum = 0.037 (at node 11)
Accepted flit rate average= 0.019875
	minimum = 0.013 (at node 1)
	maximum = 0.037 (at node 14)
Injected packet length average = 1
Accepted packet length average = 1
Total in-flight flits = 4 (0 measured)
latency change    = 0.0423645
throughput change = 0.0188679
Warmed up ...Time used is 3000 cycles
Class 0:
Packet latency average = 20.4982
	minimum = 7
	maximum = 47
Network latency average = 20.4982
	minimum = 7
	maximum = 47
Slowest packet = 225098
Flit latency average = 20.5156
	minimum = 7
	maximum = 56
Slowest flit = 224975
Fragmentation average = 0
	minimum = 0
	maximum = 0
Injected packet rate average = 0.0180625
	minimum = 0.011 (at node 9)
	maximum = 0.023 (at node 3)
Accepted packet rate average = 0.0180625
	minimum = 0.011 (at node 6)
	maximum = 0.024 (at node 12)
Injected flit rate average = 0.0180625
	minimum = 0.011 (at node 9)
	maximum = 0.023 (at node 3)
Accepted flit rate average= 0.0180625
	minimum = 0.011 (at node 6)
	maximum = 0.024 (at node 12)
Injected packet length average = 1
Accepted packet length average = 1
Total in-flight flits = 4 (4 measured)
latency change    = 0.0706368
throughput change = 0.100346
Class 0:
Packet latency average = 20.226
	minimum = 7
	maximum = 47
Network latency average = 20.226
	minimum = 7
	maximum = 47
Slowest packet = 225098
Flit latency average = 20.2364
	minimum = 7
	maximum = 56
Slowest flit = 224975
Fragmentation average = 0
	minimum = 0
	maximum = 0
Injected packet rate average = 0.0185312
	minimum = 0.0145 (at node 9)
	maximum = 0.026 (at node 12)
Accepted packet rate average = 0.018375
	minimum = 0.0145 (at node 6)
	maximum = 0.0245 (at node 3)
Injected flit rate average = 0.0185312
	minimum = 0.0145 (at node 9)
	maximum = 0.026 (at node 12)
Accepted flit rate average= 0.018375
	minimum = 0.0145 (at node 6)
	maximum = 0.0245 (at node 3)
Injected packet length average = 1
Accepted packet length average = 1
Total in-flight flits = 9 (9 measured)
latency change    = 0.0134588
throughput change = 0.0170068
Class 0:
Packet latency average = 19.7282
	minimum = 7
	maximum = 47
Network latency average = 19.7282
	minimum = 7
	maximum = 47
Slowest packet = 225098
Flit latency average = 19.7368
	minimum = 7
	maximum = 56
Slowest flit = 224975
Fragmentation average = 0
	minimum = 0
	maximum = 0
Injected packet rate average = 0.0194167
	minimum = 0.0156667 (at node 9)
	maximum = 0.0233333 (at node 15)
Accepted packet rate average = 0.0193958
	minimum = 0.0156667 (at node 6)
	maximum = 0.0233333 (at node 15)
Injected flit rate average = 0.0194167
	minimum = 0.0156667 (at node 9)
	maximum = 0.0233333 (at node 15)
Accepted flit rate average= 0.0193958
	minimum = 0.0156667 (at node 6)
	maximum = 0.0233333 (at node 15)
Injected packet length average = 1
Accepted packet length average = 1
Total in-flight flits = 5 (5 measured)
latency change    = 0.0252366
throughput change = 0.0526316
Class 0:
Packet latency average = 19.5958
	minimum = 7
	maximum = 52
Network latency average = 19.5958
	minimum = 7
	maximum = 52
Slowest packet = 225969
Flit latency average = 19.6027
	minimum = 7
	maximum = 56
Slowest flit = 224975
Fragmentation average = 0
	minimum = 0
	maximum = 0
Injected packet rate average = 0.0194219
	minimum = 0.0165 (at node 9)
	maximum = 0.024 (at node 12)
Accepted packet rate average = 0.0193906
	minimum = 0.0165 (at node 7)
	maximum = 0.02325 (at node 3)
Injected flit rate average = 0.0194219
	minimum = 0.0165 (at node 9)
	maximum = 0.024 (at node 12)
Accepted flit rate average= 0.0193906
	minimum = 0.0165 (at node 7)
	maximum = 0.02325 (at node 3)
Injected packet length average = 1
Accepted packet length average = 1
Total in-flight flits = 6 (6 measured)
latency change    = 0.00675446
throughput change = 0.000268601
Class 0:
Packet latency average = 19.726
	minimum = 7
	maximum = 52
Network latency average = 19.726
	minimum = 7
	maximum = 52
Slowest packet = 225969
Flit latency average = 19.7312
	minimum = 7
	maximum = 56
Slowest flit = 224975
Fragmentation average = 0
	minimum = 0
	maximum = 0
Injected packet rate average = 0.0193
	minimum = 0.0158 (at node 9)
	maximum = 0.023 (at node 15)
Accepted packet rate average = 0.0193
	minimum = 0.016 (at node 6)
	maximum = 0.023 (at node 15)
Injected flit rate average = 0.0193
	minimum = 0.0158 (at node 9)
	maximum = 0.023 (at node 15)
Accepted flit rate average= 0.0193
	minimum = 0.016 (at node 6)
	maximum = 0.023 (at node 15)
Injected packet length average = 1
Accepted packet length average = 1
Total in-flight flits = 4 (4 measured)
latency change    = 0.00659931
throughput change = 0.0046956
Class 0:
Packet latency average = 19.6911
	minimum = 7
	maximum = 52
Network latency average = 19.6911
	minimum = 7
	maximum = 52
Slowest packet = 225969
Flit latency average = 19.6956
	minimum = 7
	maximum = 56
Slowest flit = 224975
Fragmentation average = 0
	minimum = 0
	maximum = 0
Injected packet rate average = 0.0193333
	minimum = 0.0166667 (at node 13)
	maximum = 0.0228333 (at node 15)
Accepted packet rate average = 0.0193333
	minimum = 0.0166667 (at node 7)
	maximum = 0.0228333 (at node 15)
Injected flit rate average = 0.0193333
	minimum = 0.0166667 (at node 13)
	maximum = 0.0228333 (at node 15)
Accepted flit rate average= 0.0193333
	minimum = 0.0166667 (at node 7)
	maximum = 0.0228333 (at node 15)
Injected packet length average = 1
Accepted packet length average = 1
Total in-flight flits = 4 (4 measured)
latency change    = 0.00176878
throughput change = 0.00172414
Draining all recorded packets ...
Draining remaining packets ...
Time taken is 9048 cycles
====== Overall Traffic Statistics ======
====== Traffic class 0 ======
Packet latency average = 19.8034 (100 samples)
	minimum = 7 (100 samples)
	maximum = 54.55 (100 samples)
Network latency average = 19.8034 (100 samples)
	minimum = 7 (100 samples)
	maximum = 54.55 (100 samples)
Flit latency average = 19.832 (100 samples)
	minimum = 7 (100 samples)
	maximum = 54.73 (100 samples)
Fragmentation average = 0 (100 samples)
	minimum = 0 (100 samples)
	maximum = 0 (100 samples)
Injected packet rate average = 0.0200695 (100 samples)
	minimum = 0.0162283 (100 samples)
	maximum = 0.0239809 (100 samples)
Accepted packet rate average = 0.0200743 (100 samples)
	minimum = 0.0162311 (100 samples)
	maximum = 0.0239749 (100 samples)
Injected flit rate average = 0.0200695 (100 samples)
	minimum = 0.0162283 (100 samples)
	maximum = 0.0239809 (100 samples)
Accepted flit rate average = 0.0200743 (100 samples)
	minimum = 0.0162311 (100 samples)
	maximum = 0.0239749 (100 samples)
Injected packet size average = 1 (100 samples)
Accepted packet size average = 1 (100 samples)
Hops average = 3.50003 (100 samples)
Total run time 16.0084
