BEGIN Configuration File: /tmp/tmpc5y9_9oy.cfg
topology = mesh;
k = 4;
n = 2;
routing_function = adaptive_xy_yx;
num_vcs = 4;
vc_buf_size = 4;
wait_for_tail_credit = 1;
vc_allocator = islip;
sw_allocator = islip;
alloc_iters = 1;
credit_delay = 2;
routing_delay = 1;
vc_alloc_delay = 1;
sw_alloc_delay = 1;
input_speedup = 2;
output_speedup = 1;
internal_speedup = 1.0;
traffic = hotspot;
packet_size = 1;
sim_type = latency;
injection_rate = 0.05;
warmup_periods = 3;
sample_period = 1000;
sim_count = 100;
seed = 3;

END Configuration File: /tmp/tmpc5y9_9oy.cfg
Class 0:
Packet latency average = 119.171
	minimum = 7
	maximum = 851
Network latency average = 94.8394
	minimum = 7
	maximum = 851
Slowest packet = 64
Flit latency average = 94.8394
	minimum = 7
	maximum = 851
Slowest flit = 64
Fragmentation average = 0
	minimum = 0
	maximum = 0
Injected packet rate average = 0.0360625
	minimum = 0.015 (at node 4)
	maximum = 0.057 (at node 15)
Accepted packet rate average = 0.03075
	minimum = 0 (at node 0)
	maximum = 0.492 (at node 11)
Injected flit rate average = 0.0360625
	minimum = 0.015 (at node 4)
	maximum = 0.057 (at node 15)
Accepted flit rate average= 0.03075
	minimum = 0 (at node 0)
	maximum = 0.492 (at node 11)
Injected packet length average = 1
Accepted packet length average = 1
Total in-flight flits = 94 (0 measured)
latency change    = 1
throughput change = 1
Class 0:
Packet latency average = 199.525
	minimum = 7
	maximum = 1736
Network latency average = 108.957
	minimum = 7
	maximum = 1660
Slowest packet = 153
Flit latency average = 108.957
	minimum = 7
	maximum = 1660
Slowest flit = 153
Fragmentation average = 0
	minimum = 0
	maximum = 0
Injected packet rate average = 0.0335
	minimum = 0.0095 (at node 1)
	maximum = 0.052 (at node 15)
Accepted packet rate average = 0.031
	minimum = 0 (at node 0)
	maximum = 0.496 (at node 11)
Injected flit rate average = 0.0335
	minimum = 0.0095 (at node 1)
	maximum = 0.052 (at node 15)
Accepted flit rate average= 0.031
	minimum = 0 (at node 0)
	maximum = 0.496 (at node 11)
Injected packet length average = 1
Accepted packet length average = 1
Total in-flight flits = 90 (0 measured)
latency change    = 0.402728
throughput change = 0.00806452
Class 0:
Packet latency average = 425.14
	minimum = 7
	maximum = 2726
Network latency average = 144.744
	minimum = 7
	maximum = 2222
Slowest packet = 103
Flit latency average = 144.744
	minimum = 7
	maximum = 2222
Slowest flit = 377
Fragmentation average = 0
	minimum = 0
	maximum = 0
Injected packet rate average = 0.0310625
	minimum = 0 (at node 0)
	maximum = 0.069 (at node 7)
Accepted packet rate average = 0.03125
	minimum = 0 (at node 0)
	maximum = 0.5 (at node 11)
Injected flit rate average = 0.0310625
	minimum = 0 (at node 0)
	maximum = 0.069 (at node 7)
Accepted flit rate average= 0.03125
	minimum = 0 (at node 0)
	maximum = 0.5 (at node 11)
Injected packet length average = 1
Accepted packet length average = 1
Total in-flight flits = 87 (0 measured)
latency change    = 0.530684
throughput change = 0.008
Average latency for class 0 exceeded 500 cycles. Aborting simulation.
Too many sample periods needed to converge
Simulation unstable, ending ...
Total run time 0.110145
