BEGIN Configuration File: /tmp/tmppq27737z.cfg
topology = mesh;
k = 4;
n = 2;
routing_function = romm;
num_vcs = 4;
vc_buf_size = 4;
wait_for_tail_credit = 1;
vc_allocator = islip;
sw_allocator = islip;
alloc_iters = 1;
credit_delay = 2;
routing_delay = 1;
vc_alloc_delay = 1;
sw_alloc_delay = 1;
input_speedup = 2;
output_speedup = 1;
internal_speedup = 1.0;
traffic = transpose;
packet_size = 1;
sim_type = latency;
injection_rate = 0.02;
warmup_periods = 3;
sample_period = 1000;
sim_count = 100;
seed = 3;

END Configuration File: /tmp/tmppq27737z.cfg
Class 0:
Packet latency average = 19.3082
	minimum = 7
	maximum = 41
Network latency average = 19.3082
	minimum = 7
	maximum = 41
Slowest packet = 108
Flit latency average = 19.3082
	minimum = 7
	maximum = 41
Slowest flit = 108
Fragmentation average = 0
	minimum = 0
	maximum = 0
Injected packet rate average = 0.0194375
	minimum = 0.011 (at node 12)
	maximum = 0.032 (at node 13)
Accepted packet rate average = 0.0190625
	minimum = 0.01 (at node 3)
	maximum = 0.03 (at node 7)
Injected flit rate average = 0.0194375
	minimum = 0.011 (at node 12)
	maximum = 0.032 (at node 13)
Accepted flit rate average= 0.0190625
	minimum = 0.01 (at node 3)
	maximum = 0.03 (at node 7)
Injected packet length average = 1
Accepted packet length average = 1
Total in-flight flits = 6 (0 measured)
latency change    = 1
throughput change = 1
Class 0:
Packet latency average = 19.0381
	minimum = 7
	maximum = 41
Network latency average = 19.0381
	minimum = 7
	maximum = 41
Slowest packet = 108
Flit latency average = 19.0381
	minimum = 7
	maximum = 41
Slowest flit = 108
Fragmentation average = 0
	minimum = 0
	maximum = 0
Injected packet rate average = 0.019
	minimum = 0.014 (at node 12)
	maximum = 0.025 (at node 11)
Accepted packet rate average = 0.0188437
	minimum = 0.014 (at node 3)
	maximum = 0.0245 (at node 14)
Injected flit rate average = 0.019
	minimum = 0.014 (at node 12)
	maximum = 0.025 (at node 11)
Accepted flit rate average= 0.0188437
	minimum = 0.014 (at node 3)
	maximum = 0.0245 (at node 14)
Injected packet length average = 1
Accepted packet length average = 1
Total in-flight flits = 5 (0 measured)
latency change    = 0.0141849
throughput change = 0.0116086
Class 0:
Packet latency average = 20.4777
	minimum = 7
	maximum = 46
Network latency average = 20.4777
	minimum = 7
	maximum = 46
Slowest packet = 658
Flit latency average = 20.4777
	minimum = 7
	maximum = 46
Slowest flit = 658
Fragmentation average = 0
	minimum = 0
	maximum = 0
Injected packet rate average = 0.019625
	minimum = 0.013 (at node 9)
	maximum = 0.027 (at node 12)
Accepted packet rate average = 0.019625
	minimum = 0.013 (at node 6)
	maximum = 0.026 (at node 3)
Injected flit rate average = 0.019625
	minimum = 0.013 (at node 9)
	maximum = 0.027 (at node 12)
Accepted flit rate average= 0.019625
	minimum = 0.013 (at node 6)
	maximum = 0.026 (at node 3)
Injected packet length average = 1
Accepted packet length average = 1
Total in-flight flits = 5 (0 measured)
latency change    = 0.0702991
throughput change = 0.0398089
Warmed up ...Time used is 3000 cycles
Class 0:
Packet latency average = 19.6814
	minimum = 7
	maximum = 37
Network latency average = 19.6814
	minimum = 7
	maximum = 37
Slowest packet = 929
Flit latency average = 19.8033
	minimum = 7
	maximum = 37
Slowest flit = 914
Fragmentation average = 0
	minimum = 0
	maximum = 0
Injected packet rate average = 0.018875
	minimum = 0.01 (at node 2)
	maximum = 0.027 (at node 8)
Accepted packet rate average = 0.01875
	minimum = 0.01 (at node 8)
	maximum = 0.028 (at node 2)
Injected flit rate average = 0.018875
	minimum = 0.01 (at node 2)
	maximum = 0.027 (at node 8)
Accepted flit rate average= 0.01875
	minimum = 0.01 (at node 8)
	maximum = 0.028 (at node 2)
Injected packet length average = 1
Accepted packet length average = 1
Total in-flight flits = 7 (7 measured)
latency change    = 0.0404622
throughput change = 0.0466667
Class 0:
Packet latency average = 19.5662
	minimum = 7
	maximum = 44
Network latency average = 19.5662
	minimum = 7
	maximum = 44
Slowest packet = 1549
Flit latency average = 19.6224
	minimum = 7
	maximum = 44
Slowest flit = 1549
Fragmentation average = 0
	minimum = 0
	maximum = 0
Injected packet rate average = 0.0207188
	minimum = 0.0155 (at node 2)
	maximum = 0.025 (at node 10)
Accepted packet rate average = 0.0206875
	minimum = 0.0155 (at node 8)
	maximum = 0.025 (at node 10)
Injected flit rate average = 0.0207188
	minimum = 0.0155 (at node 2)
	maximum = 0.025 (at node 10)
Accepted flit rate average= 0.0206875
	minimum = 0.0155 (at node 8)
	maximum = 0.025 (at node 10)
Injected packet length average = 1
Accepted packet length average = 1
Total in-flight flits = 6 (6 measured)
latency change    = 0.00588494
throughput change = 0.0936556
Class 0:
Packet latency average = 19.5528
	minimum = 7
	maximum = 44
Network latency average = 19.5528
	minimum = 7
	maximum = 44
Slowest packet = 1549
Flit latency average = 19.5905
	minimum = 7
	maximum = 44
Slowest flit = 1549
Fragmentation average = 0
	minimum = 0
	maximum = 0
Injected packet rate average = 0.0208125
	minimum = 0.015 (at node 2)
	maximum = 0.0246667 (at node 9)
Accepted packet rate average = 0.0206042
	minimum = 0.015 (at node 8)
	maximum = 0.0243333 (at node 6)
Injected flit rate average = 0.0208125
	minimum = 0.015 (at node 2)
	maximum = 0.0246667 (at node 9)
Accepted flit rate average= 0.0206042
	minimum = 0.015 (at node 8)
	maximum = 0.0243333 (at node 6)
Injected packet length average = 1
Accepted packet length average = 1
Total in-flight flits = 15 (15 measured)
latency change    = 0.000683508
throughput change = 0.00404449
Class 0:
Packet latency average = 19.3308
	minimum = 7
	maximum = 44
Network latency average = 19.3308
	minimum = 7
	maximum = 44
Slowest packet = 1549
Flit latency average = 19.3601
	minimum = 7
	maximum = 44
Slowest flit = 1549
Fragmentation average = 0
	minimum = 0
	maximum = 0
Injected packet rate average = 0.0204531
	minimum = 0.01625 (at node 3)
	maximum = 0.02375 (at node 10)
Accepted packet rate average = 0.0204375
	minimum = 0.0165 (at node 12)
	maximum = 0.02375 (at node 10)
Injected flit rate average = 0.0204531
	minimum = 0.01625 (at node 3)
	maximum = 0.02375 (at node 10)
Accepted flit rate average= 0.0204375
	minimum = 0.0165 (at node 12)
	maximum = 0.02375 (at node 10)
Injected packet length average = 1
Accepted packet length average = 1
Total in-flight flits = 6 (6 measured)
latency change    = 0.0114879
throughput change = 0.00815494
Class 0:
Packet latency average = 19.1536
	minimum = 7
	maximum = 44
Network latency average = 19.1536
	minimum = 7
	maximum = 44
Slowest packet = 1549
Flit latency average = 19.1774
	minimum = 7
	maximum = 44
Slowest flit = 1549
Fragmentation average = 0
	minimum = 0
	maximum = 0
Injected packet rate average = 0.020575
	minimum = 0.0166 (at node 3)
	maximum = 0.0234 (at node 5)
Accepted packet rate average = 0.020575
	minimum = 0.0166 (at node 12)
	maximum = 0.0234 (at node 5)
Injected flit rate average = 0.020575
	minimum = 0.0166 (at node 3)
	maximum = 0.0234 (at node 5)
Accepted flit rate average= 0.020575
	minimum = 0.0166 (at node 12)
	maximum = 0.0234 (at node 5)
Injected packet length average = 1
Accepted packet length average = 1
Total in-flight flits = 5 (5 measured)
latency change    = 0.00925208
throughput change = 0.00668287
Draining all recorded packets ...
Draining remaining packets ...
Time taken is 8044 cycles
Class 0:
Packet latency average = 19.5739
	minimum = 7
	maximum = 47
Network latency average = 19.5739
	minimum = 7
	maximum = 47
Slowest packet = 2830
Flit latency average = 19.5739
	minimum = 7
	maximum = 47
Slowest flit = 2830
Fragmentation average = 0
	minimum = 0
	maximum = 0
Injected packet rate average = 0.022375
	minimum = 0.01 (at node 8)
	maximum = 0.029 (at node 6)
Accepted packet rate average = 0.022
	minimum = 0.01 (at node 2)
	maximum = 0.029 (at node 9)
Injected flit rate average = 0.022375
	minimum = 0.01 (at node 8)
	maximum = 0.029 (at node 6)
Accepted flit rate average= 0.022
	minimum = 0.01 (at node 2)
	maximum = 0.029 (at node 9)
Injected packet length average = 1
Accepted packet length average = 1
Total in-flight flits = 6 (0 measured)
latency change    = 1
throughput change = 1
Class 0:
Packet latency average = 19.4381
	minimum = 7
	maximum = 47
Network latency average = 19.4381
	minimum = 7
	maximum = 47
Slowest packet = 2830
Flit latency average = 19.4381
	minimum = 7
	maximum = 47
Slowest flit = 2830
Fragmentation average = 0
	minimum = 0
	maximum = 0
Injected packet rate average = 0.0214375
	minimum = 0.013 (at node 8)
	maximum = 0.024 (at node 2)
Accepted packet rate average = 0.0211875
	minimum = 0.013 (at node 2)
	maximum = 0.0235 (at node 1)
Injected flit rate average = 0.0214375
	minimum = 0.013 (at node 8)
	maximum = 0.024 (at node 2)
Accepted flit rate average= 0.0211875
	minimum = 0.013 (at node 2)
	maximum = 0.0235 (at node 1)
Injected packet length average = 1
Accepted packet length average = 1
Total in-flight flits = 8 (0 measured)
latency change    = 0.00698684
throughput change = 0.0383481
Class 0:
Packet latency average = 19.6553
	minimum = 7
	maximum = 42
Network latency average = 19.6553
	minimum = 7
	maximum = 42
Slowest packet = 3308
Flit latency average = 19.6553
	minimum = 7
	maximum = 42
Slowest flit = 3308
Fragmentation average = 0
	minimum = 0
	maximum = 0
Injected packet rate average = 0.019875
	minimum = 0.013 (at node 1)
	maximum = 0.028 (at node 14)
Accepted packet rate average = 0.020125
	minimum = 0.013 (at node 4)
	maximum = 0.026 (at node 11)
Injected flit rate average = 0.019875
	minimum = 0.013 (at node 1)
	maximum = 0.028 (at node 14)
Accepted flit rate average= 0.020125
	minimum = 0.013 (at node 4)
	maximum = 0.026 (at node 11)
Injected packet length average = 1
Accepted packet length average = 1
Total in-flight flits = 4 (0 measured)
latency change    = 0.0110518
throughput change = 0.052795
Warmed up ...Time used is 3000 cycles
Class 0:
Packet latency average = 19.2215
	minimum = 7
	maximum = 42
Network latency average = 19.2215
	minimum = 7
	maximum = 42
Slowest packet = 3577
Flit latency average = 19.2594
	minimum = 7
	maximum = 42
Slowest flit = 3577
Fragmentation average = 0
	minimum = 0
	maximum = 0
Injected packet rate average = 0.0181875
	minimum = 0.014 (at node 2)
	maximum = 0.026 (at node 1)
Accepted packet rate average = 0.0183125
	minimum = 0.014 (at node 7)
	maximum = 0.026 (at node 4)
Injected flit rate average = 0.0181875
	minimum = 0.014 (at node 2)
	maximum = 0.026 (at node 1)
Accepted flit rate average= 0.0183125
	minimum = 0.014 (at node 7)
	maximum = 0.026 (at node 4)
Injected packet length average = 1
Accepted packet length average = 1
Total in-flight flits = 2 (2 measured)
latency change    = 0.0225699
throughput change = 0.0989761
Class 0:
Packet latency average = 19.9373
	minimum = 7
	maximum = 46
Network latency average = 19.9373
	minimum = 7
	maximum = 46
Slowest packet = 4139
Flit latency average = 19.9505
	minimum = 7
	maximum = 46
Slowest flit = 4139
Fragmentation average = 0
	minimum = 0
	maximum = 0
Injected packet rate average = 0.0195312
	minimum = 0.015 (at node 14)
	maximum = 0.0265 (at node 1)
Accepted packet rate average = 0.0195625
	minimum = 0.015 (at node 15)
	maximum = 0.0265 (at node 4)
Injected flit rate average = 0.0195312
	minimum = 0.015 (at node 14)
	maximum = 0.0265 (at node 1)
Accepted flit rate average= 0.0195625
	minimum = 0.015 (at node 15)
	maximum = 0.0265 (at node 4)
Injected packet length average = 1
Accepted packet length average = 1
Total in-flight flits = 3 (3 measured)
latency change    = 0.0359049
throughput change = 0.0638978
Class 0:
Packet latency average = 19.787
	minimum = 7
	maximum = 46
Network latency average = 19.787
	minimum = 7
	maximum = 46
Slowest packet = 4139
Flit latency average = 19.7961
	minimum = 7
	maximum = 46
Slowest flit = 4139
Fragmentation average = 0
	minimum = 0
	maximum = 0
Injected packet rate average = 0.02025
	minimum = 0.017 (at node 10)
	maximum = 0.0246667 (at node 1)
Accepted packet rate average = 0.0202292
	minimum = 0.017 (at node 7)
	maximum = 0.0246667 (at node 4)
Injected flit rate average = 0.02025
	minimum = 0.017 (at node 10)
	maximum = 0.0246667 (at node 1)
Accepted flit rate average= 0.0202292
	minimum = 0.017 (at node 7)
	maximum = 0.0246667 (at node 4)
Injected packet length average = 1
Accepted packet length average = 1
Total in-flight flits = 5 (5 measured)
latency change    = 0.00759737
throughput change = 0.0329557
Class 0:
Packet latency average = 19.8271
	minimum = 7
	maximum = 46
Network latency average = 19.8271
	minimum = 7
	maximum = 46
Slowest packet = 4139
Flit latency average = 19.8339
	minimum = 7
	maximum = 46
Slowest flit = 4139
Fragmentation average = 0
	minimum = 0
	maximum = 0
Injected packet rate average = 0.0200781
	minimum = 0.01575 (at node 13)
	maximum = 0.02475 (at node 5)
Accepted packet rate average = 0.0200313
	minimum = 0.01575 (at node 7)
	maximum = 0.0245 (at node 5)
Injected flit rate average = 0.0200781
	minimum = 0.01575 (at node 13)
	maximum = 0.02475 (at node 5)
Accepted flit rate average= 0.0200313
	minimum = 0.01575 (at node 7)
	maximum = 0.0245 (at node 5)
Injected packet length average = 1
Accepted packet length average = 1
Total in-flight flits = 7 (7 measured)
latency change    = 0.00202267
throughput change = 0.0098804
Class 0:
Packet latency average = 19.7607
	minimum = 7
	maximum = 46
Network latency average = 19.7607
	minimum = 7
	maximum = 46
Slowest packet = 4139
Flit latency average = 19.7662
	minimum = 7
	maximum = 46
Slowest flit = 4139
Fragmentation average = 0
	minimum = 0
	maximum = 0
Injected packet rate average = 0.0200625
	minimum = 0.017 (at node 11)
	maximum = 0.024 (at node 1)
Accepted packet rate average = 0.02
	minimum = 0.017 (at node 14)
	maximum = 0.024 (at node 4)
Injected flit rate average = 0.0200625
	minimum = 0.017 (at node 11)
	maximum = 0.024 (at node 1)
Accepted flit rate average= 0.02
	minimum = 0.017 (at node 14)
	maximum = 0.024 (at node 4)
Injected packet length average = 1
Accepted packet length average = 1
Total in-flight flits = 9 (9 measured)
latency change    = 0.00336132
throughput change = 0.0015625
Draining all recorded packets ...
Draining remaining packets ...
Time taken is 8061 cycles
Class 0:
Packet latency average = 19.9943
	minimum = 7
	maximum = 49
Network latency average = 19.9943
	minimum = 7
	maximum = 49
Slowest packet = 5453
Flit latency average = 19.9943
	minimum = 7
	maximum = 49
Slowest flit = 5453
Fragmentation average = 0
	minimum = 0
	maximum = 0
Injected packet rate average = 0.0221875
	minimum = 0.013 (at node 5)
	maximum = 0.03 (at node 11)
Accepted packet rate average = 0.0218125
	minimum = 0.013 (at node 5)
	maximum = 0.029 (at node 14)
Injected flit rate average = 0.0221875
	minimum = 0.013 (at node 5)
	maximum = 0.03 (at node 11)
Accepted flit rate average= 0.0218125
	minimum = 0.013 (at node 5)
	maximum = 0.029 (at node 14)
Injected packet length average = 1
Accepted packet length average = 1
Total in-flight flits = 6 (0 measured)
latency change    = 1
throughput change = 1
Class 0:
Packet latency average = 20.0944
	minimum = 7
	maximum = 55
Network latency average = 20.0944
	minimum = 7
	maximum = 55
Slowest packet = 5643
Flit latency average = 20.0944
	minimum = 7
	maximum = 55
Slowest flit = 5643
Fragmentation average = 0
	minimum = 0
	maximum = 0
Injected packet rate average = 0.02075
	minimum = 0.0145 (at node 5)
	maximum = 0.0285 (at node 11)
Accepted packet rate average = 0.0205313
	minimum = 0.0145 (at node 5)
	maximum = 0.0285 (at node 14)
Injected flit rate average = 0.02075
	minimum = 0.0145 (at node 5)
	maximum = 0.0285 (at node 11)
Accepted flit rate average= 0.0205313
	minimum = 0.0145 (at node 5)
	maximum = 0.0285 (at node 14)
Injected packet length average = 1
Accepted packet length average = 1
Total in-flight flits = 7 (0 measured)
latency change    = 0.00498145
throughput change = 0.0624049
Class 0:
Packet latency average = 19.5252
	minimum = 7
	maximum = 37
Network latency average = 19.5252
	minimum = 7
	maximum = 37
Slowest packet = 5837
Flit latency average = 19.5252
	minimum = 7
	maximum = 37
Slowest flit = 5837
Fragmentation average = 0
	minimum = 0
	maximum = 0
Injected packet rate average = 0.021
	minimum = 0.014 (at node 9)
	maximum = 0.027 (at node 3)
Accepted packet rate average = 0.0210625
	minimum = 0.014 (at node 6)
	maximum = 0.026 (at node 1)
Injected flit rate average = 0.021
	minimum = 0.014 (at node 9)
	maximum = 0.027 (at node 3)
Accepted flit rate average= 0.0210625
	minimum = 0.014 (at node 6)
	maximum = 0.026 (at node 1)
Injected packet length average = 1
Accepted packet length average = 1
Total in-flight flits = 6 (0 measured)
latency change    = 0.0291493
throughput change = 0.0252226
Warmed up ...Time used is 3000 cycles
Class 0:
Packet latency average = 19.2182
	minimum = 7
	maximum = 37
Network latency average = 19.2182
	minimum = 7
	maximum = 37
Slowest packet = 6192
Flit latency average = 19.4494
	minimum = 7
	maximum = 37
Slowest flit = 6177
Fragmentation average = 0
	minimum = 0
	maximum = 0
Injected packet rate average = 0.020875
	minimum = 0.015 (at node 1)
	maximum = 0.032 (at node 5)
Accepted packet rate average = 0.021
	minimum = 0.014 (at node 1)
	maximum = 0.032 (at node 5)
Injected flit rate average = 0.020875
	minimum = 0.015 (at node 1)
	maximum = 0.032 (at node 5)
Accepted flit rate average= 0.021
	minimum = 0.014 (at node 1)
	maximum = 0.032 (at node 5)
Injected packet length average = 1
Accepted packet length average = 1
Total in-flight flits = 4 (4 measured)
latency change    = 0.0159766
throughput change = 0.00297619
Class 0:
Packet latency average = 19.7958
	minimum = 7
	maximum = 39
Network latency average = 19.7958
	minimum = 7
	maximum = 39
Slowest packet = 6805
Flit latency average = 19.9062
	minimum = 7
	maximum = 39
Slowest flit = 6805
Fragmentation average = 0
	minimum = 0
	maximum = 0
Injected packet rate average = 0.021
	minimum = 0.017 (at node 15)
	maximum = 0.0255 (at node 5)
Accepted packet rate average = 0.021
	minimum = 0.0165 (at node 15)
	maximum = 0.026 (at node 7)
Injected flit rate average = 0.021
	minimum = 0.017 (at node 15)
	maximum = 0.0255 (at node 5)
Accepted flit rate average= 0.021
	minimum = 0.0165 (at node 15)
	maximum = 0.026 (at node 7)
Injected packet length average = 1
Accepted packet length average = 1
Total in-flight flits = 6 (6 measured)
latency change    = 0.0291786
throughput change = 0
Class 0:
Packet latency average = 19.6406
	minimum = 7
	maximum = 41
Network latency average = 19.6406
	minimum = 7
	maximum = 41
Slowest packet = 7088
Flit latency average = 19.7156
	minimum = 7
	maximum = 41
Slowest flit = 7088
Fragmentation average = 0
	minimum = 0
	maximum = 0
Injected packet rate average = 0.0208333
	minimum = 0.0183333 (at node 2)
	maximum = 0.0243333 (at node 5)
Accepted packet rate average = 0.020875
	minimum = 0.0183333 (at node 13)
	maximum = 0.0246667 (at node 3)
Injected flit rate average = 0.0208333
	minimum = 0.0183333 (at node 2)
	maximum = 0.0243333 (at node 5)
Accepted flit rate average= 0.020875
	minimum = 0.0183333 (at node 13)
	maximum = 0.0246667 (at node 3)
Injected packet length average = 1
Accepted packet length average = 1
Total in-flight flits = 4 (4 measured)
latency change    = 0.00790372
throughput change = 0.00598802
Draining all recorded packets ...
Draining remaining packets ...
Time taken is 6035 cycles
Class 0:
Packet latency average = 19.4092
	minimum = 7
	maximum = 38
Network latency average = 19.4092
	minimum = 7
	maximum = 38
Slowest packet = 7282
Flit latency average = 19.4092
	minimum = 7
	maximum = 38
Slowest flit = 7282
Fragmentation average = 0
	minimum = 0
	maximum = 0
Injected packet rate average = 0.020625
	minimum = 0.014 (at node 7)
	maximum = 0.027 (at node 9)
Accepted packet rate average = 0.0203125
	minimum = 0.013 (at node 13)
	maximum = 0.027 (at node 6)
Injected flit rate average = 0.020625
	minimum = 0.014 (at node 7)
	maximum = 0.027 (at node 9)
Accepted flit rate average= 0.0203125
	minimum = 0.013 (at node 13)
	maximum = 0.027 (at node 6)
Injected packet length average = 1
Accepted packet length average = 1
Total in-flight flits = 5 (0 measured)
latency change    = 1
throughput change = 1
Class 0:
Packet latency average = 19.5221
	minimum = 7
	maximum = 38
Network latency average = 19.5221
	minimum = 7
	maximum = 38
Slowest packet = 7282
Flit latency average = 19.5221
	minimum = 7
	maximum = 38
Slowest flit = 7282
Fragmentation average = 0
	minimum = 0
	maximum = 0
Injected packet rate average = 0.0206875
	minimum = 0.0145 (at node 7)
	maximum = 0.03 (at node 2)
Accepted packet rate average = 0.0205313
	minimum = 0.0145 (at node 13)
	maximum = 0.029 (at node 8)
Injected flit rate average = 0.0206875
	minimum = 0.0145 (at node 7)
	maximum = 0.03 (at node 2)
Accepted flit rate average= 0.0205313
	minimum = 0.0145 (at node 13)
	maximum = 0.029 (at node 8)
Injected packet length average = 1
Accepted packet length average = 1
Total in-flight flits = 5 (0 measured)
latency change    = 0.00578009
throughput change = 0.0106545
Class 0:
Packet latency average = 20.4118
	minimum = 7
	maximum = 40
Network latency average = 20.4118
	minimum = 7
	maximum = 40
Slowest packet = 8018
Flit latency average = 20.4118
	minimum = 7
	maximum = 40
Slowest flit = 8018
Fragmentation average = 0
	minimum = 0
	maximum = 0
Injected packet rate average = 0.02
	minimum = 0.011 (at node 10)
	maximum = 0.025 (at node 9)
Accepted packet rate average = 0.0201875
	minimum = 0.011 (at node 10)
	maximum = 0.026 (at node 11)
Injected flit rate average = 0.02
	minimum = 0.011 (at node 10)
	maximum = 0.025 (at node 9)
Accepted flit rate average= 0.0201875
	minimum = 0.011 (at node 10)
	maximum = 0.026 (at node 11)
Injected packet length average = 1
Accepted packet length average = 1
Total in-flight flits = 2 (0 measured)
latency change    = 0.0435873
throughput change = 0.0170279
Warmed up ...Time used is 3000 cycles
Class 0:
Packet latency average = 19.822
	minimum = 7
	maximum = 38
Network latency average = 19.822
	minimum = 7
	maximum = 38
Slowest packet = 8347
Flit latency average = 19.8682
	minimum = 7
	maximum = 38
Slowest flit = 8347
Fragmentation average = 0
	minimum = 0
	maximum = 0
Injected packet rate average = 0.0196875
	minimum = 0.014 (at node 1)
	maximum = 0.023 (at node 3)
Accepted packet rate average = 0.0194375
	minimum = 0.014 (at node 4)
	maximum = 0.023 (at node 1)
Injected flit rate average = 0.0196875
	minimum = 0.014 (at node 1)
	maximum = 0.023 (at node 3)
Accepted flit rate average= 0.0194375
	minimum = 0.014 (at node 4)
	maximum = 0.023 (at node 1)
Injected packet length average = 1
Accepted packet length average = 1
Total in-flight flits = 6 (6 measured)
latency change    = 0.0297527
throughput change = 0.0385852
Class 0:
Packet latency average = 20.0361
	minimum = 7
	maximum = 41
Network latency average = 20.0361
	minimum = 7
	maximum = 41
Slowest packet = 8709
Flit latency average = 20.057
	minimum = 7
	maximum = 41
Slowest flit = 8709
Fragmentation average = 0
	minimum = 0
	maximum = 0
Injected packet rate average = 0.0209063
	minimum = 0.0145 (at node 1)
	maximum = 0.025 (at node 8)
Accepted packet rate average = 0.0208438
	minimum = 0.0145 (at node 4)
	maximum = 0.0245 (at node 2)
Injected flit rate average = 0.0209063
	minimum = 0.0145 (at node 1)
	maximum = 0.025 (at node 8)
Accepted flit rate average= 0.0208438
	minimum = 0.0145 (at node 4)
	maximum = 0.0245 (at node 2)
Injected packet length average = 1
Accepted packet length average = 1
Total in-flight flits = 4 (4 measured)
latency change    = 0.0106849
throughput change = 0.0674663
Class 0:
Packet latency average = 20
	minimum = 7
	maximum = 41
Network latency average = 20
	minimum = 7
	maximum = 41
Slowest packet = 8709
Flit latency average = 20.0142
	minimum = 7
	maximum = 41
Slowest flit = 8709
Fragmentation average = 0
	minimum = 0
	maximum = 0
Injected packet rate average = 0.0206875
	minimum = 0.0146667 (at node 1)
	maximum = 0.0236667 (at node 7)
Accepted packet rate average = 0.0205833
	minimum = 0.0146667 (at node 4)
	maximum = 0.0233333 (at node 7)
Injected flit rate average = 0.0206875
	minimum = 0.0146667 (at node 1)
	maximum = 0.0236667 (at node 7)
Accepted flit rate average= 0.0205833
	minimum = 0.0146667 (at node 4)
	maximum = 0.0233333 (at node 7)
Injected packet length average = 1
Accepted packet length average = 1
Total in-flight flits = 7 (7 measured)
latency change    = 0.00180451
throughput change = 0.0126518
Class 0:
Packet latency average = 19.951
	minimum = 7
	maximum = 41
Network latency average = 19.951
	minimum = 7
	maximum = 41
Slowest packet = 8709
Flit latency average = 19.962
	minimum = 7
	maximum = 41
Slowest flit = 8709
Fragmentation average = 0
	minimum = 0
	maximum = 0
Injected packet rate average = 0.0201875
	minimum = 0.015 (at node 1)
	maximum = 0.023 (at node 8)
Accepted packet rate average = 0.0201406
	minimum = 0.015 (at node 4)
	maximum = 0.0225 (at node 2)
Injected flit rate average = 0.0201875
	minimum = 0.015 (at node 1)
	maximum = 0.023 (at node 8)
Accepted flit rate average= 0.0201406
	minimum = 0.015 (at node 4)
	maximum = 0.0225 (at node 2)
Injected packet length average = 1
Accepted packet length average = 1
Total in-flight flits = 5 (5 measured)
latency change    = 0.00245356
throughput change = 0.0219809
Class 0:
Packet latency average = 19.5069
	minimum = 7
	maximum = 41
Network latency average = 19.5069
	minimum = 7
	maximum = 41
Slowest packet = 8709
Flit latency average = 19.5163
	minimum = 7
	maximum = 41
Slowest flit = 8709
Fragmentation average = 0
	minimum = 0
	maximum = 0
Injected packet rate average = 0.02005
	minimum = 0.018 (at node 1)
	maximum = 0.0222 (at node 6)
Accepted packet rate average = 0.019975
	minimum = 0.018 (at node 4)
	maximum = 0.0218 (at node 9)
Injected flit rate average = 0.02005
	minimum = 0.018 (at node 1)
	maximum = 0.0222 (at node 6)
Accepted flit rate average= 0.019975
	minimum = 0.018 (at node 4)
	maximum = 0.0218 (at node 9)
Injected packet length average = 1
Accepted packet length average = 1
Total in-flight flits = 8 (8 measured)
latency change    = 0.0227692
throughput change = 0.00829161
Draining all recorded packets ...
Draining remaining packets ...
Time taken is 8049 cycles
Class 0:
Packet latency average = 19.5483
	minimum = 7
	maximum = 38
Network latency average = 19.5483
	minimum = 7
	maximum = 38
Slowest packet = 9951
Flit latency average = 19.5483
	minimum = 7
	maximum = 38
Slowest flit = 9951
Fragmentation average = 0
	minimum = 0
	maximum = 0
Injected packet rate average = 0.020375
	minimum = 0.016 (at node 3)
	maximum = 0.025 (at node 12)
Accepted packet rate average = 0.0200625
	minimum = 0.016 (at node 11)
	maximum = 0.024 (at node 3)
Injected flit rate average = 0.020375
	minimum = 0.016 (at node 3)
	maximum = 0.025 (at node 12)
Accepted flit rate average= 0.0200625
	minimum = 0.016 (at node 11)
	maximum = 0.024 (at node 3)
Injected packet length average = 1
Accepted packet length average = 1
Total in-flight flits = 5 (0 measured)
latency change    = 1
throughput change = 1
Class 0:
Packet latency average = 19.7209
	minimum = 7
	maximum = 39
Network latency average = 19.7209
	minimum = 7
	maximum = 39
Slowest packet = 10320
Flit latency average = 19.7209
	minimum = 7
	maximum = 39
Slowest flit = 10320
Fragmentation average = 0
	minimum = 0
	maximum = 0
Injected packet rate average = 0.0197188
	minimum = 0.0155 (at node 3)
	maximum = 0.026 (at node 12)
Accepted packet rate average = 0.0195938
	minimum = 0.0155 (at node 12)
	maximum = 0.0255 (at node 3)
Injected flit rate average = 0.0197188
	minimum = 0.0155 (at node 3)
	maximum = 0.026 (at node 12)
Accepted flit rate average= 0.0195938
	minimum = 0.0155 (at node 12)
	maximum = 0.0255 (at node 3)
Injected packet length average = 1
Accepted packet length average = 1
Total in-flight flits = 4 (0 measured)
latency change    = 0.00875247
throughput change = 0.0239234
Class 0:
Packet latency average = 19.3574
	minimum = 7
	maximum = 40
Network latency average = 19.3574
	minimum = 7
	maximum = 40
Slowest packet = 10636
Flit latency average = 19.3574
	minimum = 7
	maximum = 40
Slowest flit = 10636
Fragmentation average = 0
	minimum = 0
	maximum = 0
Injected packet rate average = 0.019125
	minimum = 0.012 (at node 8)
	maximum = 0.025 (at node 5)
Accepted packet rate average = 0.0190625
	minimum = 0.012 (at node 2)
	maximum = 0.025 (at node 5)
Injected flit rate average = 0.019125
	minimum = 0.012 (at node 8)
	maximum = 0.025 (at node 5)
Accepted flit rate average= 0.0190625
	minimum = 0.012 (at node 2)
	maximum = 0.025 (at node 5)
Injected packet length average = 1
Accepted packet length average = 1
Total in-flight flits = 5 (0 measured)
latency change    = 0.0187792
throughput change = 0.0278689
Warmed up ...Time used is 3000 cycles
Class 0:
Packet latency average = 20.2081
	minimum = 7
	maximum = 44
Network latency average = 20.2081
	minimum = 7
	maximum = 44
Slowest packet = 10921
Flit latency average = 20.2764
	minimum = 7
	maximum = 44
Slowest flit = 10921
Fragmentation average = 0
	minimum = 0
	maximum = 0
Injected packet rate average = 0.022
	minimum = 0.012 (at node 4)
	maximum = 0.03 (at node 13)
Accepted packet rate average = 0.0219375
	minimum = 0.013 (at node 1)
	maximum = 0.031 (at node 7)
Injected flit rate average = 0.022
	minimum = 0.012 (at node 4)
	maximum = 0.03 (at node 13)
Accepted flit rate average= 0.0219375
	minimum = 0.013 (at node 1)
	maximum = 0.031 (at node 7)
Injected packet length average = 1
Accepted packet length average = 1
Total in-flight flits = 6 (6 measured)
latency change    = 0.0420978
throughput change = 0.131054
Class 0:
Packet latency average = 19.898
	minimum = 7
	maximum = 44
Network latency average = 19.898
	minimum = 7
	maximum = 44
Slowest packet = 10921
Flit latency average = 19.9366
	minimum = 7
	maximum = 44
Slowest flit = 10921
Fragmentation average = 0
	minimum = 0
	maximum = 0
Injected packet rate average = 0.0207188
	minimum = 0.016 (at node 3)
	maximum = 0.0265 (at node 1)
Accepted packet rate average = 0.0206875
	minimum = 0.016 (at node 12)
	maximum = 0.0265 (at node 7)
Injected flit rate average = 0.0207188
	minimum = 0.016 (at node 3)
	maximum = 0.0265 (at node 1)
Accepted flit rate average= 0.0206875
	minimum = 0.016 (at node 12)
	maximum = 0.0265 (at node 7)
Injected packet length average = 1
Accepted packet length average = 1
Total in-flight flits = 6 (6 measured)
latency change    = 0.015583
throughput change = 0.060423
Class 0:
Packet latency average = 19.6249
	minimum = 7
	maximum = 44
Network latency average = 19.6249
	minimum = 7
	maximum = 44
Slowest packet = 10921
Flit latency average = 19.6526
	minimum = 7
	maximum = 44
Slowest flit = 10921
Fragmentation average = 0
	minimum = 0
	maximum = 0
Injected packet rate average = 0.0203125
	minimum = 0.015 (at node 3)
	maximum = 0.0246667 (at node 6)
Accepted packet rate average = 0.0202083
	minimum = 0.0143333 (at node 12)
	maximum = 0.0246667 (at node 13)
Injected flit rate average = 0.0203125
	minimum = 0.015 (at node 3)
	maximum = 0.0246667 (at node 6)
Accepted flit rate average= 0.0202083
	minimum = 0.0143333 (at node 12)
	maximum = 0.0246667 (at node 13)
Injected packet length average = 1
Accepted packet length average = 1
Total in-flight flits = 10 (10 measured)
latency change    = 0.0139186
throughput change = 0.0237113
Class 0:
Packet latency average = 19.5978
	minimum = 7
	maximum = 44
Network latency average = 19.5978
	minimum = 7
	maximum = 44
Slowest packet = 10921
Flit latency average = 19.6187
	minimum = 7
	maximum = 44
Slowest flit = 10921
Fragmentation average = 0
	minimum = 0
	maximum = 0
Injected packet rate average = 0.0202188
	minimum = 0.0155 (at node 3)
	maximum = 0.0235 (at node 6)
Accepted packet rate average = 0.0202031
	minimum = 0.01525 (at node 12)
	maximum = 0.0235 (at node 9)
Injected flit rate average = 0.0202188
	minimum = 0.0155 (at node 3)
	maximum = 0.0235 (at node 6)
Accepted flit rate average= 0.0202031
	minimum = 0.01525 (at node 12)
	maximum = 0.0235 (at node 9)
Injected packet length average = 1
Accepted packet length average = 1
Total in-flight flits = 6 (6 measured)
latency change    = 0.00137997
throughput change = 0.000257798
Class 0:
Packet latency average = 19.6159
	minimum = 7
	maximum = 44
Network latency average = 19.6159
	minimum = 7
	maximum = 44
Slowest packet = 10921
Flit latency average = 19.6322
	minimum = 7
	maximum = 44
Slowest flit = 10921
Fragmentation average = 0
	minimum = 0
	maximum = 0
Injected packet rate average = 0.0207125
	minimum = 0.0174 (at node 10)
	maximum = 0.0242 (at node 6)
Accepted packet rate average = 0.0206625
	minimum = 0.0174 (at node 10)
	maximum = 0.0242 (at node 9)
Injected flit rate average = 0.0207125
	minimum = 0.0174 (at node 10)
	maximum = 0.0242 (at node 6)
Accepted flit rate average= 0.0206625
	minimum = 0.0174 (at node 10)
	maximum = 0.0242 (at node 9)
Injected packet length average = 1
Accepted packet length average = 1
Total in-flight flits = 9 (9 measured)
latency change    = 0.000921292
throughput change = 0.0222323
Draining all recorded packets ...
Draining remaining packets ...
Time taken is 8044 cycles
Class 0:
Packet latency average = 19.6139
	minimum = 7
	maximum = 38
Network latency average = 19.6139
	minimum = 7
	maximum = 38
Slowest packet = 12637
Flit latency average = 19.6139
	minimum = 7
	maximum = 38
Slowest flit = 12637
Fragmentation average = 0
	minimum = 0
	maximum = 0
Injected packet rate average = 0.0205
	minimum = 0.015 (at node 15)
	maximum = 0.029 (at node 12)
Accepted packet rate average = 0.01975
	minimum = 0.015 (at node 2)
	maximum = 0.025 (at node 1)
Injected flit rate average = 0.0205
	minimum = 0.015 (at node 15)
	maximum = 0.029 (at node 12)
Accepted flit rate average= 0.01975
	minimum = 0.015 (at node 2)
	maximum = 0.025 (at node 1)
Injected packet length average = 1
Accepted packet length average = 1
Total in-flight flits = 12 (0 measured)
latency change    = 1
throughput change = 1
Class 0:
Packet latency average = 19.9844
	minimum = 7
	maximum = 44
Network latency average = 19.9844
	minimum = 7
	maximum = 44
Slowest packet = 12961
Flit latency average = 19.9844
	minimum = 7
	maximum = 44
Slowest flit = 12961
Fragmentation average = 0
	minimum = 0
	maximum = 0
Injected packet rate average = 0.0203125
	minimum = 0.017 (at node 13)
	maximum = 0.0235 (at node 12)
Accepted packet rate average = 0.0200625
	minimum = 0.0165 (at node 7)
	maximum = 0.0235 (at node 3)
Injected flit rate average = 0.0203125
	minimum = 0.017 (at node 13)
	maximum = 0.0235 (at node 12)
Accepted flit rate average= 0.0200625
	minimum = 0.0165 (at node 7)
	maximum = 0.0235 (at node 3)
Injected packet length average = 1
Accepted packet length average = 1
Total in-flight flits = 8 (0 measured)
latency change    = 0.0185394
throughput change = 0.0155763
Class 0:
Packet latency average = 19.7793
	minimum = 7
	maximum = 38
Network latency average = 19.7793
	minimum = 7
	maximum = 38
Slowest packet = 13145
Flit latency average = 19.7793
	minimum = 7
	maximum = 38
Slowest flit = 13145
Fragmentation average = 0
	minimum = 0
	maximum = 0
Injected packet rate average = 0.018375
	minimum = 0.012 (at node 4)
	maximum = 0.028 (at node 13)
Accepted packet rate average = 0.0186875
	minimum = 0.012 (at node 1)
	maximum = 0.028 (at node 7)
Injected flit rate average = 0.018375
	minimum = 0.012 (at node 4)
	maximum = 0.028 (at node 13)
Accepted flit rate average= 0.0186875
	minimum = 0.012 (at node 1)
	maximum = 0.028 (at node 7)
Injected packet length average = 1
Accepted packet length average = 1
Total in-flight flits = 3 (0 measured)
latency change    = 0.0103725
throughput change = 0.0735786
Warmed up ...Time used is 3000 cycles
Class 0:
Packet latency average = 18.9847
	minimum = 7
	maximum = 38
Network latency average = 18.9847
	minimum = 7
	maximum = 38
Slowest packet = 13458
Flit latency average = 19.0881
	minimum = 7
	maximum = 38
Slowest flit = 13458
Fragmentation average = 0
	minimum = 0
	maximum = 0
Injected packet rate average = 0.020625
	minimum = 0.014 (at node 7)
	maximum = 0.028 (at node 6)
Accepted packet rate average = 0.0205625
	minimum = 0.014 (at node 13)
	maximum = 0.028 (at node 9)
Injected flit rate average = 0.020625
	minimum = 0.014 (at node 7)
	maximum = 0.028 (at node 6)
Accepted flit rate average= 0.0205625
	minimum = 0.014 (at node 13)
	maximum = 0.028 (at node 9)
Injected packet length average = 1
Accepted packet length average = 1
Total in-flight flits = 4 (4 measured)
latency change    = 0.0418549
throughput change = 0.0911854
Class 0:
Packet latency average = 19.0443
	minimum = 7
	maximum = 38
Network latency average = 19.0443
	minimum = 7
	maximum = 38
Slowest packet = 13458
Flit latency average = 19.0957
	minimum = 7
	maximum = 38
Slowest flit = 13458
Fragmentation average = 0
	minimum = 0
	maximum = 0
Injected packet rate average = 0.0205625
	minimum = 0.0175 (at node 4)
	maximum = 0.026 (at node 6)
Accepted packet rate average = 0.0205625
	minimum = 0.0175 (at node 1)
	maximum = 0.026 (at node 9)
Injected flit rate average = 0.0205625
	minimum = 0.0175 (at node 4)
	maximum = 0.026 (at node 6)
Accepted flit rate average= 0.0205625
	minimum = 0.0175 (at node 1)
	maximum = 0.026 (at node 9)
Injected packet length average = 1
Accepted packet length average = 1
Total in-flight flits = 3 (3 measured)
latency change    = 0.00313019
throughput change = 0
Class 0:
Packet latency average = 19.2538
	minimum = 7
	maximum = 39
Network latency average = 19.2538
	minimum = 7
	maximum = 39
Slowest packet = 14279
Flit latency average = 19.2876
	minimum = 7
	maximum = 39
Slowest flit = 14279
Fragmentation average = 0
	minimum = 0
	maximum = 0
Injected packet rate average = 0.0205833
	minimum = 0.018 (at node 0)
	maximum = 0.0253333 (at node 10)
Accepted packet rate average = 0.0205
	minimum = 0.0176667 (at node 11)
	maximum = 0.0253333 (at node 10)
Injected flit rate average = 0.0205833
	minimum = 0.018 (at node 0)
	maximum = 0.0253333 (at node 10)
Accepted flit rate average= 0.0205
	minimum = 0.0176667 (at node 11)
	maximum = 0.0253333 (at node 10)
Injected packet length average = 1
Accepted packet length average = 1
Total in-flight flits = 7 (7 measured)
latency change    = 0.0108834
throughput change = 0.00304878
Class 0:
Packet latency average = 19.1231
	minimum = 7
	maximum = 40
Network latency average = 19.1231
	minimum = 7
	maximum = 40
Slowest packet = 14575
Flit latency average = 19.1489
	minimum = 7
	maximum = 40
Slowest flit = 14575
Fragmentation average = 0
	minimum = 0
	maximum = 0
Injected packet rate average = 0.0203594
	minimum = 0.01725 (at node 12)
	maximum = 0.02325 (at node 6)
Accepted packet rate average = 0.0203594
	minimum = 0.01725 (at node 3)
	maximum = 0.02325 (at node 10)
Injected flit rate average = 0.0203594
	minimum = 0.01725 (at node 12)
	maximum = 0.02325 (at node 6)
Accepted flit rate average= 0.0203594
	minimum = 0.01725 (at node 3)
	maximum = 0.02325 (at node 10)
Injected packet length average = 1
Accepted packet length average = 1
Total in-flight flits = 3 (3 measured)
latency change    = 0.00683706
throughput change = 0.00690714
Draining all recorded packets ...
Draining remaining packets ...
Time taken is 7036 cycles
Class 0:
Packet latency average = 18.3529
	minimum = 7
	maximum = 37
Network latency average = 18.3529
	minimum = 7
	maximum = 37
Slowest packet = 14634
Flit latency average = 18.3529
	minimum = 7
	maximum = 37
Slowest flit = 14634
Fragmentation average = 0
	minimum = 0
	maximum = 0
Injected packet rate average = 0.019625
	minimum = 0.013 (at node 11)
	maximum = 0.029 (at node 1)
Accepted packet rate average = 0.019125
	minimum = 0.013 (at node 12)
	maximum = 0.029 (at node 4)
Injected flit rate average = 0.019625
	minimum = 0.013 (at node 11)
	maximum = 0.029 (at node 1)
Accepted flit rate average= 0.019125
	minimum = 0.013 (at node 12)
	maximum = 0.029 (at node 4)
Injected packet length average = 1
Accepted packet length average = 1
Total in-flight flits = 8 (0 measured)
latency change    = 1
throughput change = 1
Class 0:
Packet latency average = 19.7236
	minimum = 7
	maximum = 42
Network latency average = 19.7236
	minimum = 7
	maximum = 42
Slowest packet = 15048
Flit latency average = 19.7236
	minimum = 7
	maximum = 42
Slowest flit = 15048
Fragmentation average = 0
	minimum = 0
	maximum = 0
Injected packet rate average = 0.0198438
	minimum = 0.014 (at node 11)
	maximum = 0.0265 (at node 1)
Accepted packet rate average = 0.0195625
	minimum = 0.014 (at node 14)
	maximum = 0.0265 (at node 4)
Injected flit rate average = 0.0198438
	minimum = 0.014 (at node 11)
	maximum = 0.0265 (at node 1)
Accepted flit rate average= 0.0195625
	minimum = 0.014 (at node 14)
	maximum = 0.0265 (at node 4)
Injected packet length average = 1
Accepted packet length average = 1
Total in-flight flits = 9 (0 measured)
latency change    = 0.0694953
throughput change = 0.0223642
Class 0:
Packet latency average = 19.1416
	minimum = 7
	maximum = 38
Network latency average = 19.1416
	minimum = 7
	maximum = 38
Slowest packet = 15263
Flit latency average = 19.1416
	minimum = 7
	maximum = 38
Slowest flit = 15263
Fragmentation average = 0
	minimum = 0
	maximum = 0
Injected packet rate average = 0.022125
	minimum = 0.008 (at node 4)
	maximum = 0.032 (at node 11)
Accepted packet rate average = 0.0220625
	minimum = 0.008 (at node 1)
	maximum = 0.03 (at node 10)
Injected flit rate average = 0.022125
	minimum = 0.008 (at node 4)
	maximum = 0.032 (at node 11)
Accepted flit rate average= 0.0220625
	minimum = 0.008 (at node 1)
	maximum = 0.03 (at node 10)
Injected packet length average = 1
Accepted packet length average = 1
Total in-flight flits = 10 (0 measured)
latency change    = 0.0304049
throughput change = 0.113314
Warmed up ...Time used is 3000 cycles
Class 0:
Packet latency average = 19.275
	minimum = 7
	maximum = 37
Network latency average = 19.275
	minimum = 7
	maximum = 37
Slowest packet = 15623
Flit latency average = 19.3909
	minimum = 7
	maximum = 37
Slowest flit = 15613
Fragmentation average = 0
	minimum = 0
	maximum = 0
Injected packet rate average = 0.0203125
	minimum = 0.013 (at node 10)
	maximum = 0.027 (at node 5)
Accepted packet rate average = 0.020625
	minimum = 0.013 (at node 10)
	maximum = 0.027 (at node 5)
Injected flit rate average = 0.0203125
	minimum = 0.013 (at node 10)
	maximum = 0.027 (at node 5)
Accepted flit rate average= 0.020625
	minimum = 0.013 (at node 10)
	maximum = 0.027 (at node 5)
Injected packet length average = 1
Accepted packet length average = 1
Total in-flight flits = 5 (5 measured)
latency change    = 0.00691865
throughput change = 0.069697
Class 0:
Packet latency average = 19.4251
	minimum = 7
	maximum = 38
Network latency average = 19.4251
	minimum = 7
	maximum = 38
Slowest packet = 16182
Flit latency average = 19.4834
	minimum = 7
	maximum = 38
Slowest flit = 16182
Fragmentation average = 0
	minimum = 0
	maximum = 0
Injected packet rate average = 0.0196563
	minimum = 0.015 (at node 10)
	maximum = 0.0255 (at node 13)
Accepted packet rate average = 0.0197188
	minimum = 0.014 (at node 10)
	maximum = 0.026 (at node 7)
Injected flit rate average = 0.0196563
	minimum = 0.015 (at node 10)
	maximum = 0.0255 (at node 13)
Accepted flit rate average= 0.0197188
	minimum = 0.014 (at node 10)
	maximum = 0.026 (at node 7)
Injected packet length average = 1
Accepted packet length average = 1
Total in-flight flits = 8 (8 measured)
latency change    = 0.00772818
throughput change = 0.0459588
Class 0:
Packet latency average = 19.6429
	minimum = 7
	maximum = 45
Network latency average = 19.6429
	minimum = 7
	maximum = 45
Slowest packet = 16268
Flit latency average = 19.6782
	minimum = 7
	maximum = 45
Slowest flit = 16268
Fragmentation average = 0
	minimum = 0
	maximum = 0
Injected packet rate average = 0.0202917
	minimum = 0.0163333 (at node 11)
	maximum = 0.026 (at node 13)
Accepted packet rate average = 0.0203958
	minimum = 0.017 (at node 10)
	maximum = 0.0263333 (at node 7)
Injected flit rate average = 0.0202917
	minimum = 0.0163333 (at node 11)
	maximum = 0.026 (at node 13)
Accepted flit rate average= 0.0203958
	minimum = 0.017 (at node 10)
	maximum = 0.0263333 (at node 7)
Injected packet length average = 1
Accepted packet length average = 1
Total in-flight flits = 5 (5 measured)
latency change    = 0.0110885
throughput change = 0.0331971
Class 0:
Packet latency average = 19.5558
	minimum = 7
	maximum = 45
Network latency average = 19.5558
	minimum = 7
	maximum = 45
Slowest packet = 16268
Flit latency average = 19.5831
	minimum = 7
	maximum = 45
Slowest flit = 16268
Fragmentation average = 0
	minimum = 0
	maximum = 0
Injected packet rate average = 0.0202656
	minimum = 0.01725 (at node 11)
	maximum = 0.02575 (at node 13)
Accepted packet rate average = 0.0203125
	minimum = 0.0175 (at node 14)
	maximum = 0.026 (at node 7)
Injected flit rate average = 0.0202656
	minimum = 0.01725 (at node 11)
	maximum = 0.02575 (at node 13)
Accepted flit rate average= 0.0203125
	minimum = 0.0175 (at node 14)
	maximum = 0.026 (at node 7)
Injected packet length average = 1
Accepted packet length average = 1
Total in-flight flits = 7 (7 measured)
latency change    = 0.00445478
throughput change = 0.00410256
Draining all recorded packets ...
Draining remaining packets ...
Time taken is 7061 cycles
Class 0:
Packet latency average = 19
	minimum = 7
	maximum = 40
Network latency average = 19
	minimum = 7
	maximum = 40
Slowest packet = 17153
Flit latency average = 19
	minimum = 7
	maximum = 40
Slowest flit = 17153
Fragmentation average = 0
	minimum = 0
	maximum = 0
Injected packet rate average = 0.01975
	minimum = 0.008 (at node 4)
	maximum = 0.03 (at node 0)
Accepted packet rate average = 0.0195
	minimum = 0.008 (at node 1)
	maximum = 0.03 (at node 0)
Injected flit rate average = 0.01975
	minimum = 0.008 (at node 4)
	maximum = 0.03 (at node 0)
Accepted flit rate average= 0.0195
	minimum = 0.008 (at node 1)
	maximum = 0.03 (at node 0)
Injected packet length average = 1
Accepted packet length average = 1
Total in-flight flits = 4 (0 measured)
latency change    = 1
throughput change = 1
Class 0:
Packet latency average = 18.9672
	minimum = 7
	maximum = 41
Network latency average = 18.9672
	minimum = 7
	maximum = 41
Slowest packet = 17409
Flit latency average = 18.9672
	minimum = 7
	maximum = 41
Slowest flit = 17409
Fragmentation average = 0
	minimum = 0
	maximum = 0
Injected packet rate average = 0.02025
	minimum = 0.016 (at node 4)
	maximum = 0.026 (at node 0)
Accepted packet rate average = 0.02
	minimum = 0.016 (at node 1)
	maximum = 0.026 (at node 0)
Injected flit rate average = 0.02025
	minimum = 0.016 (at node 4)
	maximum = 0.026 (at node 0)
Accepted flit rate average= 0.02
	minimum = 0.016 (at node 1)
	maximum = 0.026 (at node 0)
Injected packet length average = 1
Accepted packet length average = 1
Total in-flight flits = 8 (0 measured)
latency change    = 0.00172996
throughput change = 0.025
Class 0:
Packet latency average = 19.734
	minimum = 7
	maximum = 39
Network latency average = 19.734
	minimum = 7
	maximum = 39
Slowest packet = 17593
Flit latency average = 19.734
	minimum = 7
	maximum = 39
Slowest flit = 17593
Fragmentation average = 0
	minimum = 0
	maximum = 0
Injected packet rate average = 0.01925
	minimum = 0.013 (at node 1)
	maximum = 0.026 (at node 9)
Accepted packet rate average = 0.0195
	minimum = 0.012 (at node 4)
	maximum = 0.026 (at node 2)
Injected flit rate average = 0.01925
	minimum = 0.013 (at node 1)
	maximum = 0.026 (at node 9)
Accepted flit rate average= 0.0195
	minimum = 0.012 (at node 4)
	maximum = 0.026 (at node 2)
Injected packet length average = 1
Accepted packet length average = 1
Total in-flight flits = 4 (0 measured)
latency change    = 0.0388562
throughput change = 0.025641
Warmed up ...Time used is 3000 cycles
Class 0:
Packet latency average = 20.5818
	minimum = 7
	maximum = 43
Network latency average = 20.5818
	minimum = 7
	maximum = 43
Slowest packet = 17980
Flit latency average = 20.5689
	minimum = 7
	maximum = 43
Slowest flit = 17980
Fragmentation average = 0
	minimum = 0
	maximum = 0
Injected packet rate average = 0.0208125
	minimum = 0.012 (at node 10)
	maximum = 0.03 (at node 2)
Accepted packet rate average = 0.020875
	minimum = 0.012 (at node 10)
	maximum = 0.031 (at node 8)
Injected flit rate average = 0.0208125
	minimum = 0.012 (at node 10)
	maximum = 0.03 (at node 2)
Accepted flit rate average= 0.020875
	minimum = 0.012 (at node 10)
	maximum = 0.031 (at node 8)
Injected packet length average = 1
Accepted packet length average = 1
Total in-flight flits = 3 (3 measured)
latency change    = 0.0411938
throughput change = 0.0658683
Class 0:
Packet latency average = 19.9918
	minimum = 7
	maximum = 43
Network latency average = 19.9918
	minimum = 7
	maximum = 43
Slowest packet = 17980
Flit latency average = 19.9886
	minimum = 7
	maximum = 43
Slowest flit = 17980
Fragmentation average = 0
	minimum = 0
	maximum = 0
Injected packet rate average = 0.0191875
	minimum = 0.014 (at node 10)
	maximum = 0.024 (at node 2)
Accepted packet rate average = 0.019125
	minimum = 0.014 (at node 10)
	maximum = 0.0245 (at node 8)
Injected flit rate average = 0.0191875
	minimum = 0.014 (at node 10)
	maximum = 0.024 (at node 2)
Accepted flit rate average= 0.019125
	minimum = 0.014 (at node 10)
	maximum = 0.0245 (at node 8)
Injected packet length average = 1
Accepted packet length average = 1
Total in-flight flits = 6 (6 measured)
latency change    = 0.0295142
throughput change = 0.0915033
Class 0:
Packet latency average = 19.8937
	minimum = 7
	maximum = 43
Network latency average = 19.8937
	minimum = 7
	maximum = 43
Slowest packet = 17980
Flit latency average = 19.892
	minimum = 7
	maximum = 43
Slowest flit = 17980
Fragmentation average = 0
	minimum = 0
	maximum = 0
Injected packet rate average = 0.01875
	minimum = 0.015 (at node 6)
	maximum = 0.0223333 (at node 3)
Accepted packet rate average = 0.0187083
	minimum = 0.015 (at node 9)
	maximum = 0.0223333 (at node 5)
Injected flit rate average = 0.01875
	minimum = 0.015 (at node 6)
	maximum = 0.0223333 (at node 3)
Accepted flit rate average= 0.0187083
	minimum = 0.015 (at node 9)
	maximum = 0.0223333 (at node 5)
Injected packet length average = 1
Accepted packet length average = 1
Total in-flight flits = 6 (6 measured)
latency change    = 0.0049282
throughput change = 0.0222717
Class 0:
Packet latency average = 19.8701
	minimum = 7
	maximum = 43
Network latency average = 19.8701
	minimum = 7
	maximum = 43
Slowest packet = 17980
Flit latency average = 19.8689
	minimum = 7
	maximum = 43
Slowest flit = 17980
Fragmentation average = 0
	minimum = 0
	maximum = 0
Injected packet rate average = 0.0190781
	minimum = 0.01475 (at node 15)
	maximum = 0.02275 (at node 5)
Accepted packet rate average = 0.0190625
	minimum = 0.01475 (at node 15)
	maximum = 0.02275 (at node 5)
Injected flit rate average = 0.0190781
	minimum = 0.01475 (at node 15)
	maximum = 0.02275 (at node 5)
Accepted flit rate average= 0.0190625
	minimum = 0.01475 (at node 15)
	maximum = 0.02275 (at node 5)
Injected packet length average = 1
Accepted packet length average = 1
Total in-flight flits = 5 (5 measured)
latency change    = 0.00119125
throughput change = 0.0185792
Class 0:
Packet latency average = 19.7531
	minimum = 7
	maximum = 43
Network latency average = 19.7531
	minimum = 7
	maximum = 43
Slowest packet = 17980
Flit latency average = 19.7524
	minimum = 7
	maximum = 43
Slowest flit = 17980
Fragmentation average = 0
	minimum = 0
	maximum = 0
Injected packet rate average = 0.0194625
	minimum = 0.0142 (at node 15)
	maximum = 0.022 (at node 2)
Accepted packet rate average = 0.0194875
	minimum = 0.0142 (at node 15)
	maximum = 0.0222 (at node 8)
Injected flit rate average = 0.0194625
	minimum = 0.0142 (at node 15)
	maximum = 0.022 (at node 2)
Accepted flit rate average= 0.0194875
	minimum = 0.0142 (at node 15)
	maximum = 0.0222 (at node 8)
Injected packet length average = 1
Accepted packet length average = 1
Total in-flight flits = 2 (2 measured)
latency change    = 0.0059237
throughput change = 0.0218089
Draining all recorded packets ...
Draining remaining packets ...
Time taken is 8007 cycles
Class 0:
Packet latency average = 19.7552
	minimum = 7
	maximum = 40
Network latency average = 19.7552
	minimum = 7
	maximum = 40
Slowest packet = 19466
Flit latency average = 19.7552
	minimum = 7
	maximum = 40
Slowest flit = 19466
Fragmentation average = 0
	minimum = 0
	maximum = 0
Injected packet rate average = 0.0183125
	minimum = 0.011 (at node 6)
	maximum = 0.026 (at node 13)
Accepted packet rate average = 0.017875
	minimum = 0.011 (at node 9)
	maximum = 0.025 (at node 7)
Injected flit rate average = 0.0183125
	minimum = 0.011 (at node 6)
	maximum = 0.026 (at node 13)
Accepted flit rate average= 0.017875
	minimum = 0.011 (at node 9)
	maximum = 0.025 (at node 7)
Injected packet length average = 1
Accepted packet length average = 1
Total in-flight flits = 7 (0 measured)
latency change    = 1
throughput change = 1
Class 0:
Packet latency average = 19.6985
	minimum = 7
	maximum = 41
Network latency average = 19.6985
	minimum = 7
	maximum = 41
Slowest packet = 19894
Flit latency average = 19.6985
	minimum = 7
	maximum = 41
Slowest flit = 19894
Fragmentation average = 0
	minimum = 0
	maximum = 0
Injected packet rate average = 0.0192187
	minimum = 0.014 (at node 8)
	maximum = 0.0265 (at node 0)
Accepted packet rate average = 0.0189687
	minimum = 0.0135 (at node 2)
	maximum = 0.0265 (at node 0)
Injected flit rate average = 0.0192187
	minimum = 0.014 (at node 8)
	maximum = 0.0265 (at node 0)
Accepted flit rate average= 0.0189687
	minimum = 0.0135 (at node 2)
	maximum = 0.0265 (at node 0)
Injected packet length average = 1
Accepted packet length average = 1
Total in-flight flits = 8 (0 measured)
latency change    = 0.00287978
throughput change = 0.0576606
Class 0:
Packet latency average = 18.9157
	minimum = 7
	maximum = 38
Network latency average = 18.9157
	minimum = 7
	maximum = 38
Slowest packet = 20266
Flit latency average = 18.9157
	minimum = 7
	maximum = 38
Slowest flit = 20266
Fragmentation average = 0
	minimum = 0
	maximum = 0
Injected packet rate average = 0.0214375
	minimum = 0.011 (at node 2)
	maximum = 0.035 (at node 14)
Accepted packet rate average = 0.0215
	minimum = 0.012 (at node 8)
	maximum = 0.034 (at node 11)
Injected flit rate average = 0.0214375
	minimum = 0.011 (at node 2)
	maximum = 0.035 (at node 14)
Accepted flit rate average= 0.0215
	minimum = 0.012 (at node 8)
	maximum = 0.034 (at node 11)
Injected packet length average = 1
Accepted packet length average = 1
Total in-flight flits = 7 (0 measured)
latency change    = 0.0413847
throughput change = 0.117733
Warmed up ...Time used is 3000 cycles
Class 0:
Packet latency average = 18.8621
	minimum = 7
	maximum = 37
Network latency average = 18.8621
	minimum = 7
	maximum = 37
Slowest packet = 20394
Flit latency average = 19.0875
	minimum = 7
	maximum = 37
Slowest flit = 20379
Fragmentation average = 0
	minimum = 0
	maximum = 0
Injected packet rate average = 0.0186875
	minimum = 0.01 (at node 14)
	maximum = 0.03 (at node 10)
Accepted packet rate average = 0.0185625
	minimum = 0.011 (at node 11)
	maximum = 0.028 (at node 10)
Injected flit rate average = 0.0186875
	minimum = 0.01 (at node 14)
	maximum = 0.03 (at node 10)
Accepted flit rate average= 0.0185625
	minimum = 0.011 (at node 11)
	maximum = 0.028 (at node 10)
Injected packet length average = 1
Accepted packet length average = 1
Total in-flight flits = 9 (9 measured)
latency change    = 0.0028432
throughput change = 0.158249
Class 0:
Packet latency average = 19.3093
	minimum = 7
	maximum = 37
Network latency average = 19.3093
	minimum = 7
	maximum = 37
Slowest packet = 20394
Flit latency average = 19.4126
	minimum = 7
	maximum = 37
Slowest flit = 20379
Fragmentation average = 0
	minimum = 0
	maximum = 0
Injected packet rate average = 0.0191562
	minimum = 0.0155 (at node 15)
	maximum = 0.0235 (at node 1)
Accepted packet rate average = 0.0193125
	minimum = 0.0155 (at node 15)
	maximum = 0.0235 (at node 4)
Injected flit rate average = 0.0191562
	minimum = 0.0155 (at node 15)
	maximum = 0.0235 (at node 1)
Accepted flit rate average= 0.0193125
	minimum = 0.0155 (at node 15)
	maximum = 0.0235 (at node 4)
Injected packet length average = 1
Accepted packet length average = 1
Total in-flight flits = 2 (2 measured)
latency change    = 0.0231629
throughput change = 0.038835
Class 0:
Packet latency average = 19.2481
	minimum = 7
	maximum = 38
Network latency average = 19.2481
	minimum = 7
	maximum = 38
Slowest packet = 21109
Flit latency average = 19.3169
	minimum = 7
	maximum = 38
Slowest flit = 21109
Fragmentation average = 0
	minimum = 0
	maximum = 0
Injected packet rate average = 0.0194375
	minimum = 0.0166667 (at node 15)
	maximum = 0.0236667 (at node 0)
Accepted packet rate average = 0.0194583
	minimum = 0.0166667 (at node 15)
	maximum = 0.0236667 (at node 0)
Injected flit rate average = 0.0194375
	minimum = 0.0166667 (at node 15)
	maximum = 0.0236667 (at node 0)
Accepted flit rate average= 0.0194583
	minimum = 0.0166667 (at node 15)
	maximum = 0.0236667 (at node 0)
Injected packet length average = 1
Accepted packet length average = 1
Total in-flight flits = 6 (6 measured)
latency change    = 0.0031804
throughput change = 0.00749465
Class 0:
Packet latency average = 19.5955
	minimum = 7
	maximum = 38
Network latency average = 19.5955
	minimum = 7
	maximum = 38
Slowest packet = 21109
Flit latency average = 19.6452
	minimum = 7
	maximum = 38
Slowest flit = 21109
Fragmentation average = 0
	minimum = 0
	maximum = 0
Injected packet rate average = 0.0193906
	minimum = 0.01575 (at node 15)
	maximum = 0.0225 (at node 1)
Accepted packet rate average = 0.0194219
	minimum = 0.01575 (at node 15)
	maximum = 0.0225 (at node 4)
Injected flit rate average = 0.0193906
	minimum = 0.01575 (at node 15)
	maximum = 0.0225 (at node 1)
Accepted flit rate average= 0.0194219
	minimum = 0.01575 (at node 15)
	maximum = 0.0225 (at node 4)
Injected packet length average = 1
Accepted packet length average = 1
Total in-flight flits = 5 (5 measured)
latency change    = 0.0177264
throughput change = 0.00187718
Draining all recorded packets ...
Draining remaining packets ...
Time taken is 7065 cycles
Class 0:
Packet latency average = 18.9434
	minimum = 7
	maximum = 37
Network latency average = 18.9434
	minimum = 7
	maximum = 37
Slowest packet = 21650
Flit latency average = 18.9434
	minimum = 7
	maximum = 37
Slowest flit = 21650
Fragmentation average = 0
	minimum = 0
	maximum = 0
Injected packet rate average = 0.0203125
	minimum = 0.014 (at node 0)
	maximum = 0.027 (at node 10)
Accepted packet rate average = 0.019875
	minimum = 0.014 (at node 0)
	maximum = 0.027 (at node 10)
Injected flit rate average = 0.0203125
	minimum = 0.014 (at node 0)
	maximum = 0.027 (at node 10)
Accepted flit rate average= 0.019875
	minimum = 0.014 (at node 0)
	maximum = 0.027 (at node 10)
Injected packet length average = 1
Accepted packet length average = 1
Total in-flight flits = 7 (0 measured)
latency change    = 1
throughput change = 1
Class 0:
Packet latency average = 19.5278
	minimum = 7
	maximum = 44
Network latency average = 19.5278
	minimum = 7
	maximum = 44
Slowest packet = 21972
Flit latency average = 19.5278
	minimum = 7
	maximum = 44
Slowest flit = 21972
Fragmentation average = 0
	minimum = 0
	maximum = 0
Injected packet rate average = 0.0204063
	minimum = 0.0155 (at node 6)
	maximum = 0.025 (at node 14)
Accepted packet rate average = 0.02025
	minimum = 0.0155 (at node 1)
	maximum = 0.0245 (at node 4)
Injected flit rate average = 0.0204063
	minimum = 0.0155 (at node 6)
	maximum = 0.025 (at node 14)
Accepted flit rate average= 0.02025
	minimum = 0.0155 (at node 1)
	maximum = 0.0245 (at node 4)
Injected packet length average = 1
Accepted packet length average = 1
Total in-flight flits = 5 (0 measured)
latency change    = 0.0299257
throughput change = 0.0185185
Class 0:
Packet latency average = 18.8395
	minimum = 7
	maximum = 39
Network latency average = 18.8395
	minimum = 7
	maximum = 39
Slowest packet = 22383
Flit latency average = 18.8395
	minimum = 7
	maximum = 39
Slowest flit = 22383
Fragmentation average = 0
	minimum = 0
	maximum = 0
Injected packet rate average = 0.0204375
	minimum = 0.011 (at node 5)
	maximum = 0.026 (at node 0)
Accepted packet rate average = 0.02025
	minimum = 0.011 (at node 5)
	maximum = 0.026 (at node 0)
Injected flit rate average = 0.0204375
	minimum = 0.011 (at node 5)
	maximum = 0.026 (at node 0)
Accepted flit rate average= 0.02025
	minimum = 0.011 (at node 5)
	maximum = 0.026 (at node 0)
Injected packet length average = 1
Accepted packet length average = 1
Total in-flight flits = 8 (0 measured)
latency change    = 0.0365334
throughput change = 0
Warmed up ...Time used is 3000 cycles
Class 0:
Packet latency average = 19.6677
	minimum = 7
	maximum = 42
Network latency average = 19.6677
	minimum = 7
	maximum = 42
Slowest packet = 22834
Flit latency average = 19.789
	minimum = 7
	maximum = 42
Slowest flit = 22834
Fragmentation average = 0
	minimum = 0
	maximum = 0
Injected packet rate average = 0.0201875
	minimum = 0.012 (at node 9)
	maximum = 0.028 (at node 8)
Accepted packet rate average = 0.0204375
	minimum = 0.012 (at node 6)
	maximum = 0.028 (at node 2)
Injected flit rate average = 0.0201875
	minimum = 0.012 (at node 9)
	maximum = 0.028 (at node 8)
Accepted flit rate average= 0.0204375
	minimum = 0.012 (at node 6)
	maximum = 0.028 (at node 2)
Injected packet length average = 1
Accepted packet length average = 1
Total in-flight flits = 4 (4 measured)
latency change    = 0.0421099
throughput change = 0.00917431
Class 0:
Packet latency average = 19.8438
	minimum = 7
	maximum = 42
Network latency average = 19.8438
	minimum = 7
	maximum = 42
Slowest packet = 22834
Flit latency average = 19.9058
	minimum = 7
	maximum = 42
Slowest flit = 22834
Fragmentation average = 0
	minimum = 0
	maximum = 0
Injected packet rate average = 0.0191562
	minimum = 0.012 (at node 9)
	maximum = 0.0235 (at node 6)
Accepted packet rate average = 0.01925
	minimum = 0.012 (at node 6)
	maximum = 0.0245 (at node 9)
Injected flit rate average = 0.0191562
	minimum = 0.012 (at node 9)
	maximum = 0.0235 (at node 6)
Accepted flit rate average= 0.01925
	minimum = 0.012 (at node 6)
	maximum = 0.0245 (at node 9)
Injected packet length average = 1
Accepted packet length average = 1
Total in-flight flits = 5 (5 measured)
latency change    = 0.00887123
throughput change = 0.0616883
Class 0:
Packet latency average = 19.8293
	minimum = 7
	maximum = 42
Network latency average = 19.8293
	minimum = 7
	maximum = 42
Slowest packet = 22834
Flit latency average = 19.8692
	minimum = 7
	maximum = 42
Slowest flit = 22834
Fragmentation average = 0
	minimum = 0
	maximum = 0
Injected packet rate average = 0.0200833
	minimum = 0.0156667 (at node 5)
	maximum = 0.0246667 (at node 8)
Accepted packet rate average = 0.0200625
	minimum = 0.0156667 (at node 5)
	maximum = 0.0246667 (at node 2)
Injected flit rate average = 0.0200833
	minimum = 0.0156667 (at node 5)
	maximum = 0.0246667 (at node 8)
Accepted flit rate average= 0.0200625
	minimum = 0.0156667 (at node 5)
	maximum = 0.0246667 (at node 2)
Injected packet length average = 1
Accepted packet length average = 1
Total in-flight flits = 9 (9 measured)
latency change    = 0.000727742
throughput change = 0.0404984
Class 0:
Packet latency average = 19.7075
	minimum = 7
	maximum = 46
Network latency average = 19.7075
	minimum = 7
	maximum = 46
Slowest packet = 23788
Flit latency average = 19.7376
	minimum = 7
	maximum = 46
Slowest flit = 23788
Fragmentation average = 0
	minimum = 0
	maximum = 0
Injected packet rate average = 0.0203594
	minimum = 0.016 (at node 5)
	maximum = 0.0245 (at node 8)
Accepted packet rate average = 0.0204219
	minimum = 0.016 (at node 5)
	maximum = 0.0245 (at node 2)
Injected flit rate average = 0.0203594
	minimum = 0.016 (at node 5)
	maximum = 0.0245 (at node 8)
Accepted flit rate average= 0.0204219
	minimum = 0.016 (at node 5)
	maximum = 0.0245 (at node 2)
Injected packet length average = 1
Accepted packet length average = 1
Total in-flight flits = 4 (4 measured)
latency change    = 0.00618304
throughput change = 0.0175976
Class 0:
Packet latency average = 19.9248
	minimum = 7
	maximum = 47
Network latency average = 19.9248
	minimum = 7
	maximum = 47
Slowest packet = 24038
Flit latency average = 19.9477
	minimum = 7
	maximum = 47
Slowest flit = 24038
Fragmentation average = 0
	minimum = 0
	maximum = 0
Injected packet rate average = 0.020525
	minimum = 0.0156 (at node 5)
	maximum = 0.025 (at node 8)
Accepted packet rate average = 0.0205375
	minimum = 0.0156 (at node 5)
	maximum = 0.025 (at node 2)
Injected flit rate average = 0.020525
	minimum = 0.0156 (at node 5)
	maximum = 0.025 (at node 8)
Accepted flit rate average= 0.0205375
	minimum = 0.0156 (at node 5)
	maximum = 0.025 (at node 2)
Injected packet length average = 1
Accepted packet length average = 1
Total in-flight flits = 7 (7 measured)
latency change    = 0.0109062
throughput change = 0.00562995
Draining all recorded packets ...
Draining remaining packets ...
Time taken is 8055 cycles
Class 0:
Packet latency average = 18.8454
	minimum = 7
	maximum = 41
Network latency average = 18.8454
	minimum = 7
	maximum = 41
Slowest packet = 24352
Flit latency average = 18.8454
	minimum = 7
	maximum = 41
Slowest flit = 24352
Fragmentation average = 0
	minimum = 0
	maximum = 0
Injected packet rate average = 0.01875
	minimum = 0.012 (at node 7)
	maximum = 0.027 (at node 14)
Accepted packet rate average = 0.0181875
	minimum = 0.011 (at node 13)
	maximum = 0.026 (at node 11)
Injected flit rate average = 0.01875
	minimum = 0.012 (at node 7)
	maximum = 0.027 (at node 14)
Accepted flit rate average= 0.0181875
	minimum = 0.011 (at node 13)
	maximum = 0.026 (at node 11)
Injected packet length average = 1
Accepted packet length average = 1
Total in-flight flits = 9 (0 measured)
latency change    = 1
throughput change = 1
Class 0:
Packet latency average = 19.1591
	minimum = 7
	maximum = 41
Network latency average = 19.1591
	minimum = 7
	maximum = 41
Slowest packet = 24352
Flit latency average = 19.1591
	minimum = 7
	maximum = 41
Slowest flit = 24352
Fragmentation average = 0
	minimum = 0
	maximum = 0
Injected packet rate average = 0.0195625
	minimum = 0.014 (at node 7)
	maximum = 0.026 (at node 14)
Accepted packet rate average = 0.01925
	minimum = 0.014 (at node 13)
	maximum = 0.0255 (at node 11)
Injected flit rate average = 0.0195625
	minimum = 0.014 (at node 7)
	maximum = 0.026 (at node 14)
Accepted flit rate average= 0.01925
	minimum = 0.014 (at node 13)
	maximum = 0.0255 (at node 11)
Injected packet length average = 1
Accepted packet length average = 1
Total in-flight flits = 10 (0 measured)
latency change    = 0.016375
throughput change = 0.0551948
Class 0:
Packet latency average = 20.1022
	minimum = 7
	maximum = 39
Network latency average = 20.1022
	minimum = 7
	maximum = 39
Slowest packet = 24891
Flit latency average = 20.1022
	minimum = 7
	maximum = 39
Slowest flit = 24891
Fragmentation average = 0
	minimum = 0
	maximum = 0
Injected packet rate average = 0.01925
	minimum = 0.015 (at node 5)
	maximum = 0.025 (at node 2)
Accepted packet rate average = 0.0195625
	minimum = 0.016 (at node 0)
	maximum = 0.028 (at node 8)
Injected flit rate average = 0.01925
	minimum = 0.015 (at node 5)
	maximum = 0.025 (at node 2)
Accepted flit rate average= 0.0195625
	minimum = 0.016 (at node 0)
	maximum = 0.028 (at node 8)
Injected packet length average = 1
Accepted packet length average = 1
Total in-flight flits = 5 (0 measured)
latency change    = 0.0469174
throughput change = 0.0159744
Warmed up ...Time used is 3000 cycles
Class 0:
Packet latency average = 18.3519
	minimum = 7
	maximum = 38
Network latency average = 18.3519
	minimum = 7
	maximum = 38
Slowest packet = 25366
Flit latency average = 18.3973
	minimum = 7
	maximum = 38
Slowest flit = 25366
Fragmentation average = 0
	minimum = 0
	maximum = 0
Injected packet rate average = 0.0183125
	minimum = 0.01 (at node 12)
	maximum = 0.028 (at node 1)
Accepted packet rate average = 0.01825
	minimum = 0.009 (at node 3)
	maximum = 0.029 (at node 4)
Injected flit rate average = 0.0183125
	minimum = 0.01 (at node 12)
	maximum = 0.028 (at node 1)
Accepted flit rate average= 0.01825
	minimum = 0.009 (at node 3)
	maximum = 0.029 (at node 4)
Injected packet length average = 1
Accepted packet length average = 1
Total in-flight flits = 6 (6 measured)
latency change    = 0.0953753
throughput change = 0.0719178
Class 0:
Packet latency average = 18.8673
	minimum = 7
	maximum = 38
Network latency average = 18.8673
	minimum = 7
	maximum = 38
Slowest packet = 25366
Flit latency average = 18.884
	minimum = 7
	maximum = 38
Slowest flit = 25366
Fragmentation average = 0
	minimum = 0
	maximum = 0
Injected packet rate average = 0.0199063
	minimum = 0.015 (at node 4)
	maximum = 0.0265 (at node 1)
Accepted packet rate average = 0.0199375
	minimum = 0.015 (at node 1)
	maximum = 0.028 (at node 4)
Injected flit rate average = 0.0199063
	minimum = 0.015 (at node 4)
	maximum = 0.0265 (at node 1)
Accepted flit rate average= 0.0199375
	minimum = 0.015 (at node 1)
	maximum = 0.028 (at node 4)
Injected packet length average = 1
Accepted packet length average = 1
Total in-flight flits = 4 (4 measured)
latency change    = 0.0273162
throughput change = 0.0846395
Class 0:
Packet latency average = 19.2613
	minimum = 7
	maximum = 38
Network latency average = 19.2613
	minimum = 7
	maximum = 38
Slowest packet = 25366
Flit latency average = 19.2704
	minimum = 7
	maximum = 38
Slowest flit = 25366
Fragmentation average = 0
	minimum = 0
	maximum = 0
Injected packet rate average = 0.0198542
	minimum = 0.0163333 (at node 4)
	maximum = 0.024 (at node 10)
Accepted packet rate average = 0.019875
	minimum = 0.0163333 (at node 1)
	maximum = 0.024 (at node 10)
Injected flit rate average = 0.0198542
	minimum = 0.0163333 (at node 4)
	maximum = 0.024 (at node 10)
Accepted flit rate average= 0.019875
	minimum = 0.0163333 (at node 1)
	maximum = 0.024 (at node 10)
Injected packet length average = 1
Accepted packet length average = 1
Total in-flight flits = 4 (4 measured)
latency change    = 0.020457
throughput change = 0.00314465
Class 0:
Packet latency average = 19.1543
	minimum = 7
	maximum = 38
Network latency average = 19.1543
	minimum = 7
	maximum = 38
Slowest packet = 25366
Flit latency average = 19.1615
	minimum = 7
	maximum = 38
Slowest flit = 25366
Fragmentation average = 0
	minimum = 0
	maximum = 0
Injected packet rate average = 0.0198438
	minimum = 0.01675 (at node 4)
	maximum = 0.02425 (at node 10)
Accepted packet rate average = 0.0198281
	minimum = 0.01675 (at node 1)
	maximum = 0.02425 (at node 10)
Injected flit rate average = 0.0198438
	minimum = 0.01675 (at node 4)
	maximum = 0.02425 (at node 10)
Accepted flit rate average= 0.0198281
	minimum = 0.01675 (at node 1)
	maximum = 0.02425 (at node 10)
Injected packet length average = 1
Accepted packet length average = 1
Total in-flight flits = 6 (6 measured)
latency change    = 0.00558912
throughput change = 0.00236407
Class 0:
Packet latency average = 19.1447
	minimum = 7
	maximum = 41
Network latency average = 19.1447
	minimum = 7
	maximum = 41
Slowest packet = 26522
Flit latency average = 19.1505
	minimum = 7
	maximum = 41
Slowest flit = 26522
Fragmentation average = 0
	minimum = 0
	maximum = 0
Injected packet rate average = 0.02
	minimum = 0.0166 (at node 4)
	maximum = 0.0232 (at node 10)
Accepted packet rate average = 0.0200125
	minimum = 0.0166 (at node 1)
	maximum = 0.023 (at node 10)
Injected flit rate average = 0.02
	minimum = 0.0166 (at node 4)
	maximum = 0.0232 (at node 10)
Accepted flit rate average= 0.0200125
	minimum = 0.0166 (at node 1)
	maximum = 0.023 (at node 10)
Injected packet length average = 1
Accepted packet length average = 1
Total in-flight flits = 4 (4 measured)
latency change    = 0.000498064
throughput change = 0.00921299
Draining all recorded packets ...
Draining remaining packets ...
Time taken is 8050 cycles
Class 0:
Packet latency average = 19.9968
	minimum = 7
	maximum = 42
Network latency average = 19.9968
	minimum = 7
	maximum = 42
Slowest packet = 26876
Flit latency average = 19.9968
	minimum = 7
	maximum = 42
Slowest flit = 26876
Fragmentation average = 0
	minimum = 0
	maximum = 0
Injected packet rate average = 0.0199375
	minimum = 0.009 (at node 14)
	maximum = 0.028 (at node 13)
Accepted packet rate average = 0.0193125
	minimum = 0.009 (at node 11)
	maximum = 0.028 (at node 7)
Injected flit rate average = 0.0199375
	minimum = 0.009 (at node 14)
	maximum = 0.028 (at node 13)
Accepted flit rate average= 0.0193125
	minimum = 0.009 (at node 11)
	maximum = 0.028 (at node 7)
Injected packet length average = 1
Accepted packet length average = 1
Total in-flight flits = 10 (0 measured)
latency change    = 1
throughput change = 1
Class 0:
Packet latency average = 19.5897
	minimum = 7
	maximum = 45
Network latency average = 19.5897
	minimum = 7
	maximum = 45
Slowest packet = 27403
Flit latency average = 19.5897
	minimum = 7
	maximum = 45
Slowest flit = 27403
Fragmentation average = 0
	minimum = 0
	maximum = 0
Injected packet rate average = 0.0195938
	minimum = 0.0125 (at node 14)
	maximum = 0.025 (at node 12)
Accepted packet rate average = 0.0195
	minimum = 0.0125 (at node 11)
	maximum = 0.0245 (at node 3)
Injected flit rate average = 0.0195938
	minimum = 0.0125 (at node 14)
	maximum = 0.025 (at node 12)
Accepted flit rate average= 0.0195
	minimum = 0.0125 (at node 11)
	maximum = 0.0245 (at node 3)
Injected packet length average = 1
Accepted packet length average = 1
Total in-flight flits = 3 (0 measured)
latency change    = 0.0207772
throughput change = 0.00961538
Class 0:
Packet latency average = 20.0896
	minimum = 7
	maximum = 43
Network latency average = 20.0896
	minimum = 7
	maximum = 43
Slowest packet = 27574
Flit latency average = 20.0896
	minimum = 7
	maximum = 43
Slowest flit = 27574
Fragmentation average = 0
	minimum = 0
	maximum = 0
Injected packet rate average = 0.02125
	minimum = 0.014 (at node 10)
	maximum = 0.035 (at node 3)
Accepted packet rate average = 0.0209375
	minimum = 0.014 (at node 10)
	maximum = 0.033 (at node 12)
Injected flit rate average = 0.02125
	minimum = 0.014 (at node 10)
	maximum = 0.035 (at node 3)
Accepted flit rate average= 0.0209375
	minimum = 0.014 (at node 10)
	maximum = 0.033 (at node 12)
Injected packet length average = 1
Accepted packet length average = 1
Total in-flight flits = 8 (0 measured)
latency change    = 0.024879
throughput change = 0.0686567
Warmed up ...Time used is 3000 cycles
Class 0:
Packet latency average = 19.4107
	minimum = 7
	maximum = 39
Network latency average = 19.4107
	minimum = 7
	maximum = 39
Slowest packet = 27817
Flit latency average = 19.5657
	minimum = 7
	maximum = 39
Slowest flit = 27817
Fragmentation average = 0
	minimum = 0
	maximum = 0
Injected packet rate average = 0.0204375
	minimum = 0.014 (at node 15)
	maximum = 0.029 (at node 4)
Accepted packet rate average = 0.0204375
	minimum = 0.014 (at node 15)
	maximum = 0.03 (at node 1)
Injected flit rate average = 0.0204375
	minimum = 0.014 (at node 15)
	maximum = 0.029 (at node 4)
Accepted flit rate average= 0.0204375
	minimum = 0.014 (at node 15)
	maximum = 0.03 (at node 1)
Injected packet length average = 1
Accepted packet length average = 1
Total in-flight flits = 8 (8 measured)
latency change    = 0.0349753
throughput change = 0.0244648
Class 0:
Packet latency average = 18.9032
	minimum = 7
	maximum = 44
Network latency average = 18.9032
	minimum = 7
	maximum = 44
Slowest packet = 28239
Flit latency average = 18.9904
	minimum = 7
	maximum = 44
Slowest flit = 28239
Fragmentation average = 0
	minimum = 0
	maximum = 0
Injected packet rate average = 0.0194687
	minimum = 0.0155 (at node 3)
	maximum = 0.0255 (at node 4)
Accepted packet rate average = 0.019625
	minimum = 0.016 (at node 13)
	maximum = 0.026 (at node 1)
Injected flit rate average = 0.0194687
	minimum = 0.0155 (at node 3)
	maximum = 0.0255 (at node 4)
Accepted flit rate average= 0.019625
	minimum = 0.016 (at node 13)
	maximum = 0.026 (at node 1)
Injected packet length average = 1
Accepted packet length average = 1
Total in-flight flits = 3 (3 measured)
latency change    = 0.0268437
throughput change = 0.0414013
Class 0:
Packet latency average = 19.1309
	minimum = 7
	maximum = 44
Network latency average = 19.1309
	minimum = 7
	maximum = 44
Slowest packet = 28239
Flit latency average = 19.1887
	minimum = 7
	maximum = 44
Slowest flit = 28239
Fragmentation average = 0
	minimum = 0
	maximum = 0
Injected packet rate average = 0.0189792
	minimum = 0.015 (at node 3)
	maximum = 0.022 (at node 5)
Accepted packet rate average = 0.0191042
	minimum = 0.0156667 (at node 12)
	maximum = 0.0216667 (at node 1)
Injected flit rate average = 0.0189792
	minimum = 0.015 (at node 3)
	maximum = 0.022 (at node 5)
Accepted flit rate average= 0.0191042
	minimum = 0.0156667 (at node 12)
	maximum = 0.0216667 (at node 1)
Injected packet length average = 1
Accepted packet length average = 1
Total in-flight flits = 2 (2 measured)
latency change    = 0.0119015
throughput change = 0.0272628
Draining all recorded packets ...
Draining remaining packets ...
Time taken is 6042 cycles
Class 0:
Packet latency average = 19.3322
	minimum = 7
	maximum = 38
Network latency average = 19.3322
	minimum = 7
	maximum = 38
Slowest packet = 28952
Flit latency average = 19.3322
	minimum = 7
	maximum = 38
Slowest flit = 28952
Fragmentation average = 0
	minimum = 0
	maximum = 0
Injected packet rate average = 0.019
	minimum = 0.011 (at node 2)
	maximum = 0.026 (at node 10)
Accepted packet rate average = 0.0184375
	minimum = 0.011 (at node 8)
	maximum = 0.026 (at node 10)
Injected flit rate average = 0.019
	minimum = 0.011 (at node 2)
	maximum = 0.026 (at node 10)
Accepted flit rate average= 0.0184375
	minimum = 0.011 (at node 8)
	maximum = 0.026 (at node 10)
Injected packet length average = 1
Accepted packet length average = 1
Total in-flight flits = 9 (0 measured)
latency change    = 1
throughput change = 1
Class 0:
Packet latency average = 19.5875
	minimum = 7
	maximum = 44
Network latency average = 19.5875
	minimum = 7
	maximum = 44
Slowest packet = 29097
Flit latency average = 19.5875
	minimum = 7
	maximum = 44
Slowest flit = 29097
Fragmentation average = 0
	minimum = 0
	maximum = 0
Injected packet rate average = 0.02025
	minimum = 0.014 (at node 7)
	maximum = 0.0245 (at node 3)
Accepted packet rate average = 0.02
	minimum = 0.014 (at node 13)
	maximum = 0.0235 (at node 12)
Injected flit rate average = 0.02025
	minimum = 0.014 (at node 7)
	maximum = 0.0245 (at node 3)
Accepted flit rate average= 0.02
	minimum = 0.014 (at node 13)
	maximum = 0.0235 (at node 12)
Injected packet length average = 1
Accepted packet length average = 1
Total in-flight flits = 8 (0 measured)
latency change    = 0.0130336
throughput change = 0.078125
Class 0:
Packet latency average = 19.8794
	minimum = 7
	maximum = 43
Network latency average = 19.8794
	minimum = 7
	maximum = 43
Slowest packet = 29506
Flit latency average = 19.8794
	minimum = 7
	maximum = 43
Slowest flit = 29506
Fragmentation average = 0
	minimum = 0
	maximum = 0
Injected packet rate average = 0.019875
	minimum = 0.012 (at node 8)
	maximum = 0.029 (at node 6)
Accepted packet rate average = 0.0196875
	minimum = 0.012 (at node 2)
	maximum = 0.028 (at node 9)
Injected flit rate average = 0.019875
	minimum = 0.012 (at node 8)
	maximum = 0.029 (at node 6)
Accepted flit rate average= 0.0196875
	minimum = 0.012 (at node 2)
	maximum = 0.028 (at node 9)
Injected packet length average = 1
Accepted packet length average = 1
Total in-flight flits = 11 (0 measured)
latency change    = 0.0146818
throughput change = 0.015873
Warmed up ...Time used is 3000 cycles
Class 0:
Packet latency average = 20.2917
[...]
Fragmentation average = 0
	minimum = 0
	maximum = 0
Injected packet rate average = 0.020125
	minimum = 0.012 (at node 15)
	maximum = 0.028 (at node 12)
Accepted packet rate average = 0.0199375
	minimum = 0.012 (at node 13)
	maximum = 0.027 (at node 3)
Injected flit rate average = 0.020125
	minimum = 0.012 (at node 15)
	maximum = 0.028 (at node 12)
Accepted flit rate average= 0.0199375
	minimum = 0.012 (at node 13)
	maximum = 0.027 (at node 3)
Injected packet length average = 1
Accepted packet length average = 1
Total in-flight flits = 3 (0 measured)
latency change    = 1
throughput change = 1
Class 0:
Packet latency average = 20.0156
	minimum = 7
	maximum = 45
Network latency average = 20.0156
	minimum = 7
	maximum = 45
Slowest packet = 215032
Flit latency average = 20.0156
	minimum = 7
	maximum = 45
Slowest flit = 215032
Fragmentation average = 0
	minimum = 0
	maximum = 0
Injected packet rate average = 0.0203125
	minimum = 0.0155 (at node 1)
	maximum = 0.0255 (at node 12)
Accepted packet rate average = 0.0200938
	minimum = 0.0155 (at node 4)
	maximum = 0.025 (at node 7)
Injected flit rate average = 0.0203125
	minimum = 0.0155 (at node 1)
	maximum = 0.0255 (at node 12)
Accepted flit rate average= 0.0200938
	minimum = 0.0155 (at node 4)
	maximum = 0.025 (at node 7)
Injected packet length average = 1
Accepted packet length average = 1
Total in-flight flits = 7 (0 measured)
latency change    = 0.0130054
throughput change = 0.00777605
Class 0:
Packet latency average = 20.2763
	minimum = 7
	maximum = 44
Network latency average = 20.2763
	minimum = 7
	maximum = 44
Slowest packet = 215532
Flit latency average = 20.2763
	minimum = 7
	maximum = 44
Slowest flit = 215532
Fragmentation average = 0
	minimum = 0
	maximum = 0
Injected packet rate average = 0.020625
	minimum = 0.016 (at node 5)
	maximum = 0.03 (at node 9)
Accepted packet rate average = 0.0208125
	minimum = 0.015 (at node 15)
	maximum = 0.03 (at node 6)
Injected flit rate average = 0.020625
	minimum = 0.016 (at node 5)
	maximum = 0.03 (at node 9)
Accepted flit rate average= 0.0208125
	minimum = 0.015 (at node 15)
	maximum = 0.03 (at node 6)
Injected packet length average = 1
Accepted packet length average = 1
Total in-flight flits = 4 (0 measured)
latency change    = 0.0128586
throughput change = 0.0345345
Warmed up ...Time used is 3000 cycles
Class 0:
Packet latency average = 20.0521
	minimum = 7
	maximum = 38
Network latency average = 20.0521
	minimum = 7
	maximum = 38
Slowest packet = 215718
Flit latency average = 20.0455
	minimum = 7
	maximum = 38
Slowest flit = 215718
Fragmentation average = 0
	minimum = 0
	maximum = 0
Injected packet rate average = 0.0206875
	minimum = 0.015 (at node 7)
	maximum = 0.027 (at node 13)
Accepted packet rate average = 0.020625
	minimum = 0.015 (at node 13)
	maximum = 0.027 (at node 7)
Injected flit rate average = 0.0206875
	minimum = 0.015 (at node 7)
	maximum = 0.027 (at node 13)
Accepted flit rate average= 0.020625
	minimum = 0.015 (at node 13)
	maximum = 0.027 (at node 7)
Injected packet length average = 1
Accepted packet length average = 1
Total in-flight flits = 5 (5 measured)
latency change    = 0.0111773
throughput change = 0.00909091
Class 0:
Packet latency average = 20.4937
	minimum = 7
	maximum = 40
Network latency average = 20.4937
	minimum = 7
	maximum = 40
Slowest packet = 216142
Flit latency average = 20.4875
	minimum = 7
	maximum = 40
Slowest flit = 216142
Fragmentation average = 0
	minimum = 0
	maximum = 0
Injected packet rate average = 0.0200313
	minimum = 0.0135 (at node 10)
	maximum = 0.0265 (at node 8)
Accepted packet rate average = 0.0200625
	minimum = 0.013 (at node 10)
	maximum = 0.0265 (at node 2)
Injected flit rate average = 0.0200313
	minimum = 0.0135 (at node 10)
	maximum = 0.0265 (at node 8)
Accepted flit rate average= 0.0200625
	minimum = 0.013 (at node 10)
	maximum = 0.0265 (at node 2)
Injected packet length average = 1
Accepted packet length average = 1
Total in-flight flits = 3 (3 measured)
latency change    = 0.0215472
throughput change = 0.0280374
Class 0:
Packet latency average = 20.3001
	minimum = 7
	maximum = 40
Network latency average = 20.3001
	minimum = 7
	maximum = 40
Slowest packet = 216142
Flit latency average = 20.2967
	minimum = 7
	maximum = 40
Slowest flit = 216142
Fragmentation average = 0
	minimum = 0
	maximum = 0
Injected packet rate average = 0.0197292
	minimum = 0.0143333 (at node 5)
	maximum = 0.0253333 (at node 12)
Accepted packet rate average = 0.0197292
	minimum = 0.0143333 (at node 5)
	maximum = 0.0253333 (at node 3)
Injected flit rate average = 0.0197292
	minimum = 0.0143333 (at node 5)
	maximum = 0.0253333 (at node 12)
Accepted flit rate average= 0.0197292
	minimum = 0.0143333 (at node 5)
	maximum = 0.0253333 (at node 3)
Injected packet length average = 1
Accepted packet length average = 1
Total in-flight flits = 4 (4 measured)
latency change    = 0.0095381
throughput change = 0.0168955
Draining all recorded packets ...
Draining remaining packets ...
Time taken is 6044 cycles
Class 0:
Packet latency average = 19.0032
	minimum = 7
	maximum = 37
Network latency average = 19.0032
	minimum = 7
	maximum = 37
Slowest packet = 216632
Flit latency average = 19.0032
	minimum = 7
	maximum = 37
Slowest flit = 216632
Fragmentation average = 0
	minimum = 0
	maximum = 0
Injected packet rate average = 0.02
	minimum = 0.017 (at node 2)
	maximum = 0.024 (at node 0)
Accepted packet rate average = 0.0194375
	minimum = 0.016 (at node 1)
	maximum = 0.024 (at node 0)
Injected flit rate average = 0.02
	minimum = 0.017 (at node 2)
	maximum = 0.024 (at node 0)
Accepted flit rate average= 0.0194375
	minimum = 0.016 (at node 1)
	maximum = 0.024 (at node 0)
Injected packet length average = 1
Accepted packet length average = 1
Total in-flight flits = 9 (0 measured)
latency change    = 1
throughput change = 1
Class 0:
Packet latency average = 19.9969
	minimum = 7
	maximum = 42
Network latency average = 19.9969
	minimum = 7
	maximum = 42
Slowest packet = 217008
Flit latency average = 19.9969
	minimum = 7
	maximum = 42
Slowest flit = 217008
Fragmentation average = 0
	minimum = 0
	maximum = 0
Injected packet rate average = 0.0200313
	minimum = 0.015 (at node 14)
	maximum = 0.024 (at node 1)
Accepted packet rate average = 0.019875
	minimum = 0.015 (at node 10)
	maximum = 0.024 (at node 4)
Injected flit rate average = 0.0200313
	minimum = 0.015 (at node 14)
	maximum = 0.024 (at node 1)
Accepted flit rate average= 0.019875
	minimum = 0.015 (at node 10)
	maximum = 0.024 (at node 4)
Injected packet length average = 1
Accepted packet length average = 1
Total in-flight flits = 5 (0 measured)
latency change    = 0.0496898
throughput change = 0.0220126
Class 0:
Packet latency average = 20.3036
	minimum = 7
	maximum = 40
Network latency average = 20.3036
	minimum = 7
	maximum = 40
Slowest packet = 217532
Flit latency average = 20.3036
	minimum = 7
	maximum = 40
Slowest flit = 217532
Fragmentation average = 0
	minimum = 0
	maximum = 0
Injected packet rate average = 0.021125
	minimum = 0.014 (at node 15)
	maximum = 0.03 (at node 3)
Accepted packet rate average = 0.021
	minimum = 0.014 (at node 15)
	maximum = 0.03 (at node 12)
Injected flit rate average = 0.021125
	minimum = 0.014 (at node 15)
	maximum = 0.03 (at node 3)
Accepted flit rate average= 0.021
	minimum = 0.014 (at node 15)
	maximum = 0.03 (at node 12)
Injected packet length average = 1
Accepted packet length average = 1
Total in-flight flits = 7 (0 measured)
latency change    = 0.0151065
throughput change = 0.0535714
Warmed up ...Time used is 3000 cycles
Class 0:
Packet latency average = 19.5627
	minimum = 7
	maximum = 38
Network latency average = 19.5627
	minimum = 7
	maximum = 38
Slowest packet = 217612
Flit latency average = 19.7902
	minimum = 7
	maximum = 40
Slowest flit = 217602
Fragmentation average = 0
	minimum = 0
	maximum = 0
Injected packet rate average = 0.0176875
	minimum = 0.014 (at node 8)
	maximum = 0.027 (at node 6)
Accepted packet rate average = 0.017875
	minimum = 0.013 (at node 2)
	maximum = 0.027 (at node 9)
Injected flit rate average = 0.0176875
	minimum = 0.014 (at node 8)
	maximum = 0.027 (at node 6)
Accepted flit rate average= 0.017875
	minimum = 0.013 (at node 2)
	maximum = 0.027 (at node 9)
Injected packet length average = 1
Accepted packet length average = 1
Total in-flight flits = 4 (4 measured)
latency change    = 0.0378704
throughput change = 0.174825
Class 0:
Packet latency average = 19.6978
	minimum = 7
	maximum = 40
Network latency average = 19.6978
	minimum = 7
	maximum = 40
Slowest packet = 217991
Flit latency average = 19.8036
	minimum = 7
	maximum = 40
Slowest flit = 217602
Fragmentation average = 0
	minimum = 0
	maximum = 0
Injected packet rate average = 0.0189687
	minimum = 0.0135 (at node 9)
	maximum = 0.024 (at node 7)
Accepted packet rate average = 0.0189375
	minimum = 0.013 (at node 6)
	maximum = 0.0245 (at node 13)
Injected flit rate average = 0.0189687
	minimum = 0.0135 (at node 9)
	maximum = 0.024 (at node 7)
Accepted flit rate average= 0.0189375
	minimum = 0.013 (at node 6)
	maximum = 0.0245 (at node 13)
Injected packet length average = 1
Accepted packet length average = 1
Total in-flight flits = 8 (8 measured)
latency change    = 0.00685891
throughput change = 0.0561056
Class 0:
Packet latency average = 19.9549
	minimum = 7
	maximum = 40
Network latency average = 19.9549
	minimum = 7
	maximum = 40
Slowest packet = 217991
Flit latency average = 20.0213
	minimum = 7
	maximum = 40
Slowest flit = 217602
Fragmentation average = 0
	minimum = 0
	maximum = 0
Injected packet rate average = 0.0195417
	minimum = 0.0156667 (at node 9)
	maximum = 0.0276667 (at node 7)
Accepted packet rate average = 0.0195417
	minimum = 0.0156667 (at node 6)
	maximum = 0.028 (at node 13)
Injected flit rate average = 0.0195417
	minimum = 0.0156667 (at node 9)
	maximum = 0.0276667 (at node 7)
Accepted flit rate average= 0.0195417
	minimum = 0.0156667 (at node 6)
	maximum = 0.028 (at node 13)
Injected packet length average = 1
Accepted packet length average = 1
Total in-flight flits = 7 (7 measured)
latency change    = 0.0128819
throughput change = 0.0309168
Class 0:
Packet latency average = 19.5067
	minimum = 7
	maximum = 42
Network latency average = 19.5067
	minimum = 7
	maximum = 42
Slowest packet = 218753
Flit latency average = 19.5583
	minimum = 7
	maximum = 42
Slowest flit = 218753
Fragmentation average = 0
	minimum = 0
	maximum = 0
Injected packet rate average = 0.0198125
	minimum = 0.0155 (at node 9)
	maximum = 0.0265 (at node 7)
Accepted packet rate average = 0.0198438
	minimum = 0.0155 (at node 6)
	maximum = 0.02675 (at node 13)
Injected flit rate average = 0.0198125
	minimum = 0.0155 (at node 9)
	maximum = 0.0265 (at node 7)
Accepted flit rate average= 0.0198438
	minimum = 0.0155 (at node 6)
	maximum = 0.02675 (at node 13)
Injected packet length average = 1
Accepted packet length average = 1
Total in-flight flits = 5 (5 measured)
latency change    = 0.0229745
throughput change = 0.0152231
Class 0:
Packet latency average = 19.3321
	minimum = 7
	maximum = 42
Network latency average = 19.3321
	minimum = 7
	maximum = 42
Slowest packet = 218753
Flit latency average = 19.3743
	minimum = 7
	maximum = 42
Slowest flit = 218753
Fragmentation average = 0
	minimum = 0
	maximum = 0
Injected packet rate average = 0.019725
	minimum = 0.0166 (at node 9)
	maximum = 0.024 (at node 7)
Accepted packet rate average = 0.0197375
	minimum = 0.0164 (at node 6)
	maximum = 0.024 (at node 13)
Injected flit rate average = 0.019725
	minimum = 0.0166 (at node 9)
	maximum = 0.024 (at node 7)
Accepted flit rate average= 0.0197375
	minimum = 0.0164 (at node 6)
	maximum = 0.024 (at node 13)
Injected packet length average = 1
Accepted packet length average = 1
Total in-flight flits = 6 (6 measured)
latency change    = 0.00903519
throughput change = 0.00538315
Draining all recorded packets ...
Draining remaining packets ...
Time taken is 8065 cycles
Class 0:
Packet latency average = 20.4301
	minimum = 7
	maximum = 42
Network latency average = 20.4301
	minimum = 7
	maximum = 42
Slowest packet = 219235
Flit latency average = 20.4301
	minimum = 7
	maximum = 42
Slowest flit = 219235
Fragmentation average = 0
	minimum = 0
	maximum = 0
Injected packet rate average = 0.0176875
	minimum = 0.01 (at node 14)
	maximum = 0.026 (at node 9)
Accepted packet rate average = 0.0174375
	minimum = 0.01 (at node 11)
	maximum = 0.026 (at node 6)
Injected flit rate average = 0.0176875
	minimum = 0.01 (at node 14)
	maximum = 0.026 (at node 9)
Accepted flit rate average= 0.0174375
	minimum = 0.01 (at node 11)
	maximum = 0.026 (at node 6)
Injected packet length average = 1
Accepted packet length average = 1
Total in-flight flits = 4 (0 measured)
latency change    = 1
throughput change = 1
Class 0:
Packet latency average = 19.5147
	minimum = 7
	maximum = 42
Network latency average = 19.5147
	minimum = 7
	maximum = 42
Slowest packet = 219235
Flit latency average = 19.5147
	minimum = 7
	maximum = 42
Slowest flit = 219235
Fragmentation average = 0
	minimum = 0
	maximum = 0
Injected packet rate average = 0.019375
	minimum = 0.0135 (at node 14)
	maximum = 0.026 (at node 5)
Accepted packet rate average = 0.0191875
	minimum = 0.0135 (at node 11)
	maximum = 0.026 (at node 5)
Injected flit rate average = 0.019375
	minimum = 0.0135 (at node 14)
	maximum = 0.026 (at node 5)
Accepted flit rate average= 0.0191875
	minimum = 0.0135 (at node 11)
	maximum = 0.026 (at node 5)
Injected packet length average = 1
Accepted packet length average = 1
Total in-flight flits = 6 (0 measured)
latency change    = 0.0469109
throughput change = 0.0912052
Class 0:
Packet latency average = 19.764
	minimum = 7
	maximum = 38
Network latency average = 19.764
	minimum = 7
	maximum = 38
Slowest packet = 219851
Flit latency average = 19.764
	minimum = 7
	maximum = 38
Slowest flit = 219851
Fragmentation average = 0
	minimum = 0
	maximum = 0
Injected packet rate average = 0.0215625
	minimum = 0.013 (at node 7)
	maximum = 0.034 (at node 13)
Accepted packet rate average = 0.0211875
	minimum = 0.012 (at node 13)
	maximum = 0.035 (at node 7)
Injected flit rate average = 0.0215625
	minimum = 0.013 (at node 7)
	maximum = 0.034 (at node 13)
Accepted flit rate average= 0.0211875
	minimum = 0.012 (at node 13)
	maximum = 0.035 (at node 7)
Injected packet length average = 1
Accepted packet length average = 1
Total in-flight flits = 12 (0 measured)
latency change    = 0.0126166
throughput change = 0.0943953
Warmed up ...Time used is 3000 cycles
Class 0:
Packet latency average = 20.0101
	minimum = 7
	maximum = 38
Network latency average = 20.0101
	minimum = 7
	maximum = 38
Slowest packet = 220413
Flit latency average = 20.0226
	minimum = 7
	maximum = 38
Slowest flit = 220413
Fragmentation average = 0
	minimum = 0
	maximum = 0
Injected packet rate average = 0.0189375
	minimum = 0.012 (at node 1)
	maximum = 0.031 (at node 2)
Accepted packet rate average = 0.019375
	minimum = 0.013 (at node 4)
	maximum = 0.031 (at node 8)
Injected flit rate average = 0.0189375
	minimum = 0.012 (at node 1)
	maximum = 0.031 (at node 2)
Accepted flit rate average= 0.019375
	minimum = 0.013 (at node 4)
	maximum = 0.031 (at node 8)
Injected packet length average = 1
Accepted packet length average = 1
Total in-flight flits = 5 (5 measured)
latency change    = 0.0122966
throughput change = 0.0935484
Class 0:
Packet latency average = 20.053
	minimum = 7
	maximum = 47
Network latency average = 20.053
	minimum = 7
	maximum = 47
Slowest packet = 220613
Flit latency average = 20.0582
	minimum = 7
	maximum = 47
Slowest flit = 220613
Fragmentation average = 0
	minimum = 0
	maximum = 0
Injected packet rate average = 0.02025
	minimum = 0.0125 (at node 14)
	maximum = 0.0255 (at node 2)
Accepted packet rate average = 0.0204063
	minimum = 0.0125 (at node 11)
	maximum = 0.025 (at node 8)
Injected flit rate average = 0.02025
	minimum = 0.0125 (at node 14)
	maximum = 0.0255 (at node 2)
Accepted flit rate average= 0.0204063
	minimum = 0.0125 (at node 11)
	maximum = 0.025 (at node 8)
Injected packet length average = 1
Accepted packet length average = 1
Total in-flight flits = 7 (7 measured)
latency change    = 0.00214307
throughput change = 0.050536
Class 0:
Packet latency average = 19.7167
	minimum = 7
	maximum = 47
Network latency average = 19.7167
	minimum = 7
	maximum = 47
Slowest packet = 220613
Flit latency average = 19.7245
	minimum = 7
	maximum = 47
Slowest flit = 220613
Fragmentation average = 0
	minimum = 0
	maximum = 0
Injected packet rate average = 0.0197083
	minimum = 0.013 (at node 14)
	maximum = 0.0226667 (at node 2)
Accepted packet rate average = 0.0198125
	minimum = 0.0126667 (at node 11)
	maximum = 0.0226667 (at node 8)
Injected flit rate average = 0.0197083
	minimum = 0.013 (at node 14)
	maximum = 0.0226667 (at node 2)
Accepted flit rate average= 0.0198125
	minimum = 0.0126667 (at node 11)
	maximum = 0.0226667 (at node 8)
Injected packet length average = 1
Accepted packet length average = 1
Total in-flight flits = 7 (7 measured)
latency change    = 0.0170577
throughput change = 0.0299685
Class 0:
Packet latency average = 19.8217
	minimum = 7
	maximum = 47
Network latency average = 19.8217
	minimum = 7
	maximum = 47
Slowest packet = 220613
Flit latency average = 19.8264
	minimum = 7
	maximum = 47
Slowest flit = 220613
Fragmentation average = 0
	minimum = 0
	maximum = 0
Injected packet rate average = 0.0202344
	minimum = 0.015 (at node 14)
	maximum = 0.023 (at node 7)
Accepted packet rate average = 0.0203438
	minimum = 0.015 (at node 11)
	maximum = 0.02275 (at node 13)
Injected flit rate average = 0.0202344
	minimum = 0.015 (at node 14)
	maximum = 0.023 (at node 7)
Accepted flit rate average= 0.0203438
	minimum = 0.015 (at node 11)
	maximum = 0.02275 (at node 13)
Injected packet length average = 1
Accepted packet length average = 1
Total in-flight flits = 5 (5 measured)
latency change    = 0.00529649
throughput change = 0.0261137
Class 0:
Packet latency average = 19.8986
	minimum = 7
	maximum = 47
Network latency average = 19.8986
	minimum = 7
	maximum = 47
Slowest packet = 220613
Flit latency average = 19.9018
	minimum = 7
	maximum = 47
Slowest flit = 220613
Fragmentation average = 0
	minimum = 0
	maximum = 0
Injected packet rate average = 0.02045
	minimum = 0.0152 (at node 14)
	maximum = 0.0228 (at node 7)
Accepted packet rate average = 0.0204875
	minimum = 0.0152 (at node 11)
	maximum = 0.0226 (at node 8)
Injected flit rate average = 0.02045
	minimum = 0.0152 (at node 14)
	maximum = 0.0228 (at node 7)
Accepted flit rate average= 0.0204875
	minimum = 0.0152 (at node 11)
	maximum = 0.0226 (at node 8)
Injected packet length average = 1
Accepted packet length average = 1
Total in-flight flits = 9 (9 measured)
latency change    = 0.00386364
throughput change = 0.00701647
Draining all recorded packets ...
Draining remaining packets ...
Time taken is 8041 cycles
====== Overall Traffic Statistics ======
====== Traffic class 0 ======
Packet latency average = 19.57 (100 samples)
	minimum = 7 (100 samples)
	maximum = 43.43 (100 samples)
Network latency average = 19.57 (100 samples)
	minimum = 7 (100 samples)
	maximum = 43.43 (100 samples)
Flit latency average = 19.5968 (100 samples)
	minimum = 7 (100 samples)
	maximum = 43.51 (100 samples)
Fragmentation average = 0 (100 samples)
	minimum = 0 (100 samples)
	maximum = 0 (100 samples)
Injected packet rate average = 0.0200508 (100 samples)
	minimum = 0.0162021 (100 samples)
	maximum = 0.024132 (100 samples)
Accepted packet rate average = 0.0200559 (100 samples)
	minimum = 0.0162011 (100 samples)
	maximum = 0.0241339 (100 samples)
Injected flit rate average = 0.0200508 (100 samples)
	minimum = 0.0162021 (100 samples)
	maximum = 0.024132 (100 samples)
Accepted flit rate average = 0.0200559 (100 samples)
	minimum = 0.0162011 (100 samples)
	maximum = 0.0241339 (100 samples)
Injected packet size average = 1 (100 samples)
Accepted packet size average = 1 (100 samples)
Hops average = 3.50044 (100 samples)
Total run time 10.0322
