BEGIN Configuration File: /tmp/tmpr4mx4yzk.cfg
topology = mesh;
k = 4;
n = 2;
routing_function = gnn_port_score_route_4x4;
num_vcs = 4;
vc_buf_size = 4;
wait_for_tail_credit = 1;
vc_allocator = islip;
sw_allocator = islip;
alloc_iters = 1;
credit_delay = 2;
routing_delay = 1;
vc_alloc_delay = 1;
sw_alloc_delay = 1;
input_speedup = 2;
output_speedup = 1;
internal_speedup = 1.0;
traffic = transpose;
packet_size = 1;
sim_type = latency;
injection_rate = 0.01;
warmup_periods = 3;
sample_period = 1000;
sim_count = 100;
seed = 4;

END Configuration File: /tmp/tmpr4mx4yzk.cfg
Class 0:
Packet latency average = 19.75
	minimum = 7
	maximum = 47
Network latency average = 19.75
	minimum = 7
	maximum = 47
Slowest packet = 40
Flit latency average = 19.75
	minimum = 7
	maximum = 47
Slowest flit = 40
Fragmentation average = 0
	minimum = 0
	maximum = 0
Injected packet rate average = 0.0103125
	minimum = 0.005 (at node 0)
	maximum = 0.015 (at node 10)
Accepted packet rate average = 0.01025
	minimum = 0.005 (at node 0)
	maximum = 0.015 (at node 10)
Injected flit rate average = 0.0103125
	minimum = 0.005 (at node 0)
	maximum = 0.015 (at node 10)
Accepted flit rate average= 0.01025
	minimum = 0.005 (at node 0)
	maximum = 0.015 (at node 10)
Injected packet length average = 1
Accepted packet length average = 1
Total in-flight flits = 1 (0 measured)
latency change    = 1
throughput change = 1
Class 0:
Packet latency average = 19.9085
	minimum = 7
	maximum = 47
Network latency average = 19.9085
	minimum = 7
	maximum = 47
Slowest packet = 40
Flit latency average = 19.9085
	minimum = 7
	maximum = 47
Slowest flit = 40
Fragmentation average = 0
	minimum = 0
	maximum = 0
Injected packet rate average = 0.0099375
	minimum = 0.0055 (at node 11)
	maximum = 0.015 (at node 4)
Accepted packet rate average = 0.00990625
	minimum = 0.0055 (at node 14)
	maximum = 0.015 (at node 1)
Injected flit rate average = 0.0099375
	minimum = 0.0055 (at node 11)
	maximum = 0.015 (at node 4)
Accepted flit rate average= 0.00990625
	minimum = 0.0055 (at node 14)
	maximum = 0.015 (at node 1)
Injected packet length average = 1
Accepted packet length average = 1
Total in-flight flits = 1 (0 measured)
latency change    = 0.00796229
throughput change = 0.0347003
Class 0:
Packet latency average = 20.9552
	minimum = 7
	maximum = 37
Network latency average = 20.9552
	minimum = 7
	maximum = 37
Slowest packet = 317
Flit latency average = 20.9552
	minimum = 7
	maximum = 37
Slowest flit = 317
Fragmentation average = 0
	minimum = 0
	maximum = 0
Injected packet rate average = 0.0085625
	minimum = 0.004 (at node 6)
	maximum = 0.015 (at node 7)
Accepted packet rate average = 0.008375
	minimum = 0.003 (at node 9)
	maximum = 0.015 (at node 3)
Injected flit rate average = 0.0085625
	minimum = 0.004 (at node 6)
	maximum = 0.015 (at node 7)
Accepted flit rate average= 0.008375
	minimum = 0.003 (at node 9)
	maximum = 0.015 (at node 3)
Injected packet length average = 1
Accepted packet length average = 1
Total in-flight flits = 4 (0 measured)
latency change    = 0.0499497
throughput change = 0.182836
Warmed up ...Time used is 3000 cycles
Class 0:
Packet latency average = 19.2209
	minimum = 7
	maximum = 37
Network latency average = 19.2209
	minimum = 7
	maximum = 37
Slowest packet = 457
Flit latency average = 19.1078
	minimum = 7
	maximum = 37
Slowest flit = 457
Fragmentation average = 0
	minimum = 0
	maximum = 0
Injected packet rate average = 0.0104375
	minimum = 0.004 (at node 12)
	maximum = 0.018 (at node 6)
Accepted packet rate average = 0.0104375
	minimum = 0.004 (at node 3)
	maximum = 0.019 (at node 9)
Injected flit rate average = 0.0104375
	minimum = 0.004 (at node 12)
	maximum = 0.018 (at node 6)
Accepted flit rate average= 0.0104375
	minimum = 0.004 (at node 3)
	maximum = 0.019 (at node 9)
Injected packet length average = 1
Accepted packet length average = 1
Total in-flight flits = 4 (4 measured)
latency change    = 0.0902335
throughput change = 0.197605
Class 0:
Packet latency average = 19.2118
	minimum = 7
	maximum = 37
Network latency average = 19.2118
	minimum = 7
	maximum = 37
Slowest packet = 457
Flit latency average = 19.157
	minimum = 7
	maximum = 37
Slowest flit = 457
Fragmentation average = 0
	minimum = 0
	maximum = 0
Injected packet rate average = 0.0108125
	minimum = 0.0055 (at node 4)
	maximum = 0.0155 (at node 6)
Accepted packet rate average = 0.01075
	minimum = 0.0055 (at node 1)
	maximum = 0.016 (at node 9)
Injected flit rate average = 0.0108125
	minimum = 0.0055 (at node 4)
	maximum = 0.0155 (at node 6)
Accepted flit rate average= 0.01075
	minimum = 0.0055 (at node 1)
	maximum = 0.016 (at node 9)
Injected packet length average = 1
Accepted packet length average = 1
Total in-flight flits = 6 (6 measured)
latency change    = 0.000473366
throughput change = 0.0290698
Class 0:
Packet latency average = 18.924
	minimum = 7
	maximum = 37
Network latency average = 18.924
	minimum = 7
	maximum = 37
Slowest packet = 457
Flit latency average = 18.8889
	minimum = 7
	maximum = 37
Slowest flit = 457
Fragmentation average = 0
	minimum = 0
	maximum = 0
Injected packet rate average = 0.0104792
	minimum = 0.00633333 (at node 4)
	maximum = 0.0143333 (at node 14)
Accepted packet rate average = 0.0105
	minimum = 0.00633333 (at node 1)
	maximum = 0.0146667 (at node 11)
Injected flit rate average = 0.0104792
	minimum = 0.00633333 (at node 4)
	maximum = 0.0143333 (at node 14)
Accepted flit rate average= 0.0105
	minimum = 0.00633333 (at node 1)
	maximum = 0.0146667 (at node 11)
Injected packet length average = 1
Accepted packet length average = 1
Total in-flight flits = 3 (3 measured)
latency change    = 0.0152063
throughput change = 0.0238095
Class 0:
Packet latency average = 19.3615
	minimum = 7
	maximum = 37
Network latency average = 19.3615
	minimum = 7
	maximum = 37
Slowest packet = 457
Flit latency average = 19.3328
	minimum = 7
	maximum = 37
Slowest flit = 457
Fragmentation average = 0
	minimum = 0
	maximum = 0
Injected packet rate average = 0.0106094
	minimum = 0.0075 (at node 4)
	maximum = 0.01375 (at node 10)
Accepted packet rate average = 0.0106094
	minimum = 0.0075 (at node 1)
	maximum = 0.014 (at node 10)
Injected flit rate average = 0.0106094
	minimum = 0.0075 (at node 4)
	maximum = 0.01375 (at node 10)
Accepted flit rate average= 0.0106094
	minimum = 0.0075 (at node 1)
	maximum = 0.014 (at node 10)
Injected packet length average = 1
Accepted packet length average = 1
Total in-flight flits = 4 (4 measured)
latency change    = 0.0225955
throughput change = 0.0103093
Draining all recorded packets ...
Draining remaining packets ...
Time taken is 7050 cycles
Class 0:
Packet latency average = 19.4138
	minimum = 7
	maximum = 37
Network latency average = 19.4138
	minimum = 7
	maximum = 37
Slowest packet = 1144
Flit latency average = 19.4138
	minimum = 7
	maximum = 37
Slowest flit = 1144
Fragmentation average = 0
	minimum = 0
	maximum = 0
Injected packet rate average = 0.010875
	minimum = 0.006 (at node 2)
	maximum = 0.016 (at node 10)
Accepted packet rate average = 0.010875
	minimum = 0.006 (at node 8)
	maximum = 0.016 (at node 10)
Injected flit rate average = 0.010875
	minimum = 0.006 (at node 2)
	maximum = 0.016 (at node 10)
Accepted flit rate average= 0.010875
	minimum = 0.006 (at node 8)
	maximum = 0.016 (at node 10)
Injected packet length average = 1
Accepted packet length average = 1
Total in-flight flits = 0 (0 measured)
latency change    = 1
throughput change = 1
Class 0:
Packet latency average = 19.2796
	minimum = 7
	maximum = 37
Network latency average = 19.2796
	minimum = 7
	maximum = 37
Slowest packet = 1144
Flit latency average = 19.2796
	minimum = 7
	maximum = 37
Slowest flit = 1144
Fragmentation average = 0
	minimum = 0
	maximum = 0
Injected packet rate average = 0.0104688
	minimum = 0.0065 (at node 15)
	maximum = 0.0135 (at node 10)
Accepted packet rate average = 0.0102813
	minimum = 0.006 (at node 15)
	maximum = 0.0135 (at node 10)
Injected flit rate average = 0.0104688
	minimum = 0.0065 (at node 15)
	maximum = 0.0135 (at node 10)
Accepted flit rate average= 0.0102813
	minimum = 0.006 (at node 15)
	maximum = 0.0135 (at node 10)
Injected packet length average = 1
Accepted packet length average = 1
Total in-flight flits = 6 (0 measured)
latency change    = 0.00695853
throughput change = 0.0577508
Class 0:
Packet latency average = 18.8182
	minimum = 7
	maximum = 37
Network latency average = 18.8182
	minimum = 7
	maximum = 37
Slowest packet = 1475
Flit latency average = 18.8182
	minimum = 7
	maximum = 37
Slowest flit = 1475
Fragmentation average = 0
	minimum = 0
	maximum = 0
Injected packet rate average = 0.0093125
	minimum = 0.005 (at node 0)
	maximum = 0.015 (at node 15)
Accepted packet rate average = 0.009625
	minimum = 0.005 (at node 0)
	maximum = 0.016 (at node 15)
Injected flit rate average = 0.0093125
	minimum = 0.005 (at node 0)
	maximum = 0.015 (at node 15)
Accepted flit rate average= 0.009625
	minimum = 0.005 (at node 0)
	maximum = 0.016 (at node 15)
Injected packet length average = 1
Accepted packet length average = 1
Total in-flight flits = 1 (0 measured)
latency change    = 0.0245217
throughput change = 0.0681818
Warmed up ...Time used is 3000 cycles
Class 0:
Packet latency average = 18.5132
	minimum = 7
	maximum = 37
Network latency average = 18.5132
	minimum = 7
	maximum = 37
Slowest packet = 1638
Flit latency average = 18.5686
	minimum = 7
	maximum = 37
Slowest flit = 1638
Fragmentation average = 0
	minimum = 0
	maximum = 0
Injected packet rate average = 0.0096875
	minimum = 0.005 (at node 12)
	maximum = 0.015 (at node 10)
Accepted packet rate average = 0.0095625
	minimum = 0.005 (at node 3)
	maximum = 0.015 (at node 10)
Injected flit rate average = 0.0096875
	minimum = 0.005 (at node 12)
	maximum = 0.015 (at node 10)
Accepted flit rate average= 0.0095625
	minimum = 0.005 (at node 3)
	maximum = 0.015 (at node 10)
Injected packet length average = 1
Accepted packet length average = 1
Total in-flight flits = 3 (3 measured)
latency change    = 0.0164761
throughput change = 0.00653595
Class 0:
Packet latency average = 18.7621
	minimum = 7
	maximum = 37
Network latency average = 18.7621
	minimum = 7
	maximum = 37
Slowest packet = 1638
Flit latency average = 18.7904
	minimum = 7
	maximum = 37
Slowest flit = 1638
Fragmentation average = 0
	minimum = 0
	maximum = 0
Injected packet rate average = 0.0091875
	minimum = 0.0065 (at node 12)
	maximum = 0.013 (at node 5)
Accepted packet rate average = 0.00909375
	minimum = 0.0065 (at node 3)
	maximum = 0.013 (at node 5)
Injected flit rate average = 0.0091875
	minimum = 0.0065 (at node 12)
	maximum = 0.013 (at node 5)
Accepted flit rate average= 0.00909375
	minimum = 0.0065 (at node 3)
	maximum = 0.013 (at node 5)
Injected packet length average = 1
Accepted packet length average = 1
Total in-flight flits = 4 (4 measured)
latency change    = 0.0132667
throughput change = 0.0515464
Class 0:
Packet latency average = 18.6208
	minimum = 7
	maximum = 37
Network latency average = 18.6208
	minimum = 7
	maximum = 37
Slowest packet = 1638
Flit latency average = 18.6394
	minimum = 7
	maximum = 37
Slowest flit = 1638
Fragmentation average = 0
	minimum = 0
	maximum = 0
Injected packet rate average = 0.00941667
	minimum = 0.00633333 (at node 7)
	maximum = 0.0136667 (at node 5)
Accepted packet rate average = 0.00941667
	minimum = 0.00633333 (at node 13)
	maximum = 0.0136667 (at node 5)
Injected flit rate average = 0.00941667
	minimum = 0.00633333 (at node 7)
	maximum = 0.0136667 (at node 5)
Accepted flit rate average= 0.00941667
	minimum = 0.00633333 (at node 13)
	maximum = 0.0136667 (at node 5)
Injected packet length average = 1
Accepted packet length average = 1
Total in-flight flits = 1 (1 measured)
latency change    = 0.00758432
throughput change = 0.034292
Class 0:
Packet latency average = 18.5703
	minimum = 7
	maximum = 37
Network latency average = 18.5703
	minimum = 7
	maximum = 37
Slowest packet = 1638
Flit latency average = 18.584
	minimum = 7
	maximum = 37
Slowest flit = 1638
Fragmentation average = 0
	minimum = 0
	maximum = 0
Injected packet rate average = 0.00965625
	minimum = 0.007 (at node 12)
	maximum = 0.01275 (at node 5)
Accepted packet rate average = 0.00957812
	minimum = 0.007 (at node 3)
	maximum = 0.0125 (at node 5)
Injected flit rate average = 0.00965625
	minimum = 0.007 (at node 12)
	maximum = 0.01275 (at node 5)
Accepted flit rate average= 0.00957812
	minimum = 0.007 (at node 3)
	maximum = 0.0125 (at node 5)
Injected packet length average = 1
Accepted packet length average = 1
Total in-flight flits = 6 (6 measured)
latency change    = 0.00272377
throughput change = 0.016857
Class 0:
Packet latency average = 18.828
	minimum = 7
	maximum = 45
Network latency average = 18.828
	minimum = 7
	maximum = 45
Slowest packet = 2272
Flit latency average = 18.8389
	minimum = 7
	maximum = 45
Slowest flit = 2272
Fragmentation average = 0
	minimum = 0
	maximum = 0
Injected packet rate average = 0.0093125
	minimum = 0.0064 (at node 12)
	maximum = 0.0116 (at node 8)
Accepted packet rate average = 0.0093125
	minimum = 0.0064 (at node 3)
	maximum = 0.0116 (at node 2)
Injected flit rate average = 0.0093125
	minimum = 0.0064 (at node 12)
	maximum = 0.0116 (at node 8)
Accepted flit rate average= 0.0093125
	minimum = 0.0064 (at node 3)
	maximum = 0.0116 (at node 2)
Injected packet length average = 1
Accepted packet length average = 1
Total in-flight flits = 1 (1 measured)
latency change    = 0.0136869
throughput change = 0.0285235
Draining all recorded packets ...
Draining remaining packets ...
Time taken is 8069 cycles
Class 0:
Packet latency average = 19.5455
	minimum = 7
	maximum = 37
Network latency average = 19.5455
	minimum = 7
	maximum = 37
Slowest packet = 2381
Flit latency average = 19.5455
	minimum = 7
	maximum = 37
Slowest flit = 2381
Fragmentation average = 0
	minimum = 0
	maximum = 0
Injected packet rate average = 0.0108125
	minimum = 0.007 (at node 4)
	maximum = 0.015 (at node 7)
Accepted packet rate average = 0.0103125
	minimum = 0.007 (at node 1)
	maximum = 0.014 (at node 13)
Injected flit rate average = 0.0108125
	minimum = 0.007 (at node 4)
	maximum = 0.015 (at node 7)
Accepted flit rate average= 0.0103125
	minimum = 0.007 (at node 1)
	maximum = 0.014 (at node 13)
Injected packet length average = 1
Accepted packet length average = 1
Total in-flight flits = 8 (0 measured)
latency change    = 1
throughput change = 1
Class 0:
Packet latency average = 19.6361
	minimum = 7
	maximum = 38
Network latency average = 19.6361
	minimum = 7
	maximum = 38
Slowest packet = 2544
Flit latency average = 19.6361
	minimum = 7
	maximum = 38
Slowest flit = 2544
Fragmentation average = 0
	minimum = 0
	maximum = 0
Injected packet rate average = 0.0106563
	minimum = 0.008 (at node 6)
	maximum = 0.015 (at node 12)
Accepted packet rate average = 0.0105625
	minimum = 0.0075 (at node 9)
	maximum = 0.015 (at node 3)
Injected flit rate average = 0.0106563
	minimum = 0.008 (at node 6)
	maximum = 0.015 (at node 12)
Accepted flit rate average= 0.0105625
	minimum = 0.0075 (at node 9)
	maximum = 0.015 (at node 3)
Injected packet length average = 1
Accepted packet length average = 1
Total in-flight flits = 3 (0 measured)
latency change    = 0.004616
throughput change = 0.0236686
Class 0:
Packet latency average = 18.7683
	minimum = 7
	maximum = 37
Network latency average = 18.7683
	minimum = 7
	maximum = 37
Slowest packet = 2721
Flit latency average = 18.7683
	minimum = 7
	maximum = 37
Slowest flit = 2721
Fragmentation average = 0
	minimum = 0
	maximum = 0
Injected packet rate average = 0.0103125
	minimum = 0.004 (at node 2)
	maximum = 0.018 (at node 15)
Accepted packet rate average = 0.01025
	minimum = 0.004 (at node 8)
	maximum = 0.018 (at node 15)
Injected flit rate average = 0.0103125
	minimum = 0.004 (at node 2)
	maximum = 0.018 (at node 15)
Accepted flit rate average= 0.01025
	minimum = 0.004 (at node 8)
	maximum = 0.018 (at node 15)
Injected packet length average = 1
Accepted packet length average = 1
Total in-flight flits = 4 (0 measured)
latency change    = 0.0462377
throughput change = 0.0304878
Warmed up ...Time used is 3000 cycles
Class 0:
Packet latency average = 19.3
	minimum = 7
	maximum = 37
Network latency average = 19.3
	minimum = 7
	maximum = 37
Slowest packet = 2887
Flit latency average = 19.4195
	minimum = 7
	maximum = 37
Slowest flit = 2878
Fragmentation average = 0
	minimum = 0
	maximum = 0
Injected packet rate average = 0.01075
	minimum = 0.004 (at node 14)
	maximum = 0.018 (at node 7)
Accepted packet rate average = 0.010875
	minimum = 0.004 (at node 11)
	maximum = 0.018 (at node 0)
Injected flit rate average = 0.01075
	minimum = 0.004 (at node 14)
	maximum = 0.018 (at node 7)
Accepted flit rate average= 0.010875
	minimum = 0.004 (at node 11)
	maximum = 0.018 (at node 0)
Injected packet length average = 1
Accepted packet length average = 1
Total in-flight flits = 2 (2 measured)
latency change    = 0.0275496
throughput change = 0.0574713
Class 0:
Packet latency average = 19.6736
	minimum = 7
	maximum = 37
Network latency average = 19.6736
	minimum = 7
	maximum = 37
Slowest packet = 2887
Flit latency average = 19.7302
	minimum = 7
	maximum = 37
Slowest flit = 2878
Fragmentation average = 0
	minimum = 0
	maximum = 0
Injected packet rate average = 0.0105625
	minimum = 0.007 (at node 5)
	maximum = 0.0145 (at node 4)
Accepted packet rate average = 0.0106563
	minimum = 0.007 (at node 5)
	maximum = 0.015 (at node 1)
Injected flit rate average = 0.0105625
	minimum = 0.007 (at node 5)
	maximum = 0.0145 (at node 4)
Accepted flit rate average= 0.0106563
	minimum = 0.007 (at node 5)
	maximum = 0.015 (at node 1)
Injected packet length average = 1
Accepted packet length average = 1
Total in-flight flits = 1 (1 measured)
latency change    = 0.0189894
throughput change = 0.0205279
Class 0:
Packet latency average = 19.4941
	minimum = 7
	maximum = 37
Network latency average = 19.4941
	minimum = 7
	maximum = 37
Slowest packet = 2887
Flit latency average = 19.5333
	minimum = 7
	maximum = 37
Slowest flit = 2878
Fragmentation average = 0
	minimum = 0
	maximum = 0
Injected packet rate average = 0.0105625
	minimum = 0.007 (at node 5)
	maximum = 0.0146667 (at node 4)
Accepted packet rate average = 0.010625
	minimum = 0.007 (at node 5)
	maximum = 0.015 (at node 1)
Injected flit rate average = 0.0105625
	minimum = 0.007 (at node 5)
	maximum = 0.0146667 (at node 4)
Accepted flit rate average= 0.010625
	minimum = 0.007 (at node 5)
	maximum = 0.015 (at node 1)
Injected packet length average = 1
Accepted packet length average = 1
Total in-flight flits = 1 (1 measured)
latency change    = 0.00920892
throughput change = 0.00294118
Class 0:
Packet latency average = 19.2993
	minimum = 7
	maximum = 37
Network latency average = 19.2993
	minimum = 7
	maximum = 37
Slowest packet = 2887
Flit latency average = 19.3299
	minimum = 7
	maximum = 37
Slowest flit = 2878
Fragmentation average = 0
	minimum = 0
	maximum = 0
Injected packet rate average = 0.0105938
	minimum = 0.0075 (at node 5)
	maximum = 0.01525 (at node 4)
Accepted packet rate average = 0.0106094
	minimum = 0.0075 (at node 5)
	maximum = 0.0155 (at node 1)
Injected flit rate average = 0.0105938
	minimum = 0.0075 (at node 5)
	maximum = 0.01525 (at node 4)
Accepted flit rate average= 0.0106094
	minimum = 0.0075 (at node 5)
	maximum = 0.0155 (at node 1)
Injected packet length average = 1
Accepted packet length average = 1
Total in-flight flits = 3 (3 measured)
latency change    = 0.0100943
throughput change = 0.00147275
Draining all recorded packets ...
Draining remaining packets ...
Time taken is 7024 cycles
Class 0:
Packet latency average = 19.1429
	minimum = 7
	maximum = 37
Network latency average = 19.1429
	minimum = 7
	maximum = 37
Slowest packet = 3565
Flit latency average = 19.1429
	minimum = 7
	maximum = 37
Slowest flit = 3565
Fragmentation average = 0
	minimum = 0
	maximum = 0
Injected packet rate average = 0.0089375
	minimum = 0.004 (at node 6)
	maximum = 0.016 (at node 15)
Accepted packet rate average = 0.00875
	minimum = 0.004 (at node 9)
	maximum = 0.016 (at node 15)
Injected flit rate average = 0.0089375
	minimum = 0.004 (at node 6)
	maximum = 0.016 (at node 15)
Accepted flit rate average= 0.00875
	minimum = 0.004 (at node 9)
	maximum = 0.016 (at node 15)
Injected packet length average = 1
Accepted packet length average = 1
Total in-flight flits = 3 (0 measured)
latency change    = 1
throughput change = 1
Class 0:
Packet latency average = 19.4106
	minimum = 7
	maximum = 37
Network latency average = 19.4106
	minimum = 7
	maximum = 37
Slowest packet = 3565
Flit latency average = 19.4106
	minimum = 7
	maximum = 37
Slowest flit = 3565
Fragmentation average = 0
	minimum = 0
	maximum = 0
Injected packet rate average = 0.0095
	minimum = 0.0045 (at node 7)
	maximum = 0.0135 (at node 15)
Accepted packet rate average = 0.0094375
	minimum = 0.0045 (at node 13)
	maximum = 0.0135 (at node 15)
Injected flit rate average = 0.0095
	minimum = 0.0045 (at node 7)
	maximum = 0.0135 (at node 15)
Accepted flit rate average= 0.0094375
	minimum = 0.0045 (at node 13)
	maximum = 0.0135 (at node 15)
Injected packet length average = 1
Accepted packet length average = 1
Total in-flight flits = 2 (0 measured)
latency change    = 0.0137934
throughput change = 0.0728477
Class 0:
Packet latency average = 20.5092
	minimum = 7
	maximum = 45
Network latency average = 20.5092
	minimum = 7
	maximum = 45
Slowest packet = 3867
Flit latency average = 20.5092
	minimum = 7
	maximum = 45
Slowest flit = 3867
Fragmentation average = 0
	minimum = 0
	maximum = 0
Injected packet rate average = 0.0103125
	minimum = 0.005 (at node 9)
	maximum = 0.016 (at node 8)
Accepted packet rate average = 0.0101875
	minimum = 0.004 (at node 6)
	maximum = 0.016 (at node 2)
Injected flit rate average = 0.0103125
	minimum = 0.005 (at node 9)
	maximum = 0.016 (at node 8)
Accepted flit rate average= 0.0101875
	minimum = 0.004 (at node 6)
	maximum = 0.016 (at node 2)
Injected packet length average = 1
Accepted packet length average = 1
Total in-flight flits = 4 (0 measured)
latency change    = 0.0535665
throughput change = 0.0736196
Warmed up ...Time used is 3000 cycles
Class 0:
Packet latency average = 18.5436
	minimum = 7
	maximum = 37
Network latency average = 18.5436
	minimum = 7
	maximum = 37
Slowest packet = 4031
Flit latency average = 18.634
	minimum = 7
	maximum = 37
Slowest flit = 4028
Fragmentation average = 0
	minimum = 0
	maximum = 0
Injected packet rate average = 0.0095
	minimum = 0.006 (at node 3)
	maximum = 0.014 (at node 13)
Accepted packet rate average = 0.0095625
	minimum = 0.006 (at node 9)
	maximum = 0.015 (at node 7)
Injected flit rate average = 0.0095
	minimum = 0.006 (at node 3)
	maximum = 0.014 (at node 13)
Accepted flit rate average= 0.0095625
	minimum = 0.006 (at node 9)
	maximum = 0.015 (at node 7)
Injected packet length average = 1
Accepted packet length average = 1
Total in-flight flits = 3 (3 measured)
latency change    = 0.105998
throughput change = 0.0653595
Class 0:
Packet latency average = 19.0129
	minimum = 7
	maximum = 37
Network latency average = 19.0129
	minimum = 7
	maximum = 37
Slowest packet = 4031
Flit latency average = 19.0511
	minimum = 7
	maximum = 37
Slowest flit = 4028
Fragmentation average = 0
	minimum = 0
	maximum = 0
Injected packet rate average = 0.00971875
	minimum = 0.0075 (at node 3)
	maximum = 0.013 (at node 14)
Accepted packet rate average = 0.00978125
	minimum = 0.008 (at node 3)
	maximum = 0.0125 (at node 11)
Injected flit rate average = 0.00971875
	minimum = 0.0075 (at node 3)
	maximum = 0.013 (at node 14)
Accepted flit rate average= 0.00978125
	minimum = 0.008 (at node 3)
	maximum = 0.0125 (at node 11)
Injected packet length average = 1
Accepted packet length average = 1
Total in-flight flits = 2 (2 measured)
latency change    = 0.0246843
throughput change = 0.0223642
Class 0:
Packet latency average = 19.2309
	minimum = 7
	maximum = 37
Network latency average = 19.2309
	minimum = 7
	maximum = 37
Slowest packet = 4031
Flit latency average = 19.2536
	minimum = 7
	maximum = 37
Slowest flit = 4028
Fragmentation average = 0
	minimum = 0
	maximum = 0
Injected packet rate average = 0.010125
	minimum = 0.008 (at node 12)
	maximum = 0.012 (at node 7)
Accepted packet rate average = 0.0101875
	minimum = 0.008 (at node 3)
	maximum = 0.012 (at node 13)
Injected flit rate average = 0.010125
	minimum = 0.008 (at node 12)
	maximum = 0.012 (at node 7)
Accepted flit rate average= 0.0101875
	minimum = 0.008 (at node 3)
	maximum = 0.012 (at node 13)
Injected packet length average = 1
Accepted packet length average = 1
Total in-flight flits = 1 (1 measured)
latency change    = 0.011335
throughput change = 0.0398773
Class 0:
Packet latency average = 19.2391
	minimum = 7
	maximum = 37
Network latency average = 19.2391
	minimum = 7
	maximum = 37
Slowest packet = 4031
Flit latency average = 19.2562
	minimum = 7
	maximum = 37
Slowest flit = 4028
Fragmentation average = 0
	minimum = 0
	maximum = 0
Injected packet rate average = 0.0100938
	minimum = 0.008 (at node 3)
	maximum = 0.012 (at node 7)
Accepted packet rate average = 0.010125
	minimum = 0.00825 (at node 12)
	maximum = 0.012 (at node 13)
Injected flit rate average = 0.0100938
	minimum = 0.008 (at node 3)
	maximum = 0.012 (at node 7)
Accepted flit rate average= 0.010125
	minimum = 0.00825 (at node 12)
	maximum = 0.012 (at node 13)
Injected packet length average = 1
Accepted packet length average = 1
Total in-flight flits = 2 (2 measured)
latency change    = 0.00042635
throughput change = 0.00617284
Draining all recorded packets ...
Draining remaining packets ...
Time taken is 7037 cycles
Class 0:
Packet latency average = 19.6606
	minimum = 7
	maximum = 45
Network latency average = 19.6606
	minimum = 7
	maximum = 45
Slowest packet = 4819
Flit latency average = 19.6606
	minimum = 7
	maximum = 45
Slowest flit = 4819
Fragmentation average = 0
	minimum = 0
	maximum = 0
Injected packet rate average = 0.0103125
	minimum = 0.007 (at node 0)
	maximum = 0.016 (at node 6)
Accepted packet rate average = 0.0103125
	minimum = 0.007 (at node 0)
	maximum = 0.016 (at node 9)
Injected flit rate average = 0.0103125
	minimum = 0.007 (at node 0)
	maximum = 0.016 (at node 6)
Accepted flit rate average= 0.0103125
	minimum = 0.007 (at node 0)
	maximum = 0.016 (at node 9)
Injected packet length average = 1
Accepted packet length average = 1
Total in-flight flits = 0 (0 measured)
latency change    = 1
throughput change = 1
Class 0:
Packet latency average = 18.9431
	minimum = 7
	maximum = 45
Network latency average = 18.9431
	minimum = 7
	maximum = 45
Slowest packet = 4819
Flit latency average = 18.9431
	minimum = 7
	maximum = 45
Slowest flit = 4819
Fragmentation average = 0
	minimum = 0
	maximum = 0
Injected packet rate average = 0.0105625
	minimum = 0.0065 (at node 13)
	maximum = 0.017 (at node 6)
Accepted packet rate average = 0.0104375
	minimum = 0.0065 (at node 7)
	maximum = 0.017 (at node 9)
Injected flit rate average = 0.0105625
	minimum = 0.0065 (at node 13)
	maximum = 0.017 (at node 6)
Accepted flit rate average= 0.0104375
	minimum = 0.0065 (at node 7)
	maximum = 0.017 (at node 9)
Injected packet length average = 1
Accepted packet length average = 1
Total in-flight flits = 4 (0 measured)
latency change    = 0.0378762
throughput change = 0.011976
Class 0:
Packet latency average = 19.8276
	minimum = 7
	maximum = 37
Network latency average = 19.8276
	minimum = 7
	maximum = 37
Slowest packet = 5014
Flit latency average = 19.8276
	minimum = 7
	maximum = 37
Slowest flit = 5014
Fragmentation average = 0
	minimum = 0
	maximum = 0
Injected packet rate average = 0.0090625
	minimum = 0.002 (at node 4)
	maximum = 0.016 (at node 2)
Accepted packet rate average = 0.0090625
	minimum = 0.001 (at node 1)
	maximum = 0.014 (at node 8)
Injected flit rate average = 0.0090625
	minimum = 0.002 (at node 4)
	maximum = 0.016 (at node 2)
Accepted flit rate average= 0.0090625
	minimum = 0.001 (at node 1)
	maximum = 0.014 (at node 8)
Injected packet length average = 1
Accepted packet length average = 1
Total in-flight flits = 4 (0 measured)
latency change    = 0.0446082
throughput change = 0.151724
Warmed up ...Time used is 3000 cycles
Class 0:
Packet latency average = 18.4916
	minimum = 7
	maximum = 37
Network latency average = 18.4916
	minimum = 7
	maximum = 37
Slowest packet = 5165
Flit latency average = 18.623
	minimum = 7
	maximum = 37
Slowest flit = 5165
Fragmentation average = 0
	minimum = 0
	maximum = 0
Injected packet rate average = 0.011375
	minimum = 0.005 (at node 3)
	maximum = 0.016 (at node 6)
Accepted packet rate average = 0.0114375
	minimum = 0.005 (at node 12)
	maximum = 0.016 (at node 9)
Injected flit rate average = 0.011375
	minimum = 0.005 (at node 3)
	maximum = 0.016 (at node 6)
Accepted flit rate average= 0.0114375
	minimum = 0.005 (at node 12)
	maximum = 0.016 (at node 9)
Injected packet length average = 1
Accepted packet length average = 1
Total in-flight flits = 3 (3 measured)
latency change    = 0.0722471
throughput change = 0.20765
Class 0:
Packet latency average = 19.1715
	minimum = 7
	maximum = 37
Network latency average = 19.1715
	minimum = 7
	maximum = 37
Slowest packet = 5165
Flit latency average = 19.2328
	minimum = 7
	maximum = 37
Slowest flit = 5165
Fragmentation average = 0
	minimum = 0
	maximum = 0
Injected packet rate average = 0.0108437
	minimum = 0.0065 (at node 8)
	maximum = 0.015 (at node 14)
Accepted packet rate average = 0.010875
	minimum = 0.0065 (at node 2)
	maximum = 0.015 (at node 11)
Injected flit rate average = 0.0108437
	minimum = 0.0065 (at node 8)
	maximum = 0.015 (at node 14)
Accepted flit rate average= 0.010875
	minimum = 0.0065 (at node 2)
	maximum = 0.015 (at node 11)
Injected packet length average = 1
Accepted packet length average = 1
Total in-flight flits = 3 (3 measured)
latency change    = 0.0354636
throughput change = 0.0517241
Class 0:
Packet latency average = 19.1808
	minimum = 7
	maximum = 37
Network latency average = 19.1808
	minimum = 7
	maximum = 37
Slowest packet = 5165
Flit latency average = 19.2214
	minimum = 7
	maximum = 37
Slowest flit = 5165
Fragmentation average = 0
	minimum = 0
	maximum = 0
Injected packet rate average = 0.010875
	minimum = 0.008 (at node 5)
	maximum = 0.0146667 (at node 11)
Accepted packet rate average = 0.0109167
	minimum = 0.008 (at node 5)
	maximum = 0.0146667 (at node 14)
Injected flit rate average = 0.010875
	minimum = 0.008 (at node 5)
	maximum = 0.0146667 (at node 11)
Accepted flit rate average= 0.0109167
	minimum = 0.008 (at node 5)
	maximum = 0.0146667 (at node 14)
Injected packet length average = 1
Accepted packet length average = 1
Total in-flight flits = 2 (2 measured)
latency change    = 0.00048265
throughput change = 0.00381679
Class 0:
Packet latency average = 19.4267
	minimum = 7
	maximum = 37
Network latency average = 19.4267
	minimum = 7
	maximum = 37
Slowest packet = 5165
Flit latency average = 19.456
	minimum = 7
	maximum = 37
Slowest flit = 5165
Fragmentation average = 0
	minimum = 0
	maximum = 0
Injected packet rate average = 0.0108594
	minimum = 0.00875 (at node 2)
	maximum = 0.0145 (at node 13)
Accepted packet rate average = 0.0108281
	minimum = 0.009 (at node 12)
	maximum = 0.0145 (at node 7)
Injected flit rate average = 0.0108594
	minimum = 0.00875 (at node 2)
	maximum = 0.0145 (at node 13)
Accepted flit rate average= 0.0108281
	minimum = 0.009 (at node 12)
	maximum = 0.0145 (at node 7)
Injected packet length average = 1
Accepted packet length average = 1
Total in-flight flits = 6 (6 measured)
latency change    = 0.0126597
throughput change = 0.00817701
Class 0:
Packet latency average = 19.4273
	minimum = 7
	maximum = 37
Network latency average = 19.4273
	minimum = 7
	maximum = 37
Slowest packet = 5165
Flit latency average = 19.4506
	minimum = 7
	maximum = 37
Slowest flit = 5165
Fragmentation average = 0
	minimum = 0
	maximum = 0
Injected packet rate average = 0.0108875
	minimum = 0.0086 (at node 3)
	maximum = 0.014 (at node 13)
Accepted packet rate average = 0.010875
	minimum = 0.0084 (at node 12)
	maximum = 0.0142 (at node 7)
Injected flit rate average = 0.0108875
	minimum = 0.0086 (at node 3)
	maximum = 0.014 (at node 13)
Accepted flit rate average= 0.010875
	minimum = 0.0084 (at node 12)
	maximum = 0.0142 (at node 7)
Injected packet length average = 1
Accepted packet length average = 1
Total in-flight flits = 5 (5 measured)
latency change    = 2.81235e-05
throughput change = 0.00431034
Draining all recorded packets ...
Draining remaining packets ...
Time taken is 8033 cycles
Class 0:
Packet latency average = 18.6624
	minimum = 7
	maximum = 38
Network latency average = 18.6624
	minimum = 7
	maximum = 38
Slowest packet = 6182
Flit latency average = 18.6624
	minimum = 7
	maximum = 38
Slowest flit = 6182
Fragmentation average = 0
	minimum = 0
	maximum = 0
Injected packet rate average = 0.0099375
	minimum = 0.005 (at node 7)
	maximum = 0.015 (at node 11)
Accepted packet rate average = 0.0098125
	minimum = 0.005 (at node 13)
	maximum = 0.015 (at node 14)
Injected flit rate average = 0.0099375
	minimum = 0.005 (at node 7)
	maximum = 0.015 (at node 11)
Accepted flit rate average= 0.0098125
	minimum = 0.005 (at node 13)
	maximum = 0.015 (at node 14)
Injected packet length average = 1
Accepted packet length average = 1
Total in-flight flits = 2 (0 measured)
latency change    = 1
throughput change = 1
Class 0:
Packet latency average = 19.0948
	minimum = 7
	maximum = 38
Network latency average = 19.0948
	minimum = 7
	maximum = 38
Slowest packet = 6182
Flit latency average = 19.0948
	minimum = 7
	maximum = 38
Slowest flit = 6182
Fragmentation average = 0
	minimum = 0
	maximum = 0
Injected packet rate average = 0.00965625
	minimum = 0.008 (at node 2)
	maximum = 0.014 (at node 11)
Accepted packet rate average = 0.0095625
	minimum = 0.008 (at node 1)
	maximum = 0.0135 (at node 14)
Injected flit rate average = 0.00965625
	minimum = 0.008 (at node 2)
	maximum = 0.014 (at node 11)
Accepted flit rate average= 0.0095625
	minimum = 0.008 (at node 1)
	maximum = 0.0135 (at node 14)
Injected packet length average = 1
Accepted packet length average = 1
Total in-flight flits = 3 (0 measured)
latency change    = 0.0226424
throughput change = 0.0261438
Class 0:
Packet latency average = 21.0189
	minimum = 7
	maximum = 46
Network latency average = 21.0189
	minimum = 7
	maximum = 46
Slowest packet = 6447
Flit latency average = 21.0189
	minimum = 7
	maximum = 46
Slowest flit = 6447
Fragmentation average = 0
	minimum = 0
	maximum = 0
Injected packet rate average = 0.01
	minimum = 0.005 (at node 13)
	maximum = 0.016 (at node 7)
Accepted packet rate average = 0.0099375
	minimum = 0.005 (at node 6)
	maximum = 0.016 (at node 13)
Injected flit rate average = 0.01
	minimum = 0.005 (at node 13)
	maximum = 0.016 (at node 7)
Accepted flit rate average= 0.0099375
	minimum = 0.005 (at node 6)
	maximum = 0.016 (at node 13)
Injected packet length average = 1
Accepted packet length average = 1
Total in-flight flits = 4 (0 measured)
latency change    = 0.0915414
throughput change = 0.0377358
Warmed up ...Time used is 3000 cycles
Class 0:
Packet latency average = 17.6211
	minimum = 7
	maximum = 37
Network latency average = 17.6211
	minimum = 7
	maximum = 37
Slowest packet = 6513
Flit latency average = 17.9697
	minimum = 7
	maximum = 37
Slowest flit = 6498
Fragmentation average = 0
	minimum = 0
	maximum = 0
Injected packet rate average = 0.0105
	minimum = 0.003 (at node 1)
	maximum = 0.019 (at node 0)
Accepted packet rate average = 0.0103125
	minimum = 0.003 (at node 4)
	maximum = 0.019 (at node 0)
Injected flit rate average = 0.0105
	minimum = 0.003 (at node 1)
	maximum = 0.019 (at node 0)
Accepted flit rate average= 0.0103125
	minimum = 0.003 (at node 4)
	maximum = 0.019 (at node 0)
Injected packet length average = 1
Accepted packet length average = 1
Total in-flight flits = 7 (7 measured)
latency change    = 0.192823
throughput change = 0.0363636
Class 0:
Packet latency average = 18.0495
	minimum = 7
	maximum = 37
Network latency average = 18.0495
	minimum = 7
	maximum = 37
Slowest packet = 6513
Flit latency average = 18.2011
	minimum = 7
	maximum = 37
Slowest flit = 6498
Fragmentation average = 0
	minimum = 0
	maximum = 0
Injected packet rate average = 0.0115625
	minimum = 0.0065 (at node 12)
	maximum = 0.018 (at node 0)
Accepted packet rate average = 0.0115
	minimum = 0.007 (at node 3)
	maximum = 0.018 (at node 0)
Injected flit rate average = 0.0115625
	minimum = 0.0065 (at node 12)
	maximum = 0.018 (at node 0)
Accepted flit rate average= 0.0115
	minimum = 0.007 (at node 3)
	maximum = 0.018 (at node 0)
Injected packet length average = 1
Accepted packet length average = 1
Total in-flight flits = 6 (6 measured)
latency change    = 0.0237311
throughput change = 0.103261
Class 0:
Packet latency average = 18.4179
	minimum = 7
	maximum = 37
Network latency average = 18.4179
	minimum = 7
	maximum = 37
Slowest packet = 6513
Flit latency average = 18.5208
	minimum = 7
	maximum = 37
Slowest flit = 6498
Fragmentation average = 0
	minimum = 0
	maximum = 0
Injected packet rate average = 0.0109375
	minimum = 0.00566667 (at node 12)
	maximum = 0.0143333 (at node 0)
Accepted packet rate average = 0.011
	minimum = 0.006 (at node 3)
	maximum = 0.0143333 (at node 0)
Injected flit rate average = 0.0109375
	minimum = 0.00566667 (at node 12)
	maximum = 0.0143333 (at node 0)
Accepted flit rate average= 0.011
	minimum = 0.006 (at node 3)
	maximum = 0.0143333 (at node 0)
Injected packet length average = 1
Accepted packet length average = 1
Total in-flight flits = 1 (1 measured)
latency change    = 0.020007
throughput change = 0.0454545
Class 0:
Packet latency average = 18.7536
	minimum = 7
	maximum = 37
Network latency average = 18.7536
	minimum = 7
	maximum = 37
Slowest packet = 6513
Flit latency average = 18.8304
	minimum = 7
	maximum = 37
Slowest flit = 6498
Fragmentation average = 0
	minimum = 0
	maximum = 0
Injected packet rate average = 0.0107656
	minimum = 0.0065 (at node 12)
	maximum = 0.01375 (at node 0)
Accepted packet rate average = 0.0107812
	minimum = 0.00675 (at node 3)
	maximum = 0.01375 (at node 0)
Injected flit rate average = 0.0107656
	minimum = 0.0065 (at node 12)
	maximum = 0.01375 (at node 0)
Accepted flit rate average= 0.0107812
	minimum = 0.00675 (at node 3)
	maximum = 0.01375 (at node 0)
Injected packet length average = 1
Accepted packet length average = 1
Total in-flight flits = 3 (3 measured)
latency change    = 0.0179008
throughput change = 0.0202899
Class 0:
Packet latency average = 19.0107
	minimum = 7
	maximum = 37
Network latency average = 19.0107
	minimum = 7
	maximum = 37
Slowest packet = 6513
Flit latency average = 19.0724
	minimum = 7
	maximum = 37
Slowest flit = 6498
Fragmentation average = 0
	minimum = 0
	maximum = 0
Injected packet rate average = 0.01055
	minimum = 0.0076 (at node 12)
	maximum = 0.013 (at node 7)
Accepted packet rate average = 0.010525
	minimum = 0.0072 (at node 3)
	maximum = 0.013 (at node 13)
Injected flit rate average = 0.01055
	minimum = 0.0076 (at node 12)
	maximum = 0.013 (at node 7)
Accepted flit rate average= 0.010525
	minimum = 0.0072 (at node 3)
	maximum = 0.013 (at node 13)
Injected packet length average = 1
Accepted packet length average = 1
Total in-flight flits = 6 (6 measured)
latency change    = 0.0135237
throughput change = 0.0243468
Draining all recorded packets ...
Draining remaining packets ...
Time taken is 8031 cycles
Class 0:
Packet latency average = 19.2654
	minimum = 7
	maximum = 42
Network latency average = 19.2654
	minimum = 7
	maximum = 42
Slowest packet = 7475
Flit latency average = 19.2654
	minimum = 7
	maximum = 42
Slowest flit = 7475
Fragmentation average = 0
	minimum = 0
	maximum = 0
Injected packet rate average = 0.0104375
	minimum = 0.007 (at node 0)
	maximum = 0.015 (at node 13)
Accepted packet rate average = 0.010125
	minimum = 0.007 (at node 0)
	maximum = 0.014 (at node 7)
Injected flit rate average = 0.0104375
	minimum = 0.007 (at node 0)
	maximum = 0.015 (at node 13)
Accepted flit rate average= 0.010125
	minimum = 0.007 (at node 0)
	maximum = 0.014 (at node 7)
Injected packet length average = 1
Accepted packet length average = 1
Total in-flight flits = 5 (0 measured)
latency change    = 1
throughput change = 1
Class 0:
Packet latency average = 19.4108
	minimum = 7
	maximum = 42
Network latency average = 19.4108
	minimum = 7
	maximum = 42
Slowest packet = 7475
Flit latency average = 19.4108
	minimum = 7
	maximum = 42
Slowest flit = 7475
Fragmentation average = 0
	minimum = 0
	maximum = 0
Injected packet rate average = 0.00990625
	minimum = 0.0075 (at node 0)
	maximum = 0.013 (at node 11)
Accepted packet rate average = 0.0098125
	minimum = 0.0075 (at node 0)
	maximum = 0.013 (at node 14)
Injected flit rate average = 0.00990625
	minimum = 0.0075 (at node 0)
	maximum = 0.013 (at node 11)
Accepted flit rate average= 0.0098125
	minimum = 0.0075 (at node 0)
	maximum = 0.013 (at node 14)
Injected packet length average = 1
Accepted packet length average = 1
Total in-flight flits = 3 (0 measured)
latency change    = 0.00749045
throughput change = 0.0318471
Class 0:
Packet latency average = 19.7391
	minimum = 7
	maximum = 45
Network latency average = 19.7391
	minimum = 7
	maximum = 45
Slowest packet = 7798
Flit latency average = 19.7391
	minimum = 7
	maximum = 45
Slowest flit = 7798
Fragmentation average = 0
	minimum = 0
	maximum = 0
Injected packet rate average = 0.0085625
	minimum = 0.004 (at node 3)
	maximum = 0.013 (at node 5)
Accepted packet rate average = 0.008625
	minimum = 0.004 (at node 12)
	maximum = 0.014 (at node 5)
Injected flit rate average = 0.0085625
	minimum = 0.004 (at node 3)
	maximum = 0.013 (at node 5)
Accepted flit rate average= 0.008625
	minimum = 0.004 (at node 12)
	maximum = 0.014 (at node 5)
Injected packet length average = 1
Accepted packet length average = 1
Total in-flight flits = 2 (0 measured)
latency change    = 0.0166321
throughput change = 0.137681
Warmed up ...Time used is 3000 cycles
Class 0:
Packet latency average = 20.4459
	minimum = 7
	maximum = 37
Network latency average = 20.4459
	minimum = 7
	maximum = 37
Slowest packet = 7804
Flit latency average = 20.4667
	minimum = 7
	maximum = 37
Slowest flit = 7804
Fragmentation average = 0
	minimum = 0
	maximum = 0
Injected packet rate average = 0.009375
	minimum = 0.003 (at node 8)
	maximum = 0.016 (at node 12)
Accepted packet rate average = 0.009375
	minimum = 0.004 (at node 0)
	maximum = 0.015 (at node 3)
Injected flit rate average = 0.009375
	minimum = 0.003 (at node 8)
	maximum = 0.016 (at node 12)
Accepted flit rate average= 0.009375
	minimum = 0.004 (at node 0)
	maximum = 0.015 (at node 3)
Injected packet length average = 1
Accepted packet length average = 1
Total in-flight flits = 2 (2 measured)
latency change    = 0.03457
throughput change = 0.08
Class 0:
Packet latency average = 20.2027
	minimum = 7
	maximum = 38
Network latency average = 20.2027
	minimum = 7
	maximum = 38
Slowest packet = 7991
Flit latency average = 20.215
	minimum = 7
	maximum = 38
Slowest flit = 7991
Fragmentation average = 0
	minimum = 0
	maximum = 0
Injected packet rate average = 0.009125
	minimum = 0.0035 (at node 8)
	maximum = 0.013 (at node 6)
Accepted packet rate average = 0.00915625
	minimum = 0.004 (at node 2)
	maximum = 0.0135 (at node 9)
Injected flit rate average = 0.009125
	minimum = 0.0035 (at node 8)
	maximum = 0.013 (at node 6)
Accepted flit rate average= 0.00915625
	minimum = 0.004 (at node 2)
	maximum = 0.0135 (at node 9)
Injected packet length average = 1
Accepted packet length average = 1
Total in-flight flits = 1 (1 measured)
latency change    = 0.0120378
throughput change = 0.0238908
Class 0:
Packet latency average = 20.0737
	minimum = 7
	maximum = 38
Network latency average = 20.0737
	minimum = 7
	maximum = 38
Slowest packet = 7991
Flit latency average = 20.0818
	minimum = 7
	maximum = 38
Slowest flit = 7991
Fragmentation average = 0
	minimum = 0
	maximum = 0
Injected packet rate average = 0.00991667
	minimum = 0.00633333 (at node 8)
	maximum = 0.0123333 (at node 13)
Accepted packet rate average = 0.0099375
	minimum = 0.00633333 (at node 6)
	maximum = 0.0123333 (at node 7)
Injected flit rate average = 0.00991667
	minimum = 0.00633333 (at node 8)
	maximum = 0.0123333 (at node 13)
Accepted flit rate average= 0.0099375
	minimum = 0.00633333 (at node 6)
	maximum = 0.0123333 (at node 7)
Injected packet length average = 1
Accepted packet length average = 1
Total in-flight flits = 1 (1 measured)
latency change    = 0.00642956
throughput change = 0.0786164
Class 0:
Packet latency average = 20.014
	minimum = 7
	maximum = 38
Network latency average = 20.014
	minimum = 7
	maximum = 38
Slowest packet = 7991
Flit latency average = 20.0201
	minimum = 7
	maximum = 38
Slowest flit = 7991
Fragmentation average = 0
	minimum = 0
	maximum = 0
Injected packet rate average = 0.0100938
	minimum = 0.00625 (at node 9)
	maximum = 0.014 (at node 3)
Accepted packet rate average = 0.0100938
	minimum = 0.00625 (at node 6)
	maximum = 0.014 (at node 12)
Injected flit rate average = 0.0100938
	minimum = 0.00625 (at node 9)
	maximum = 0.014 (at node 3)
Accepted flit rate average= 0.0100938
	minimum = 0.00625 (at node 6)
	maximum = 0.014 (at node 12)
Injected packet length average = 1
Accepted packet length average = 1
Total in-flight flits = 2 (2 measured)
latency change    = 0.00298337
throughput change = 0.0154799
Class 0:
Packet latency average = 19.751
	minimum = 7
	maximum = 38
Network latency average = 19.751
	minimum = 7
	maximum = 38
Slowest packet = 7991
Flit latency average = 19.7568
	minimum = 7
	maximum = 38
Slowest flit = 7991
Fragmentation average = 0
	minimum = 0
	maximum = 0
Injected packet rate average = 0.009675
	minimum = 0.0062 (at node 8)
	maximum = 0.0136 (at node 3)
Accepted packet rate average = 0.0096625
	minimum = 0.0062 (at node 6)
	maximum = 0.0134 (at node 12)
Injected flit rate average = 0.009675
	minimum = 0.0062 (at node 8)
	maximum = 0.0136 (at node 3)
Accepted flit rate average= 0.0096625
	minimum = 0.0062 (at node 6)
	maximum = 0.0134 (at node 12)
Injected packet length average = 1
Accepted packet length average = 1
Total in-flight flits = 3 (3 measured)
latency change    = 0.0133159
throughput change = 0.0446313
Class 0:
Packet latency average = 19.7677
	minimum = 7
	maximum = 38
Network latency average = 19.7677
	minimum = 7
	maximum = 38
Slowest packet = 7991
Flit latency average = 19.7724
	minimum = 7
	maximum = 38
Slowest flit = 7991
Fragmentation average = 0
	minimum = 0
	maximum = 0
Injected packet rate average = 0.00978125
	minimum = 0.007 (at node 8)
	maximum = 0.0135 (at node 3)
Accepted packet rate average = 0.00975
	minimum = 0.007 (at node 2)
	maximum = 0.0133333 (at node 12)
Injected flit rate average = 0.00978125
	minimum = 0.007 (at node 8)
	maximum = 0.0135 (at node 3)
Accepted flit rate average= 0.00975
	minimum = 0.007 (at node 2)
	maximum = 0.0133333 (at node 12)
Injected packet length average = 1
Accepted packet length average = 1
Total in-flight flits = 5 (5 measured)
latency change    = 0.000844469
throughput change = 0.00897436
Draining all recorded packets ...
Draining remaining packets ...
Time taken is 9049 cycles
Class 0:
Packet latency average = 19.8741
	minimum = 7
	maximum = 37
Network latency average = 19.8741
	minimum = 7
	maximum = 37
Slowest packet = 8749
Flit latency average = 19.8741
	minimum = 7
	maximum = 37
Slowest flit = 8749
Fragmentation average = 0
	minimum = 0
	maximum = 0
Injected packet rate average = 0.009125
	minimum = 0.005 (at node 6)
	maximum = 0.015 (at node 12)
Accepted packet rate average = 0.0089375
	minimum = 0.004 (at node 2)
	maximum = 0.015 (at node 3)
Injected flit rate average = 0.009125
	minimum = 0.005 (at node 6)
	maximum = 0.015 (at node 12)
Accepted flit rate average= 0.0089375
	minimum = 0.004 (at node 2)
	maximum = 0.015 (at node 3)
Injected packet length average = 1
Accepted packet length average = 1
Total in-flight flits = 3 (0 measured)
latency change    = 1
throughput change = 1
Class 0:
Packet latency average = 20.2765
	minimum = 7
	maximum = 37
Network latency average = 20.2765
	minimum = 7
	maximum = 37
Slowest packet = 8749
Flit latency average = 20.2765
	minimum = 7
	maximum = 37
Slowest flit = 8749
Fragmentation average = 0
	minimum = 0
	maximum = 0
Injected packet rate average = 0.00921875
	minimum = 0.0065 (at node 6)
	maximum = 0.014 (at node 12)
Accepted packet rate average = 0.00915625
	minimum = 0.0065 (at node 9)
	maximum = 0.0135 (at node 3)
Injected flit rate average = 0.00921875
	minimum = 0.0065 (at node 6)
	maximum = 0.014 (at node 12)
Accepted flit rate average= 0.00915625
	minimum = 0.0065 (at node 9)
	maximum = 0.0135 (at node 3)
Injected packet length average = 1
Accepted packet length average = 1
Total in-flight flits = 2 (0 measured)
latency change    = 0.019842
throughput change = 0.0238908
Class 0:
Packet latency average = 20.2026
	minimum = 7
	maximum = 37
Network latency average = 20.2026
	minimum = 7
	maximum = 37
Slowest packet = 9042
Flit latency average = 20.2026
	minimum = 7
	maximum = 37
Slowest flit = 9042
Fragmentation average = 0
	minimum = 0
	maximum = 0
Injected packet rate average = 0.009625
	minimum = 0.004 (at node 5)
	maximum = 0.015 (at node 13)
Accepted packet rate average = 0.0095625
	minimum = 0.004 (at node 5)
	maximum = 0.014 (at node 7)
Injected flit rate average = 0.009625
	minimum = 0.004 (at node 5)
	maximum = 0.015 (at node 13)
Accepted flit rate average= 0.0095625
	minimum = 0.004 (at node 5)
	maximum = 0.014 (at node 7)
Injected packet length average = 1
Accepted packet length average = 1
Total in-flight flits = 3 (0 measured)
latency change    = 0.00365478
throughput change = 0.0424837
Warmed up ...Time used is 3000 cycles
Class 0:
Packet latency average = 18.8994
	minimum = 7
	maximum = 37
Network latency average = 18.8994
	minimum = 7
	maximum = 37
Slowest packet = 9197
Flit latency average = 18.9259
	minimum = 7
	maximum = 37
Slowest flit = 9197
Fragmentation average = 0
	minimum = 0
	maximum = 0
Injected packet rate average = 0.010125
	minimum = 0.006 (at node 0)
	maximum = 0.017 (at node 9)
Accepted packet rate average = 0.010125
	minimum = 0.006 (at node 0)
	maximum = 0.016 (at node 6)
Injected flit rate average = 0.010125
	minimum = 0.006 (at node 0)
	maximum = 0.017 (at node 9)
Accepted flit rate average= 0.010125
	minimum = 0.006 (at node 0)
	maximum = 0.016 (at node 6)
Injected packet length average = 1
Accepted packet length average = 1
Total in-flight flits = 3 (3 measured)
latency change    = 0.068957
throughput change = 0.0555556
Class 0:
Packet latency average = 18.8119
	minimum = 7
	maximum = 37
Network latency average = 18.8119
	minimum = 7
	maximum = 37
Slowest packet = 9197
Flit latency average = 18.8261
	minimum = 7
	maximum = 37
Slowest flit = 9197
Fragmentation average = 0
	minimum = 0
	maximum = 0
Injected packet rate average = 0.0100313
	minimum = 0.006 (at node 12)
	maximum = 0.0155 (at node 9)
Accepted packet rate average = 0.0100625
	minimum = 0.006 (at node 3)
	maximum = 0.0155 (at node 6)
Injected flit rate average = 0.0100313
	minimum = 0.006 (at node 12)
	maximum = 0.0155 (at node 9)
Accepted flit rate average= 0.0100625
	minimum = 0.006 (at node 3)
	maximum = 0.0155 (at node 6)
Injected packet length average = 1
Accepted packet length average = 1
Total in-flight flits = 2 (2 measured)
latency change    = 0.00464912
throughput change = 0.00621118
Class 0:
Packet latency average = 18.8022
	minimum = 7
	maximum = 38
Network latency average = 18.8022
	minimum = 7
	maximum = 38
Slowest packet = 9654
Flit latency average = 18.8121
	minimum = 7
	maximum = 38
Slowest flit = 9654
Fragmentation average = 0
	minimum = 0
	maximum = 0
Injected packet rate average = 0.009625
	minimum = 0.00633333 (at node 12)
	maximum = 0.0136667 (at node 9)
Accepted packet rate average = 0.00964583
	minimum = 0.00633333 (at node 3)
	maximum = 0.0133333 (at node 6)
Injected flit rate average = 0.009625
	minimum = 0.00633333 (at node 12)
	maximum = 0.0136667 (at node 9)
Accepted flit rate average= 0.00964583
	minimum = 0.00633333 (at node 3)
	maximum = 0.0133333 (at node 6)
Injected packet length average = 1
Accepted packet length average = 1
Total in-flight flits = 2 (2 measured)
latency change    = 0.000517935
throughput change = 0.0431965
Class 0:
Packet latency average = 19.0978
	minimum = 7
	maximum = 38
Network latency average = 19.0978
	minimum = 7
	maximum = 38
Slowest packet = 9654
Flit latency average = 19.1037
	minimum = 7
	maximum = 38
Slowest flit = 9654
Fragmentation average = 0
	minimum = 0
	maximum = 0
Injected packet rate average = 0.00979688
	minimum = 0.0075 (at node 12)
	maximum = 0.012 (at node 9)
Accepted packet rate average = 0.00979688
	minimum = 0.0075 (at node 3)
	maximum = 0.01175 (at node 6)
Injected flit rate average = 0.00979688
	minimum = 0.0075 (at node 12)
	maximum = 0.012 (at node 9)
Accepted flit rate average= 0.00979688
	minimum = 0.0075 (at node 3)
	maximum = 0.01175 (at node 6)
Injected packet length average = 1
Accepted packet length average = 1
Total in-flight flits = 3 (3 measured)
latency change    = 0.0154773
throughput change = 0.0154173
Draining all recorded packets ...
Draining remaining packets ...
Time taken is 7052 cycles
Class 0:
Packet latency average = 19.0732
	minimum = 7
	maximum = 37
Network latency average = 19.0732
	minimum = 7
	maximum = 37
Slowest packet = 9836
Flit latency average = 19.0732
	minimum = 7
	maximum = 37
Slowest flit = 9836
Fragmentation average = 0
	minimum = 0
	maximum = 0
Injected packet rate average = 0.010375
	minimum = 0.005 (at node 3)
	maximum = 0.015 (at node 8)
Accepted packet rate average = 0.01025
	minimum = 0.004 (at node 12)
	maximum = 0.015 (at node 2)
Injected flit rate average = 0.010375
	minimum = 0.005 (at node 3)
	maximum = 0.015 (at node 8)
Accepted flit rate average= 0.01025
	minimum = 0.004 (at node 12)
	maximum = 0.015 (at node 2)
Injected packet length average = 1
Accepted packet length average = 1
Total in-flight flits = 2 (0 measured)
latency change    = 1
throughput change = 1
Class 0:
Packet latency average = 18.6377
	minimum = 7
	maximum = 37
Network latency average = 18.6377
	minimum = 7
	maximum = 37
Slowest packet = 9836
Flit latency average = 18.6377
	minimum = 7
	maximum = 37
Slowest flit = 9836
Fragmentation average = 0
	minimum = 0
	maximum = 0
Injected packet rate average = 0.0105625
	minimum = 0.0065 (at node 3)
	maximum = 0.013 (at node 8)
Accepted packet rate average = 0.0104375
	minimum = 0.0065 (at node 12)
	maximum = 0.013 (at node 2)
Injected flit rate average = 0.0105625
	minimum = 0.0065 (at node 3)
	maximum = 0.013 (at node 8)
Accepted flit rate average= 0.0104375
	minimum = 0.0065 (at node 12)
	maximum = 0.013 (at node 2)
Injected packet length average = 1
Accepted packet length average = 1
Total in-flight flits = 4 (0 measured)
latency change    = 0.0233637
throughput change = 0.0179641
Class 0:
Packet latency average = 20.1928
	minimum = 7
	maximum = 37
Network latency average = 20.1928
	minimum = 7
	maximum = 37
Slowest packet = 10171
Flit latency average = 20.1928
	minimum = 7
	maximum = 37
Slowest flit = 10171
Fragmentation average = 0
	minimum = 0
	maximum = 0
Injected packet rate average = 0.010375
	minimum = 0.007 (at node 0)
	maximum = 0.015 (at node 7)
Accepted packet rate average = 0.010375
	minimum = 0.007 (at node 0)
	maximum = 0.014 (at node 13)
Injected flit rate average = 0.010375
	minimum = 0.007 (at node 0)
	maximum = 0.015 (at node 7)
Accepted flit rate average= 0.010375
	minimum = 0.007 (at node 0)
	maximum = 0.014 (at node 13)
Injected packet length average = 1
Accepted packet length average = 1
Total in-flight flits = 4 (0 measured)
latency change    = 0.0770101
throughput change = 0.0060241
Warmed up ...Time used is 3000 cycles
Class 0:
Packet latency average = 18.5714
	minimum = 7
	maximum = 37
Network latency average = 18.5714
	minimum = 7
	maximum = 37
Slowest packet = 10332
Flit latency average = 18.7361
	minimum = 7
	maximum = 37
Slowest flit = 10332
Fragmentation average = 0
	minimum = 0
	maximum = 0
Injected packet rate average = 0.0089375
	minimum = 0.004 (at node 4)
	maximum = 0.014 (at node 2)
Accepted packet rate average = 0.009
	minimum = 0.004 (at node 1)
	maximum = 0.015 (at node 8)
Injected flit rate average = 0.0089375
	minimum = 0.004 (at node 4)
	maximum = 0.014 (at node 2)
Accepted flit rate average= 0.009
	minimum = 0.004 (at node 1)
	maximum = 0.015 (at node 8)
Injected packet length average = 1
Accepted packet length average = 1
Total in-flight flits = 3 (3 measured)
latency change    = 0.0873031
throughput change = 0.152778
Class 0:
Packet latency average = 18.4658
	minimum = 7
	maximum = 37
Network latency average = 18.4658
	minimum = 7
	maximum = 37
Slowest packet = 10332
Flit latency average = 18.5434
	minimum = 7
	maximum = 37
Slowest flit = 10332
Fragmentation average = 0
	minimum = 0
	maximum = 0
Injected packet rate average = 0.00975
	minimum = 0.0055 (at node 3)
	maximum = 0.0135 (at node 0)
Accepted packet rate average = 0.00971875
	minimum = 0.005 (at node 12)
	maximum = 0.0135 (at node 0)
Injected flit rate average = 0.00975
	minimum = 0.0055 (at node 3)
	maximum = 0.0135 (at node 0)
Accepted flit rate average= 0.00971875
	minimum = 0.005 (at node 12)
	maximum = 0.0135 (at node 0)
Injected packet length average = 1
Accepted packet length average = 1
Total in-flight flits = 5 (5 measured)
latency change    = 0.00572033
throughput change = 0.073955
Class 0:
Packet latency average = 19.1447
	minimum = 7
	maximum = 37
Network latency average = 19.1447
	minimum = 7
	maximum = 37
Slowest packet = 10332
Flit latency average = 19.1906
	minimum = 7
	maximum = 37
Slowest flit = 10332
Fragmentation average = 0
	minimum = 0
	maximum = 0
Injected packet rate average = 0.00966667
	minimum = 0.00733333 (at node 8)
	maximum = 0.012 (at node 1)
Accepted packet rate average = 0.00972917
	minimum = 0.00733333 (at node 2)
	maximum = 0.012 (at node 4)
Injected flit rate average = 0.00966667
	minimum = 0.00733333 (at node 8)
	maximum = 0.012 (at node 1)
Accepted flit rate average= 0.00972917
	minimum = 0.00733333 (at node 2)
	maximum = 0.012 (at node 4)
Injected packet length average = 1
Accepted packet length average = 1
Total in-flight flits = 1 (1 measured)
latency change    = 0.035462
throughput change = 0.00107066
Class 0:
Packet latency average = 19.2952
	minimum = 7
	maximum = 37
Network latency average = 19.2952
	minimum = 7
	maximum = 37
Slowest packet = 10332
Flit latency average = 19.3285
	minimum = 7
	maximum = 37
Slowest flit = 10332
Fragmentation average = 0
	minimum = 0
	maximum = 0
Injected packet rate average = 0.00971875
	minimum = 0.0075 (at node 13)
	maximum = 0.012 (at node 7)
Accepted packet rate average = 0.00975
	minimum = 0.0075 (at node 7)
	maximum = 0.01225 (at node 13)
Injected flit rate average = 0.00971875
	minimum = 0.0075 (at node 13)
	maximum = 0.012 (at node 7)
Accepted flit rate average= 0.00975
	minimum = 0.0075 (at node 7)
	maximum = 0.01225 (at node 13)
Injected packet length average = 1
Accepted packet length average = 1
Total in-flight flits = 2 (2 measured)
latency change    = 0.00779744
throughput change = 0.00213675
Class 0:
Packet latency average = 19.4373
	minimum = 7
	maximum = 37
Network latency average = 19.4373
	minimum = 7
	maximum = 37
Slowest packet = 10332
Flit latency average = 19.4633
	minimum = 7
	maximum = 37
Slowest flit = 10332
Fragmentation average = 0
	minimum = 0
	maximum = 0
Injected packet rate average = 0.009675
	minimum = 0.0078 (at node 13)
	maximum = 0.0114 (at node 7)
Accepted packet rate average = 0.0097125
	minimum = 0.0078 (at node 7)
	maximum = 0.0116 (at node 13)
Injected flit rate average = 0.009675
	minimum = 0.0078 (at node 13)
	maximum = 0.0114 (at node 7)
Accepted flit rate average= 0.0097125
	minimum = 0.0078 (at node 7)
	maximum = 0.0116 (at node 13)
Injected packet length average = 1
Accepted packet length average = 1
Total in-flight flits = 1 (1 measured)
latency change    = 0.0073105
throughput change = 0.003861
Draining all recorded packets ...
Draining remaining packets ...
Time taken is 8024 cycles
Class 0:
Packet latency average = 19.9623
	minimum = 7
	maximum = 38
Network latency average = 19.9623
	minimum = 7
	maximum = 38
Slowest packet = 11222
Flit latency average = 19.9623
	minimum = 7
	maximum = 38
Slowest flit = 11222
Fragmentation average = 0
	minimum = 0
	maximum = 0
Injected packet rate average = 0.010125
	minimum = 0.004 (at node 5)
	maximum = 0.014 (at node 1)
Accepted packet rate average = 0.0099375
	minimum = 0.004 (at node 5)
	maximum = 0.014 (at node 4)
Injected flit rate average = 0.010125
	minimum = 0.004 (at node 5)
	maximum = 0.014 (at node 1)
Accepted flit rate average= 0.0099375
	minimum = 0.004 (at node 5)
	maximum = 0.014 (at node 4)
Injected packet length average = 1
Accepted packet length average = 1
Total in-flight flits = 3 (0 measured)
latency change    = 1
throughput change = 1
Class 0:
Packet latency average = 19.5191
	minimum = 7
	maximum = 38
Network latency average = 19.5191
	minimum = 7
	maximum = 38
Slowest packet = 11222
Flit latency average = 19.5191
	minimum = 7
	maximum = 38
Slowest flit = 11222
Fragmentation average = 0
	minimum = 0
	maximum = 0
Injected packet rate average = 0.009875
	minimum = 0.0075 (at node 5)
	maximum = 0.012 (at node 6)
Accepted packet rate average = 0.0098125
	minimum = 0.007 (at node 5)
	maximum = 0.012 (at node 9)
Injected flit rate average = 0.009875
	minimum = 0.0075 (at node 5)
	maximum = 0.012 (at node 6)
Accepted flit rate average= 0.0098125
	minimum = 0.007 (at node 5)
	maximum = 0.012 (at node 9)
Injected packet length average = 1
Accepted packet length average = 1
Total in-flight flits = 2 (0 measured)
latency change    = 0.0227037
throughput change = 0.0127389
Class 0:
Packet latency average = 19.3214
	minimum = 7
	maximum = 37
Network latency average = 19.3214
	minimum = 7
	maximum = 37
Slowest packet = 11432
Flit latency average = 19.3214
	minimum = 7
	maximum = 37
Slowest flit = 11432
Fragmentation average = 0
	minimum = 0
	maximum = 0
Injected packet rate average = 0.0105625
	minimum = 0.006 (at node 13)
	maximum = 0.019 (at node 7)
Accepted packet rate average = 0.0105
	minimum = 0.006 (at node 7)
	maximum = 0.019 (at node 13)
Injected flit rate average = 0.0105625
	minimum = 0.006 (at node 13)
	maximum = 0.019 (at node 7)
Accepted flit rate average= 0.0105
	minimum = 0.006 (at node 7)
	maximum = 0.019 (at node 13)
Injected packet length average = 1
Accepted packet length average = 1
Total in-flight flits = 3 (0 measured)
latency change    = 0.0102311
throughput change = 0.0654762
Warmed up ...Time used is 3000 cycles
Class 0:
Packet latency average = 19.5125
	minimum = 7
	maximum = 37
Network latency average = 19.5125
	minimum = 7
	maximum = 37
Slowest packet = 11603
Flit latency average = 19.773
	minimum = 7
	maximum = 37
Slowest flit = 11588
Fragmentation average = 0
	minimum = 0
	maximum = 0
Injected packet rate average = 0.01025
	minimum = 0.005 (at node 15)
	maximum = 0.015 (at node 1)
Accepted packet rate average = 0.0101875
	minimum = 0.005 (at node 15)
	maximum = 0.015 (at node 4)
Injected flit rate average = 0.01025
	minimum = 0.005 (at node 15)
	maximum = 0.015 (at node 1)
Accepted flit rate average= 0.0101875
	minimum = 0.005 (at node 15)
	maximum = 0.015 (at node 4)
Injected packet length average = 1
Accepted packet length average = 1
Total in-flight flits = 4 (4 measured)
latency change    = 0.00979226
throughput change = 0.0306748
Class 0:
Packet latency average = 19.5839
	minimum = 7
	maximum = 37
Network latency average = 19.5839
	minimum = 7
	maximum = 37
Slowest packet = 11603
Flit latency average = 19.7138
	minimum = 7
	maximum = 37
Slowest flit = 11588
Fragmentation average = 0
	minimum = 0
	maximum = 0
Injected packet rate average = 0.0101875
	minimum = 0.0055 (at node 10)
	maximum = 0.0145 (at node 7)
Accepted packet rate average = 0.0101563
	minimum = 0.0055 (at node 10)
	maximum = 0.014 (at node 13)
Injected flit rate average = 0.0101875
	minimum = 0.0055 (at node 10)
	maximum = 0.0145 (at node 7)
Accepted flit rate average= 0.0101563
	minimum = 0.0055 (at node 10)
	maximum = 0.014 (at node 13)
Injected packet length average = 1
Accepted packet length average = 1
Total in-flight flits = 4 (4 measured)
latency change    = 0.00364336
throughput change = 0.00307692
Class 0:
Packet latency average = 19.767
	minimum = 7
	maximum = 37
Network latency average = 19.767
	minimum = 7
	maximum = 37
Slowest packet = 11603
Flit latency average = 19.8525
	minimum = 7
	maximum = 37
Slowest flit = 11588
Fragmentation average = 0
	minimum = 0
	maximum = 0
Injected packet rate average = 0.0102292
	minimum = 0.008 (at node 6)
	maximum = 0.013 (at node 1)
Accepted packet rate average = 0.0101667
	minimum = 0.008 (at node 6)
	maximum = 0.013 (at node 4)
Injected flit rate average = 0.0102292
	minimum = 0.008 (at node 6)
	maximum = 0.013 (at node 1)
Accepted flit rate average= 0.0101667
	minimum = 0.008 (at node 6)
	maximum = 0.013 (at node 4)
Injected packet length average = 1
Accepted packet length average = 1
Total in-flight flits = 6 (6 measured)
latency change    = 0.00926591
throughput change = 0.00102459
Draining all recorded packets ...
Draining remaining packets ...
Time taken is 6047 cycles
Class 0:
Packet latency average = 18.6667
	minimum = 7
	maximum = 37
Network latency average = 18.6667
	minimum = 7
	maximum = 37
Slowest packet = 12097
Flit latency average = 18.6667
	minimum = 7
	maximum = 37
Slowest flit = 12097
Fragmentation average = 0
	minimum = 0
	maximum = 0
Injected packet rate average = 0.00875
	minimum = 0.005 (at node 3)
	maximum = 0.014 (at node 1)
Accepted packet rate average = 0.008625
	minimum = 0.004 (at node 12)
	maximum = 0.014 (at node 4)
Injected flit rate average = 0.00875
	minimum = 0.005 (at node 3)
	maximum = 0.014 (at node 1)
Accepted flit rate average= 0.008625
	minimum = 0.004 (at node 12)
	maximum = 0.014 (at node 4)
Injected packet length average = 1
Accepted packet length average = 1
Total in-flight flits = 2 (0 measured)
latency change    = 1
throughput change = 1
Class 0:
Packet latency average = 18.9713
	minimum = 7
	maximum = 37
Network latency average = 18.9713
	minimum = 7
	maximum = 37
Slowest packet = 12097
Flit latency average = 18.9713
	minimum = 7
	maximum = 37
Slowest flit = 12097
Fragmentation average = 0
	minimum = 0
	maximum = 0
Injected packet rate average = 0.00878125
	minimum = 0.0045 (at node 13)
	maximum = 0.0115 (at node 1)
Accepted packet rate average = 0.00871875
	minimum = 0.0045 (at node 7)
	maximum = 0.0115 (at node 4)
Injected flit rate average = 0.00878125
	minimum = 0.0045 (at node 13)
	maximum = 0.0115 (at node 1)
Accepted flit rate average= 0.00871875
	minimum = 0.0045 (at node 7)
	maximum = 0.0115 (at node 4)
Injected packet length average = 1
Accepted packet length average = 1
Total in-flight flits = 2 (0 measured)
latency change    = 0.0160589
throughput change = 0.0107527
Class 0:
Packet latency average = 19.0782
	minimum = 7
	maximum = 38
Network latency average = 19.0782
	minimum = 7
	maximum = 38
Slowest packet = 12472
Flit latency average = 19.0782
	minimum = 7
	maximum = 38
Slowest flit = 12472
Fragmentation average = 0
	minimum = 0
	maximum = 0
Injected packet rate average = 0.01125
	minimum = 0.007 (at node 6)
	maximum = 0.017 (at node 5)
Accepted packet rate average = 0.0111875
	minimum = 0.007 (at node 9)
	maximum = 0.017 (at node 5)
Injected flit rate average = 0.01125
	minimum = 0.007 (at node 6)
	maximum = 0.017 (at node 5)
Accepted flit rate average= 0.0111875
	minimum = 0.007 (at node 9)
	maximum = 0.017 (at node 5)
Injected packet length average = 1
Accepted packet length average = 1
Total in-flight flits = 3 (0 measured)
latency change    = 0.00560252
throughput change = 0.22067
Warmed up ...Time used is 3000 cycles
Class 0:
Packet latency average = 20.5065
	minimum = 7
	maximum = 37
Network latency average = 20.5065
	minimum = 7
	maximum = 37
Slowest packet = 12553
Flit latency average = 20.5669
	minimum = 7
	maximum = 37
Slowest flit = 12553
Fragmentation average = 0
	minimum = 0
	maximum = 0
Injected packet rate average = 0.009875
	minimum = 0.005 (at node 2)
	maximum = 0.014 (at node 7)
Accepted packet rate average = 0.0098125
	minimum = 0.004 (at node 8)
	maximum = 0.014 (at node 3)
Injected flit rate average = 0.009875
	minimum = 0.005 (at node 2)
	maximum = 0.014 (at node 7)
Accepted flit rate average= 0.0098125
	minimum = 0.004 (at node 8)
	maximum = 0.014 (at node 3)
Injected packet length average = 1
Accepted packet length average = 1
Total in-flight flits = 4 (4 measured)
latency change    = 0.0696502
throughput change = 0.140127
Class 0:
Packet latency average = 19.8528
	minimum = 7
	maximum = 37
Network latency average = 19.8528
	minimum = 7
	maximum = 37
Slowest packet = 12553
Flit latency average = 19.8875
	minimum = 7
	maximum = 37
Slowest flit = 12553
Fragmentation average = 0
	minimum = 0
	maximum = 0
Injected packet rate average = 0.0102813
	minimum = 0.0075 (at node 15)
	maximum = 0.0135 (at node 12)
Accepted packet rate average = 0.0102813
	minimum = 0.0075 (at node 15)
	maximum = 0.0135 (at node 3)
Injected flit rate average = 0.0102813
	minimum = 0.0075 (at node 15)
	maximum = 0.0135 (at node 12)
Accepted flit rate average= 0.0102813
	minimum = 0.0075 (at node 15)
	maximum = 0.0135 (at node 3)
Injected packet length average = 1
Accepted packet length average = 1
Total in-flight flits = 3 (3 measured)
latency change    = 0.0329291
throughput change = 0.0455927
Class 0:
Packet latency average = 19.3517
	minimum = 7
	maximum = 37
Network latency average = 19.3517
	minimum = 7
	maximum = 37
Slowest packet = 12553
Flit latency average = 19.3789
	minimum = 7
	maximum = 37
Slowest flit = 12553
Fragmentation average = 0
	minimum = 0
	maximum = 0
Injected packet rate average = 0.009875
	minimum = 0.006 (at node 2)
	maximum = 0.0133333 (at node 8)
Accepted packet rate average = 0.00989583
	minimum = 0.006 (at node 8)
	maximum = 0.0136667 (at node 2)
Injected flit rate average = 0.009875
	minimum = 0.006 (at node 2)
	maximum = 0.0133333 (at node 8)
Accepted flit rate average= 0.00989583
	minimum = 0.006 (at node 8)
	maximum = 0.0136667 (at node 2)
Injected packet length average = 1
Accepted packet length average = 1
Total in-flight flits = 2 (2 measured)
latency change    = 0.0258926
throughput change = 0.0389474
Class 0:
Packet latency average = 19.4261
	minimum = 7
	maximum = 37
Network latency average = 19.4261
	minimum = 7
	maximum = 37
Slowest packet = 12553
Flit latency average = 19.446
	minimum = 7
	maximum = 37
Slowest flit = 12553
Fragmentation average = 0
	minimum = 0
	maximum = 0
Injected packet rate average = 0.00995313
	minimum = 0.00675 (at node 2)
	maximum = 0.0135 (at node 8)
Accepted packet rate average = 0.00998438
	minimum = 0.00675 (at node 8)
	maximum = 0.01375 (at node 2)
Injected flit rate average = 0.00995313
	minimum = 0.00675 (at node 2)
	maximum = 0.0135 (at node 8)
Accepted flit rate average= 0.00998438
	minimum = 0.00675 (at node 8)
	maximum = 0.01375 (at node 2)
Injected packet length average = 1
Accepted packet length average = 1
Total in-flight flits = 1 (1 measured)
latency change    = 0.00383019
throughput change = 0.00886802
Draining all recorded packets ...
Draining remaining packets ...
Time taken is 7060 cycles
Class 0:
Packet latency average = 19.2184
	minimum = 7
	maximum = 43
Network latency average = 19.2184
	minimum = 7
	maximum = 43
Slowest packet = 13288
Flit latency average = 19.2184
	minimum = 7
	maximum = 43
Slowest flit = 13288
Fragmentation average = 0
	minimum = 0
	maximum = 0
Injected packet rate average = 0.0111875
	minimum = 0.007 (at node 9)
	maximum = 0.015 (at node 4)
Accepted packet rate average = 0.010875
	minimum = 0.007 (at node 6)
	maximum = 0.015 (at node 1)
Injected flit rate average = 0.0111875
	minimum = 0.007 (at node 9)
	maximum = 0.015 (at node 4)
Accepted flit rate average= 0.010875
	minimum = 0.007 (at node 6)
	maximum = 0.015 (at node 1)
Injected packet length average = 1
Accepted packet length average = 1
Total in-flight flits = 5 (0 measured)
latency change    = 1
throughput change = 1
Class 0:
Packet latency average = 19.2338
	minimum = 7
	maximum = 43
Network latency average = 19.2338
	minimum = 7
	maximum = 43
Slowest packet = 13288
Flit latency average = 19.2338
	minimum = 7
	maximum = 43
Slowest flit = 13288
Fragmentation average = 0
	minimum = 0
	maximum = 0
Injected packet rate average = 0.0102188
	minimum = 0.007 (at node 6)
	maximum = 0.014 (at node 7)
Accepted packet rate average = 0.0101563
	minimum = 0.007 (at node 9)
	maximum = 0.014 (at node 13)
Injected flit rate average = 0.0102188
	minimum = 0.007 (at node 6)
	maximum = 0.014 (at node 7)
Accepted flit rate average= 0.0101563
	minimum = 0.007 (at node 9)
	maximum = 0.014 (at node 13)
Injected packet length average = 1
Accepted packet length average = 1
Total in-flight flits = 2 (0 measured)
latency change    = 0.00080355
throughput change = 0.0707692
Class 0:
Packet latency average = 20.2051
	minimum = 7
	maximum = 37
Network latency average = 20.2051
	minimum = 7
	maximum = 37
Slowest packet = 13518
Flit latency average = 20.2051
	minimum = 7
	maximum = 37
Slowest flit = 13518
Fragmentation average = 0
	minimum = 0
	maximum = 0
Injected packet rate average = 0.00975
	minimum = 0.006 (at node 7)
	maximum = 0.014 (at node 8)
Accepted packet rate average = 0.00975
	minimum = 0.006 (at node 13)
	maximum = 0.014 (at node 2)
Injected flit rate average = 0.00975
	minimum = 0.006 (at node 7)
	maximum = 0.014 (at node 8)
Accepted flit rate average= 0.00975
	minimum = 0.006 (at node 13)
	maximum = 0.014 (at node 2)
Injected packet length average = 1
Accepted packet length average = 1
Total in-flight flits = 2 (0 measured)
latency change    = 0.0480711
throughput change = 0.0416667
Warmed up ...Time used is 3000 cycles
Class 0:
Packet latency average = 20.3728
	minimum = 7
	maximum = 37
Network latency average = 20.3728
	minimum = 7
	maximum = 37
Slowest packet = 13683
Flit latency average = 20.3918
	minimum = 7
	maximum = 37
Slowest flit = 13677
Fragmentation average = 0
	minimum = 0
	maximum = 0
Injected packet rate average = 0.0106875
	minimum = 0.004 (at node 11)
	maximum = 0.016 (at node 6)
Accepted packet rate average = 0.0106875
	minimum = 0.004 (at node 14)
	maximum = 0.016 (at node 9)
Injected flit rate average = 0.0106875
	minimum = 0.004 (at node 11)
	maximum = 0.016 (at node 6)
Accepted flit rate average= 0.0106875
	minimum = 0.004 (at node 14)
	maximum = 0.016 (at node 9)
Injected packet length average = 1
Accepted packet length average = 1
Total in-flight flits = 2 (2 measured)
latency change    = 0.00822926
throughput change = 0.0877193
Class 0:
Packet latency average = 20.1108
	minimum = 7
	maximum = 37
Network latency average = 20.1108
	minimum = 7
	maximum = 37
Slowest packet = 13683
Flit latency average = 20.1223
	minimum = 7
	maximum = 37
Slowest flit = 13677
Fragmentation average = 0
	minimum = 0
	maximum = 0
Injected packet rate average = 0.0101563
	minimum = 0.005 (at node 11)
	maximum = 0.014 (at node 3)
Accepted packet rate average = 0.0102188
	minimum = 0.005 (at node 14)
	maximum = 0.0145 (at node 12)
Injected flit rate average = 0.0101563
	minimum = 0.005 (at node 11)
	maximum = 0.014 (at node 3)
Accepted flit rate average= 0.0102188
	minimum = 0.005 (at node 14)
	maximum = 0.0145 (at node 12)
Injected packet length average = 1
Accepted packet length average = 1
Total in-flight flits = 0 (0 measured)
latency change    = 0.0130284
throughput change = 0.0458716
Class 0:
Packet latency average = 20.219
	minimum = 7
	maximum = 37
Network latency average = 20.219
	minimum = 7
	maximum = 37
Slowest packet = 13683
Flit latency average = 20.2259
	minimum = 7
	maximum = 37
Slowest flit = 13677
Fragmentation average = 0
	minimum = 0
	maximum = 0
Injected packet rate average = 0.0108958
	minimum = 0.00766667 (at node 7)
	maximum = 0.017 (at node 3)
Accepted packet rate average = 0.0107917
	minimum = 0.00766667 (at node 13)
	maximum = 0.0163333 (at node 12)
Injected flit rate average = 0.0108958
	minimum = 0.00766667 (at node 7)
	maximum = 0.017 (at node 3)
Accepted flit rate average= 0.0107917
	minimum = 0.00766667 (at node 13)
	maximum = 0.0163333 (at node 12)
Injected packet length average = 1
Accepted packet length average = 1
Total in-flight flits = 7 (7 measured)
latency change    = 0.00535254
throughput change = 0.0530888
Class 0:
Packet latency average = 20.1431
	minimum = 7
	maximum = 37
Network latency average = 20.1431
	minimum = 7
	maximum = 37
Slowest packet = 13683
Flit latency average = 20.1485
	minimum = 7
	maximum = 37
Slowest flit = 13677
Fragmentation average = 0
	minimum = 0
	maximum = 0
Injected packet rate average = 0.010625
	minimum = 0.008 (at node 5)
	maximum = 0.01475 (at node 3)
Accepted packet rate average = 0.010625
	minimum = 0.008 (at node 5)
	maximum = 0.015 (at node 12)
Injected flit rate average = 0.010625
	minimum = 0.008 (at node 5)
	maximum = 0.01475 (at node 3)
Accepted flit rate average= 0.010625
	minimum = 0.008 (at node 5)
	maximum = 0.015 (at node 12)
Injected packet length average = 1
Accepted packet length average = 1
Total in-flight flits = 2 (2 measured)
latency change    = 0.00376926
throughput change = 0.0156863
Class 0:
Packet latency average = 19.8826
	minimum = 7
	maximum = 37
Network latency average = 19.8826
	minimum = 7
	maximum = 37
Slowest packet = 13683
Flit latency average = 19.8878
	minimum = 7
	maximum = 37
Slowest flit = 13677
Fragmentation average = 0
	minimum = 0
	maximum = 0
Injected packet rate average = 0.010125
	minimum = 0.0082 (at node 5)
	maximum = 0.0134 (at node 3)
Accepted packet rate average = 0.0101375
	minimum = 0.0082 (at node 5)
	maximum = 0.0134 (at node 12)
Injected flit rate average = 0.010125
	minimum = 0.0082 (at node 5)
	maximum = 0.0134 (at node 3)
Accepted flit rate average= 0.0101375
	minimum = 0.0082 (at node 5)
	maximum = 0.0134 (at node 12)
Injected packet length average = 1
Accepted packet length average = 1
Total in-flight flits = 1 (1 measured)
latency change    = 0.0131018
throughput change = 0.0480888
Class 0:
Packet latency average = 19.5517
	minimum = 7
	maximum = 37
Network latency average = 19.5517
	minimum = 7
	maximum = 37
Slowest packet = 13683
Flit latency average = 19.5567
	minimum = 7
	maximum = 37
Slowest flit = 13677
Fragmentation average = 0
	minimum = 0
	maximum = 0
Injected packet rate average = 0.0102188
	minimum = 0.008 (at node 7)
	maximum = 0.0121667 (at node 3)
Accepted packet rate average = 0.0101979
	minimum = 0.008 (at node 13)
	maximum = 0.0123333 (at node 12)
Injected flit rate average = 0.0102188
	minimum = 0.008 (at node 7)
	maximum = 0.0121667 (at node 3)
Accepted flit rate average= 0.0101979
	minimum = 0.008 (at node 13)
	maximum = 0.0123333 (at node 12)
Injected packet length average = 1
Accepted packet length average = 1
Total in-flight flits = 4 (4 measured)
latency change    = 0.0169235
throughput change = 0.00592441
Draining all recorded packets ...
Draining remaining packets ...
Time taken is 9035 cycles
Class 0:
Packet latency average = 18.6564
	minimum = 7
	maximum = 37
Network latency average = 18.6564
	minimum = 7
	maximum = 37
Slowest packet = 14670
Flit latency average = 18.6564
	minimum = 7
	maximum = 37
Slowest flit = 14670
Fragmentation average = 0
	minimum = 0
	maximum = 0
Injected packet rate average = 0.0105625
	minimum = 0.002 (at node 13)
	maximum = 0.015 (at node 11)
Accepted packet rate average = 0.0101875
	minimum = 0.002 (at node 7)
	maximum = 0.014 (at node 6)
Injected flit rate average = 0.0105625
	minimum = 0.002 (at node 13)
	maximum = 0.015 (at node 11)
Accepted flit rate average= 0.0101875
	minimum = 0.002 (at node 7)
	maximum = 0.014 (at node 6)
Injected packet length average = 1
Accepted packet length average = 1
Total in-flight flits = 6 (0 measured)
latency change    = 1
[...]
	maximum = 0
Injected packet rate average = 0.0089375
	minimum = 0.005 (at node 6)
	maximum = 0.014 (at node 8)
Accepted packet rate average = 0.00890625
	minimum = 0.005 (at node 9)
	maximum = 0.014 (at node 2)
Injected flit rate average = 0.0089375
	minimum = 0.005 (at node 6)
	maximum = 0.014 (at node 8)
Accepted flit rate average= 0.00890625
	minimum = 0.005 (at node 9)
	maximum = 0.014 (at node 2)
Injected packet length average = 1
Accepted packet length average = 1
Total in-flight flits = 1 (0 measured)
latency change    = 0.0264505
throughput change = 0.0736842
Class 0:
Packet latency average = 18.0651
	minimum = 7
	maximum = 37
Network latency average = 18.0651
	minimum = 7
	maximum = 37
Slowest packet = 117993
Flit latency average = 18.0651
	minimum = 7
	maximum = 37
Slowest flit = 117993
Fragmentation average = 0
	minimum = 0
	maximum = 0
Injected packet rate average = 0.0105625
	minimum = 0.007 (at node 7)
	maximum = 0.015 (at node 15)
Accepted packet rate average = 0.0105625
	minimum = 0.007 (at node 3)
	maximum = 0.015 (at node 15)
Injected flit rate average = 0.0105625
	minimum = 0.007 (at node 7)
	maximum = 0.015 (at node 15)
Accepted flit rate average= 0.0105625
	minimum = 0.007 (at node 3)
	maximum = 0.015 (at node 15)
Injected packet length average = 1
Accepted packet length average = 1
Total in-flight flits = 1 (0 measured)
latency change    = 0.109244
throughput change = 0.156805
Warmed up ...Time used is 3000 cycles
Class 0:
Packet latency average = 18.4362
	minimum = 7
	maximum = 37
Network latency average = 18.4362
	minimum = 7
	maximum = 37
Slowest packet = 118161
Flit latency average = 18.4933
	minimum = 7
	maximum = 37
Slowest flit = 118161
Fragmentation average = 0
	minimum = 0
	maximum = 0
Injected packet rate average = 0.009375
	minimum = 0.002 (at node 1)
	maximum = 0.017 (at node 11)
Accepted packet rate average = 0.009375
	minimum = 0.002 (at node 4)
	maximum = 0.017 (at node 14)
Injected flit rate average = 0.009375
	minimum = 0.002 (at node 1)
	maximum = 0.017 (at node 11)
Accepted flit rate average= 0.009375
	minimum = 0.002 (at node 4)
	maximum = 0.017 (at node 14)
Injected packet length average = 1
Accepted packet length average = 1
Total in-flight flits = 1 (1 measured)
latency change    = 0.0201317
throughput change = 0.126667
Class 0:
Packet latency average = 19.4379
	minimum = 7
	maximum = 38
Network latency average = 19.4379
	minimum = 7
	maximum = 38
Slowest packet = 118382
Flit latency average = 19.4625
	minimum = 7
	maximum = 38
Slowest flit = 118382
Fragmentation average = 0
	minimum = 0
	maximum = 0
Injected packet rate average = 0.00959375
	minimum = 0.0065 (at node 4)
	maximum = 0.012 (at node 7)
Accepted packet rate average = 0.00959375
	minimum = 0.006 (at node 1)
	maximum = 0.012 (at node 2)
Injected flit rate average = 0.00959375
	minimum = 0.0065 (at node 4)
	maximum = 0.012 (at node 7)
Accepted flit rate average= 0.00959375
	minimum = 0.006 (at node 1)
	maximum = 0.012 (at node 2)
Injected packet length average = 1
Accepted packet length average = 1
Total in-flight flits = 1 (1 measured)
latency change    = 0.0515316
throughput change = 0.0228013
Class 0:
Packet latency average = 19.7235
	minimum = 7
	maximum = 43
Network latency average = 19.7235
	minimum = 7
	maximum = 43
Slowest packet = 118571
Flit latency average = 19.7395
	minimum = 7
	maximum = 43
Slowest flit = 118571
Fragmentation average = 0
	minimum = 0
	maximum = 0
Injected packet rate average = 0.00945833
	minimum = 0.00666667 (at node 4)
	maximum = 0.0126667 (at node 3)
Accepted packet rate average = 0.0094375
	minimum = 0.00666667 (at node 1)
	maximum = 0.0123333 (at node 12)
Injected flit rate average = 0.00945833
	minimum = 0.00666667 (at node 4)
	maximum = 0.0126667 (at node 3)
Accepted flit rate average= 0.0094375
	minimum = 0.00666667 (at node 1)
	maximum = 0.0123333 (at node 12)
Injected packet length average = 1
Accepted packet length average = 1
Total in-flight flits = 2 (2 measured)
latency change    = 0.0144773
throughput change = 0.0165563
Class 0:
Packet latency average = 19.8221
	minimum = 7
	maximum = 43
Network latency average = 19.8221
	minimum = 7
	maximum = 43
Slowest packet = 118571
Flit latency average = 19.8336
	minimum = 7
	maximum = 43
Slowest flit = 118571
Fragmentation average = 0
	minimum = 0
	maximum = 0
Injected packet rate average = 0.00984375
	minimum = 0.00825 (at node 14)
	maximum = 0.0125 (at node 3)
Accepted packet rate average = 0.00976562
	minimum = 0.008 (at node 11)
	maximum = 0.0125 (at node 12)
Injected flit rate average = 0.00984375
	minimum = 0.00825 (at node 14)
	maximum = 0.0125 (at node 3)
Accepted flit rate average= 0.00976562
	minimum = 0.008 (at node 11)
	maximum = 0.0125 (at node 12)
Injected packet length average = 1
Accepted packet length average = 1
Total in-flight flits = 6 (6 measured)
latency change    = 0.00497747
throughput change = 0.0336
Class 0:
Packet latency average = 19.8566
	minimum = 7
	maximum = 43
Network latency average = 19.8566
	minimum = 7
	maximum = 43
Slowest packet = 118571
Flit latency average = 19.8655
	minimum = 7
	maximum = 43
Slowest flit = 118571
Fragmentation average = 0
	minimum = 0
	maximum = 0
Injected packet rate average = 0.0100375
	minimum = 0.0078 (at node 10)
	maximum = 0.0122 (at node 3)
Accepted packet rate average = 0.0100375
	minimum = 0.0078 (at node 10)
	maximum = 0.0122 (at node 12)
Injected flit rate average = 0.0100375
	minimum = 0.0078 (at node 10)
	maximum = 0.0122 (at node 3)
Accepted flit rate average= 0.0100375
	minimum = 0.0078 (at node 10)
	maximum = 0.0122 (at node 12)
Injected packet length average = 1
Accepted packet length average = 1
Total in-flight flits = 1 (1 measured)
latency change    = 0.00173711
throughput change = 0.0270859
Draining all recorded packets ...
Draining remaining packets ...
Time taken is 8006 cycles
Class 0:
Packet latency average = 19.6364
	minimum = 7
	maximum = 37
Network latency average = 19.6364
	minimum = 7
	maximum = 37
Slowest packet = 118957
Flit latency average = 19.6364
	minimum = 7
	maximum = 37
Slowest flit = 118957
Fragmentation average = 0
	minimum = 0
	maximum = 0
Injected packet rate average = 0.0083125
	minimum = 0.005 (at node 3)
	maximum = 0.015 (at node 9)
Accepted packet rate average = 0.00825
	minimum = 0.005 (at node 5)
	maximum = 0.015 (at node 6)
Injected flit rate average = 0.0083125
	minimum = 0.005 (at node 3)
	maximum = 0.015 (at node 9)
Accepted flit rate average= 0.00825
	minimum = 0.005 (at node 5)
	maximum = 0.015 (at node 6)
Injected packet length average = 1
Accepted packet length average = 1
Total in-flight flits = 1 (0 measured)
latency change    = 1
throughput change = 1
Class 0:
Packet latency average = 20.331
	minimum = 7
	maximum = 37
Network latency average = 20.331
	minimum = 7
	maximum = 37
Slowest packet = 118957
Flit latency average = 20.331
	minimum = 7
	maximum = 37
Slowest flit = 118957
Fragmentation average = 0
	minimum = 0
	maximum = 0
Injected packet rate average = 0.008875
	minimum = 0.006 (at node 5)
	maximum = 0.0115 (at node 13)
Accepted packet rate average = 0.00878125
	minimum = 0.006 (at node 5)
	maximum = 0.011 (at node 7)
Injected flit rate average = 0.008875
	minimum = 0.006 (at node 5)
	maximum = 0.0115 (at node 13)
Accepted flit rate average= 0.00878125
	minimum = 0.006 (at node 5)
	maximum = 0.011 (at node 7)
Injected packet length average = 1
Accepted packet length average = 1
Total in-flight flits = 3 (0 measured)
latency change    = 0.0341645
throughput change = 0.0604982
Class 0:
Packet latency average = 19.9221
	minimum = 7
	maximum = 37
Network latency average = 19.9221
	minimum = 7
	maximum = 37
Slowest packet = 119236
Flit latency average = 19.9221
	minimum = 7
	maximum = 37
Slowest flit = 119236
Fragmentation average = 0
	minimum = 0
	maximum = 0
Injected packet rate average = 0.0094375
	minimum = 0.005 (at node 3)
	maximum = 0.016 (at node 14)
Accepted packet rate average = 0.009625
	minimum = 0.006 (at node 2)
	maximum = 0.016 (at node 7)
Injected flit rate average = 0.0094375
	minimum = 0.005 (at node 3)
	maximum = 0.016 (at node 14)
Accepted flit rate average= 0.009625
	minimum = 0.006 (at node 2)
	maximum = 0.016 (at node 7)
Injected packet length average = 1
Accepted packet length average = 1
Total in-flight flits = 0 (0 measured)
latency change    = 0.0205241
throughput change = 0.0876623
Warmed up ...Time used is 3000 cycles
Class 0:
Packet latency average = 19.6897
	minimum = 7
	maximum = 37
Network latency average = 19.6897
	minimum = 7
	maximum = 37
Slowest packet = 119392
Flit latency average = 19.6897
	minimum = 7
	maximum = 37
Slowest flit = 119392
Fragmentation average = 0
	minimum = 0
	maximum = 0
Injected packet rate average = 0.0094375
	minimum = 0.006 (at node 2)
	maximum = 0.013 (at node 9)
Accepted packet rate average = 0.0090625
	minimum = 0.006 (at node 8)
	maximum = 0.013 (at node 14)
Injected flit rate average = 0.0094375
	minimum = 0.006 (at node 2)
	maximum = 0.013 (at node 9)
Accepted flit rate average= 0.0090625
	minimum = 0.006 (at node 8)
	maximum = 0.013 (at node 14)
Injected packet length average = 1
Accepted packet length average = 1
Total in-flight flits = 6 (6 measured)
latency change    = 0.0118043
throughput change = 0.062069
Class 0:
Packet latency average = 19.8846
	minimum = 7
	maximum = 37
Network latency average = 19.8846
	minimum = 7
	maximum = 37
Slowest packet = 119392
Flit latency average = 19.8846
	minimum = 7
	maximum = 37
Slowest flit = 119392
Fragmentation average = 0
	minimum = 0
	maximum = 0
Injected packet rate average = 0.00984375
	minimum = 0.0055 (at node 14)
	maximum = 0.015 (at node 7)
Accepted packet rate average = 0.00975
	minimum = 0.0055 (at node 11)
	maximum = 0.015 (at node 13)
Injected flit rate average = 0.00984375
	minimum = 0.0055 (at node 14)
	maximum = 0.015 (at node 7)
Accepted flit rate average= 0.00975
	minimum = 0.0055 (at node 11)
	maximum = 0.015 (at node 13)
Injected packet length average = 1
Accepted packet length average = 1
Total in-flight flits = 3 (3 measured)
latency change    = 0.00980458
throughput change = 0.0705128
Class 0:
Packet latency average = 20.1351
	minimum = 7
	maximum = 45
Network latency average = 20.1351
	minimum = 7
	maximum = 45
Slowest packet = 119846
Flit latency average = 20.1351
	minimum = 7
	maximum = 45
Slowest flit = 119846
Fragmentation average = 0
	minimum = 0
	maximum = 0
Injected packet rate average = 0.0100833
	minimum = 0.00766667 (at node 0)
	maximum = 0.0143333 (at node 7)
Accepted packet rate average = 0.0100208
	minimum = 0.00766667 (at node 0)
	maximum = 0.0143333 (at node 13)
Injected flit rate average = 0.0100833
	minimum = 0.00766667 (at node 0)
	maximum = 0.0143333 (at node 7)
Accepted flit rate average= 0.0100208
	minimum = 0.00766667 (at node 0)
	maximum = 0.0143333 (at node 13)
Injected packet length average = 1
Accepted packet length average = 1
Total in-flight flits = 3 (3 measured)
latency change    = 0.0124419
throughput change = 0.027027
Class 0:
Packet latency average = 19.9171
	minimum = 7
	maximum = 45
Network latency average = 19.9171
	minimum = 7
	maximum = 45
Slowest packet = 119846
Flit latency average = 19.9171
	minimum = 7
	maximum = 45
Slowest flit = 119846
Fragmentation average = 0
	minimum = 0
	maximum = 0
Injected packet rate average = 0.0102188
	minimum = 0.008 (at node 0)
	maximum = 0.01325 (at node 11)
Accepted packet rate average = 0.0101719
	minimum = 0.008 (at node 0)
	maximum = 0.01325 (at node 14)
Injected flit rate average = 0.0102188
	minimum = 0.008 (at node 0)
	maximum = 0.01325 (at node 11)
Accepted flit rate average= 0.0101719
	minimum = 0.008 (at node 0)
	maximum = 0.01325 (at node 14)
Injected packet length average = 1
Accepted packet length average = 1
Total in-flight flits = 3 (3 measured)
latency change    = 0.0109496
throughput change = 0.014849
Class 0:
Packet latency average = 19.9436
	minimum = 7
	maximum = 45
Network latency average = 19.9436
	minimum = 7
	maximum = 45
Slowest packet = 119846
Flit latency average = 19.9436
	minimum = 7
	maximum = 45
Slowest flit = 119846
Fragmentation average = 0
	minimum = 0
	maximum = 0
Injected packet rate average = 0.010225
	minimum = 0.0082 (at node 0)
	maximum = 0.013 (at node 8)
Accepted packet rate average = 0.0101875
	minimum = 0.0082 (at node 0)
	maximum = 0.013 (at node 2)
Injected flit rate average = 0.010225
	minimum = 0.0082 (at node 0)
	maximum = 0.013 (at node 8)
Accepted flit rate average= 0.0101875
	minimum = 0.0082 (at node 0)
	maximum = 0.013 (at node 2)
Injected packet length average = 1
Accepted packet length average = 1
Total in-flight flits = 3 (3 measured)
latency change    = 0.00132913
throughput change = 0.00153374
Draining all recorded packets ...
Draining remaining packets ...
Time taken is 8036 cycles
Class 0:
Packet latency average = 18.0368
	minimum = 7
	maximum = 38
Network latency average = 18.0368
	minimum = 7
	maximum = 38
Slowest packet = 120337
Flit latency average = 18.0368
	minimum = 7
	maximum = 38
Slowest flit = 120337
Fragmentation average = 0
	minimum = 0
	maximum = 0
Injected packet rate average = 0.0106875
	minimum = 0.007 (at node 7)
	maximum = 0.019 (at node 4)
Accepted packet rate average = 0.0101875
	minimum = 0.005 (at node 3)
	maximum = 0.018 (at node 1)
Injected flit rate average = 0.0106875
	minimum = 0.007 (at node 7)
	maximum = 0.019 (at node 4)
Accepted flit rate average= 0.0101875
	minimum = 0.005 (at node 3)
	maximum = 0.018 (at node 1)
Injected packet length average = 1
Accepted packet length average = 1
Total in-flight flits = 8 (0 measured)
latency change    = 1
throughput change = 1
Class 0:
Packet latency average = 18.4162
	minimum = 7
	maximum = 38
Network latency average = 18.4162
	minimum = 7
	maximum = 38
Slowest packet = 120337
Flit latency average = 18.4162
	minimum = 7
	maximum = 38
Slowest flit = 120337
Fragmentation average = 0
	minimum = 0
	maximum = 0
Injected packet rate average = 0.0108437
	minimum = 0.007 (at node 7)
	maximum = 0.0145 (at node 4)
Accepted packet rate average = 0.0108125
	minimum = 0.007 (at node 13)
	maximum = 0.0145 (at node 1)
Injected flit rate average = 0.0108437
	minimum = 0.007 (at node 7)
	maximum = 0.0145 (at node 4)
Accepted flit rate average= 0.0108125
	minimum = 0.007 (at node 13)
	maximum = 0.0145 (at node 1)
Injected packet length average = 1
Accepted packet length average = 1
Total in-flight flits = 1 (0 measured)
latency change    = 0.0206001
throughput change = 0.0578035
Class 0:
Packet latency average = 18.7636
	minimum = 7
	maximum = 37
Network latency average = 18.7636
	minimum = 7
	maximum = 37
Slowest packet = 120568
Flit latency average = 18.7636
	minimum = 7
	maximum = 37
Slowest flit = 120568
Fragmentation average = 0
	minimum = 0
	maximum = 0
Injected packet rate average = 0.010375
	minimum = 0.006 (at node 12)
	maximum = 0.017 (at node 2)
Accepted packet rate average = 0.0103125
	minimum = 0.005 (at node 3)
	maximum = 0.017 (at node 8)
Injected flit rate average = 0.010375
	minimum = 0.006 (at node 12)
	maximum = 0.017 (at node 2)
Accepted flit rate average= 0.0103125
	minimum = 0.005 (at node 3)
	maximum = 0.017 (at node 8)
Injected packet length average = 1
Accepted packet length average = 1
Total in-flight flits = 2 (0 measured)
latency change    = 0.0185173
throughput change = 0.0484848
Warmed up ...Time used is 3000 cycles
Class 0:
Packet latency average = 19.2078
	minimum = 7
	maximum = 37
Network latency average = 19.2078
	minimum = 7
	maximum = 37
Slowest packet = 120739
Flit latency average = 19.3718
	minimum = 7
	maximum = 37
Slowest flit = 120723
Fragmentation average = 0
	minimum = 0
	maximum = 0
Injected packet rate average = 0.00975
	minimum = 0.004 (at node 3)
	maximum = 0.016 (at node 1)
Accepted packet rate average = 0.00975
	minimum = 0.004 (at node 12)
	maximum = 0.016 (at node 4)
Injected flit rate average = 0.00975
	minimum = 0.004 (at node 3)
	maximum = 0.016 (at node 1)
Accepted flit rate average= 0.00975
	minimum = 0.004 (at node 12)
	maximum = 0.016 (at node 4)
Injected packet length average = 1
Accepted packet length average = 1
Total in-flight flits = 2 (2 measured)
latency change    = 0.0231237
throughput change = 0.0576923
Class 0:
Packet latency average = 19.5649
	minimum = 7
	maximum = 46
Network latency average = 19.5649
	minimum = 7
	maximum = 46
Slowest packet = 121019
Flit latency average = 19.6452
	minimum = 7
	maximum = 46
Slowest flit = 121019
Fragmentation average = 0
	minimum = 0
	maximum = 0
Injected packet rate average = 0.0096875
	minimum = 0.006 (at node 3)
	maximum = 0.0145 (at node 1)
Accepted packet rate average = 0.0096875
	minimum = 0.006 (at node 12)
	maximum = 0.014 (at node 4)
Injected flit rate average = 0.0096875
	minimum = 0.006 (at node 3)
	maximum = 0.0145 (at node 1)
Accepted flit rate average= 0.0096875
	minimum = 0.006 (at node 12)
	maximum = 0.014 (at node 4)
Injected packet length average = 1
Accepted packet length average = 1
Total in-flight flits = 2 (2 measured)
latency change    = 0.0182542
throughput change = 0.00645161
Class 0:
Packet latency average = 19.316
	minimum = 7
	maximum = 46
Network latency average = 19.316
	minimum = 7
	maximum = 46
Slowest packet = 121019
Flit latency average = 19.3707
	minimum = 7
	maximum = 46
Slowest flit = 121019
Fragmentation average = 0
	minimum = 0
	maximum = 0
Injected packet rate average = 0.00972917
	minimum = 0.00633333 (at node 3)
	maximum = 0.0146667 (at node 1)
Accepted packet rate average = 0.00966667
	minimum = 0.006 (at node 12)
	maximum = 0.014 (at node 4)
Injected flit rate average = 0.00972917
	minimum = 0.00633333 (at node 3)
	maximum = 0.0146667 (at node 1)
Accepted flit rate average= 0.00966667
	minimum = 0.006 (at node 12)
	maximum = 0.014 (at node 4)
Injected packet length average = 1
Accepted packet length average = 1
Total in-flight flits = 5 (5 measured)
latency change    = 0.0128866
throughput change = 0.00215517
Class 0:
Packet latency average = 19.6624
	minimum = 7
	maximum = 46
Network latency average = 19.6624
	minimum = 7
	maximum = 46
Slowest packet = 121019
Flit latency average = 19.7021
	minimum = 7
	maximum = 46
Slowest flit = 121019
Fragmentation average = 0
	minimum = 0
	maximum = 0
Injected packet rate average = 0.00970312
	minimum = 0.00725 (at node 9)
	maximum = 0.0145 (at node 1)
Accepted packet rate average = 0.00970312
	minimum = 0.007 (at node 6)
	maximum = 0.0145 (at node 4)
Injected flit rate average = 0.00970312
	minimum = 0.00725 (at node 9)
	maximum = 0.0145 (at node 1)
Accepted flit rate average= 0.00970312
	minimum = 0.007 (at node 6)
	maximum = 0.0145 (at node 4)
Injected packet length average = 1
Accepted packet length average = 1
Total in-flight flits = 2 (2 measured)
latency change    = 0.0176144
throughput change = 0.00375738
Draining all recorded packets ...
Draining remaining packets ...
Time taken is 7049 cycles
====== Overall Traffic Statistics ======
====== Traffic class 0 ======
Packet latency average = 19.5178 (100 samples)
	minimum = 7 (100 samples)
	maximum = 39.89 (100 samples)
Network latency average = 19.5178 (100 samples)
	minimum = 7 (100 samples)
	maximum = 39.89 (100 samples)
Flit latency average = 19.5396 (100 samples)
	minimum = 7 (100 samples)
	maximum = 39.89 (100 samples)
Fragmentation average = 0 (100 samples)
	minimum = 0 (100 samples)
	maximum = 0 (100 samples)
Injected packet rate average = 0.0100172 (100 samples)
	minimum = 0.007529 (100 samples)
	maximum = 0.012712 (100 samples)
Accepted packet rate average = 0.0100179 (100 samples)
	minimum = 0.0075225 (100 samples)
	maximum = 0.0127137 (100 samples)
Injected flit rate average = 0.0100172 (100 samples)
	minimum = 0.007529 (100 samples)
	maximum = 0.012712 (100 samples)
Accepted flit rate average = 0.0100179 (100 samples)
	minimum = 0.0075225 (100 samples)
	maximum = 0.0127137 (100 samples)
Injected packet size average = 1 (100 samples)
Accepted packet size average = 1 (100 samples)
Hops average = 3.50052 (100 samples)
Total run time 15.1215
