BEGIN Configuration File: /tmp/tmppb8n803y.cfg
topology = mesh;
k = 4;
n = 2;
routing_function = dor;
num_vcs = 4;
vc_buf_size = 4;
wait_for_tail_credit = 1;
vc_allocator = islip;
sw_allocator = islip;
alloc_iters = 1;
credit_delay = 2;
routing_delay = 1;
vc_alloc_delay = 1;
sw_alloc_delay = 1;
input_speedup = 2;
output_speedup = 1;
internal_speedup = 1.0;
traffic = hotspot;
packet_size = 1;
sim_type = latency;
injection_rate = 0.02;
warmup_periods = 3;
sample_period = 1000;
sim_count = 100;
seed = 2;

END Configuration File: /tmp/tmppb8n803y.cfg
Class 0:
Packet latency average = 19.3405
	minimum = 7
	maximum = 33
Network latency average = 19.3405
	minimum = 7
	maximum = 33
Slowest packet = 180
Flit latency average = 19.3405
	minimum = 7
	maximum = 33
Slowest flit = 180
Fragmentation average = 0
	minimum = 0
	maximum = 0
Injected packet rate average = 0.0180625
	minimum = 0.008 (at node 9)
	maximum = 0.025 (at node 10)
Accepted packet rate average = 0.0174375
	minimum = 0 (at node 0)
	maximum = 0.279 (at node 11)
Injected flit rate average = 0.0180625
	minimum = 0.008 (at node 9)
	maximum = 0.025 (at node 10)
Accepted flit rate average= 0.0174375
	minimum = 0 (at node 0)
	maximum = 0.279 (at node 11)
Injected packet length average = 1
Accepted packet length average = 1
Total in-flight flits = 10 (0 measured)
latency change    = 1
throughput change = 1
Class 0:
Packet latency average = 19.9654
	minimum = 7
	maximum = 42
Network latency average = 19.9654
	minimum = 7
	maximum = 42
Slowest packet = 456
Flit latency average = 19.9654
	minimum = 7
	maximum = 42
Slowest flit = 456
Fragmentation average = 0
	minimum = 0
	maximum = 0
Injected packet rate average = 0.0190937
	minimum = 0.0145 (at node 2)
	maximum = 0.028 (at node 10)
Accepted packet rate average = 0.0189687
	minimum = 0 (at node 0)
	maximum = 0.3035 (at node 11)
Injected flit rate average = 0.0190937
	minimum = 0.0145 (at node 2)
	maximum = 0.028 (at node 10)
Accepted flit rate average= 0.0189687
	minimum = 0 (at node 0)
	maximum = 0.3035 (at node 11)
Injected packet length average = 1
Accepted packet length average = 1
Total in-flight flits = 4 (0 measured)
latency change    = 0.0312992
throughput change = 0.0807249
Class 0:
Packet latency average = 20.0512
	minimum = 7
	maximum = 42
Network latency average = 20.0512
	minimum = 7
	maximum = 42
Slowest packet = 867
Flit latency average = 20.0512
	minimum = 7
	maximum = 42
Slowest flit = 867
Fragmentation average = 0
	minimum = 0
	maximum = 0
Injected packet rate average = 0.0185
	minimum = 0.011 (at node 6)
	maximum = 0.025 (at node 10)
Accepted packet rate average = 0.0183125
	minimum = 0 (at node 0)
	maximum = 0.293 (at node 11)
Injected flit rate average = 0.0185
	minimum = 0.011 (at node 6)
	maximum = 0.025 (at node 10)
Accepted flit rate average= 0.0183125
	minimum = 0 (at node 0)
	maximum = 0.293 (at node 11)
Injected packet length average = 1
Accepted packet length average = 1
Total in-flight flits = 7 (0 measured)
latency change    = 0.00427859
throughput change = 0.0358362
Warmed up ...Time used is 3000 cycles
Class 0:
Packet latency average = 21.0886
	minimum = 7
	maximum = 51
Network latency average = 21.0886
	minimum = 7
	maximum = 51
Slowest packet = 1213
Flit latency average = 21.0897
	minimum = 7
	maximum = 51
Slowest flit = 1213
Fragmentation average = 0
	minimum = 0
	maximum = 0
Injected packet rate average = 0.0229375
	minimum = 0.013 (at node 6)
	maximum = 0.03 (at node 12)
Accepted packet rate average = 0.023
	minimum = 0 (at node 0)
	maximum = 0.368 (at node 11)
Injected flit rate average = 0.0229375
	minimum = 0.013 (at node 6)
	maximum = 0.03 (at node 12)
Accepted flit rate average= 0.023
	minimum = 0 (at node 0)
	maximum = 0.368 (at node 11)
Injected packet length average = 1
Accepted packet length average = 1
Total in-flight flits = 6 (6 measured)
latency change    = 0.0491946
throughput change = 0.203804
Class 0:
Packet latency average = 20.5955
	minimum = 7
	maximum = 51
Network latency average = 20.5955
	minimum = 7
	maximum = 51
Slowest packet = 1213
Flit latency average = 20.6012
	minimum = 7
	maximum = 51
Slowest flit = 1213
Fragmentation average = 0
	minimum = 0
	maximum = 0
Injected packet rate average = 0.0210625
	minimum = 0.017 (at node 1)
	maximum = 0.026 (at node 7)
Accepted packet rate average = 0.021
	minimum = 0 (at node 0)
	maximum = 0.336 (at node 11)
Injected flit rate average = 0.0210625
	minimum = 0.017 (at node 1)
	maximum = 0.026 (at node 7)
Accepted flit rate average= 0.021
	minimum = 0 (at node 0)
	maximum = 0.336 (at node 11)
Injected packet length average = 1
Accepted packet length average = 1
Total in-flight flits = 9 (9 measured)
latency change    = 0.0239448
throughput change = 0.0952381
Class 0:
Packet latency average = 20.6914
	minimum = 7
	maximum = 51
Network latency average = 20.6914
	minimum = 7
	maximum = 51
Slowest packet = 1213
Flit latency average = 20.6946
	minimum = 7
	maximum = 51
Slowest flit = 1213
Fragmentation average = 0
	minimum = 0
	maximum = 0
Injected packet rate average = 0.0206667
	minimum = 0.018 (at node 8)
	maximum = 0.0243333 (at node 10)
Accepted packet rate average = 0.0206667
	minimum = 0 (at node 0)
	maximum = 0.330667 (at node 11)
Injected flit rate average = 0.0206667
	minimum = 0.018 (at node 8)
	maximum = 0.0243333 (at node 10)
Accepted flit rate average= 0.0206667
	minimum = 0 (at node 0)
	maximum = 0.330667 (at node 11)
Injected packet length average = 1
Accepted packet length average = 1
Total in-flight flits = 7 (7 measured)
latency change    = 0.0046339
throughput change = 0.016129
Class 0:
Packet latency average = 20.4576
	minimum = 7
	maximum = 51
Network latency average = 20.4576
	minimum = 7
	maximum = 51
Slowest packet = 1213
Flit latency average = 20.4613
	minimum = 7
	maximum = 51
Slowest flit = 1213
Fragmentation average = 0
	minimum = 0
	maximum = 0
Injected packet rate average = 0.0204688
	minimum = 0.01725 (at node 2)
	maximum = 0.0225 (at node 4)
Accepted packet rate average = 0.0203906
	minimum = 0 (at node 0)
	maximum = 0.32625 (at node 11)
Injected flit rate average = 0.0204688
	minimum = 0.01725 (at node 2)
	maximum = 0.0225 (at node 4)
Accepted flit rate average= 0.0203906
	minimum = 0 (at node 0)
	maximum = 0.32625 (at node 11)
Injected packet length average = 1
Accepted packet length average = 1
Total in-flight flits = 12 (12 measured)
latency change    = 0.0114257
throughput change = 0.0135377
Class 0:
Packet latency average = 20.5451
	minimum = 7
	maximum = 51
Network latency average = 20.5451
	minimum = 7
	maximum = 51
Slowest packet = 1213
Flit latency average = 20.5476
	minimum = 7
	maximum = 51
Slowest flit = 1213
Fragmentation average = 0
	minimum = 0
	maximum = 0
Injected packet rate average = 0.0206
	minimum = 0.0174 (at node 2)
	maximum = 0.0236 (at node 15)
Accepted packet rate average = 0.0206125
	minimum = 0 (at node 0)
	maximum = 0.3298 (at node 11)
Injected flit rate average = 0.0206
	minimum = 0.0174 (at node 2)
	maximum = 0.0236 (at node 15)
Accepted flit rate average= 0.0206125
	minimum = 0 (at node 0)
	maximum = 0.3298 (at node 11)
Injected packet length average = 1
Accepted packet length average = 1
Total in-flight flits = 6 (6 measured)
latency change    = 0.004256
throughput change = 0.0107641
Draining all recorded packets ...
Draining remaining packets ...
Time taken is 8044 cycles
Class 0:
Packet latency average = 21.044
	minimum = 7
	maximum = 43
Network latency average = 21.044
	minimum = 7
	maximum = 43
Slowest packet = 2743
Flit latency average = 21.044
	minimum = 7
	maximum = 43
Slowest flit = 2743
Fragmentation average = 0
	minimum = 0
	maximum = 0
Injected packet rate average = 0.02025
	minimum = 0.015 (at node 5)
	maximum = 0.03 (at node 3)
Accepted packet rate average = 0.019875
	minimum = 0 (at node 0)
	maximum = 0.318 (at node 11)
Injected flit rate average = 0.02025
	minimum = 0.015 (at node 5)
	maximum = 0.03 (at node 3)
Accepted flit rate average= 0.019875
	minimum = 0 (at node 0)
	maximum = 0.318 (at node 11)
Injected packet length average = 1
Accepted packet length average = 1
Total in-flight flits = 6 (0 measured)
latency change    = 1
throughput change = 1
Class 0:
Packet latency average = 21.0424
	minimum = 7
	maximum = 43
Network latency average = 21.0424
	minimum = 7
	maximum = 43
Slowest packet = 2743
Flit latency average = 21.0424
	minimum = 7
	maximum = 43
Slowest flit = 2743
Fragmentation average = 0
	minimum = 0
	maximum = 0
Injected packet rate average = 0.0208125
	minimum = 0.017 (at node 9)
	maximum = 0.0245 (at node 0)
Accepted packet rate average = 0.0206563
	minimum = 0 (at node 0)
	maximum = 0.3305 (at node 11)
Injected flit rate average = 0.0208125
	minimum = 0.017 (at node 9)
	maximum = 0.0245 (at node 0)
Accepted flit rate average= 0.0206563
	minimum = 0 (at node 0)
	maximum = 0.3305 (at node 11)
Injected packet length average = 1
Accepted packet length average = 1
Total in-flight flits = 5 (0 measured)
latency change    = 7.91307e-05
throughput change = 0.0378215
Class 0:
Packet latency average = 21.2688
	minimum = 7
	maximum = 50
Network latency average = 21.2688
	minimum = 7
	maximum = 50
Slowest packet = 3405
Flit latency average = 21.2688
	minimum = 7
	maximum = 50
Slowest flit = 3405
Fragmentation average = 0
	minimum = 0
	maximum = 0
Injected packet rate average = 0.022125
	minimum = 0.015 (at node 1)
	maximum = 0.03 (at node 12)
Accepted packet rate average = 0.021625
	minimum = 0 (at node 0)
	maximum = 0.346 (at node 11)
Injected flit rate average = 0.022125
	minimum = 0.015 (at node 1)
	maximum = 0.03 (at node 12)
Accepted flit rate average= 0.021625
	minimum = 0 (at node 0)
	maximum = 0.346 (at node 11)
Injected packet length average = 1
Accepted packet length average = 1
Total in-flight flits = 13 (0 measured)
latency change    = 0.0106459
throughput change = 0.0447977
Warmed up ...Time used is 3000 cycles
Class 0:
Packet latency average = 20.3355
	minimum = 7
	maximum = 42
Network latency average = 20.3355
	minimum = 7
	maximum = 42
Slowest packet = 3765
Flit latency average = 20.3885
	minimum = 7
	maximum = 42
Slowest flit = 3765
Fragmentation average = 0
	minimum = 0
	maximum = 0
Injected packet rate average = 0.019125
	minimum = 0.013 (at node 9)
	maximum = 0.027 (at node 1)
Accepted packet rate average = 0.019625
	minimum = 0 (at node 0)
	maximum = 0.314 (at node 11)
Injected flit rate average = 0.019125
	minimum = 0.013 (at node 9)
	maximum = 0.027 (at node 1)
Accepted flit rate average= 0.019625
	minimum = 0 (at node 0)
	maximum = 0.314 (at node 11)
Injected packet length average = 1
Accepted packet length average = 1
Total in-flight flits = 5 (5 measured)
latency change    = 0.0458919
throughput change = 0.101911
Class 0:
Packet latency average = 20.6439
	minimum = 7
	maximum = 42
Network latency average = 20.6439
	minimum = 7
	maximum = 42
Slowest packet = 3765
Flit latency average = 20.6645
	minimum = 7
	maximum = 42
Slowest flit = 3765
Fragmentation average = 0
	minimum = 0
	maximum = 0
Injected packet rate average = 0.019
	minimum = 0.014 (at node 9)
	maximum = 0.0235 (at node 5)
Accepted packet rate average = 0.0191875
	minimum = 0 (at node 0)
	maximum = 0.307 (at node 11)
Injected flit rate average = 0.019
	minimum = 0.014 (at node 9)
	maximum = 0.0235 (at node 5)
Accepted flit rate average= 0.0191875
	minimum = 0 (at node 0)
	maximum = 0.307 (at node 11)
Injected packet length average = 1
Accepted packet length average = 1
Total in-flight flits = 7 (7 measured)
latency change    = 0.014938
throughput change = 0.0228013
Class 0:
Packet latency average = 20.6605
	minimum = 7
	maximum = 42
Network latency average = 20.6605
	minimum = 7
	maximum = 42
Slowest packet = 3765
Flit latency average = 20.6739
	minimum = 7
	maximum = 42
Slowest flit = 3765
Fragmentation average = 0
	minimum = 0
	maximum = 0
Injected packet rate average = 0.0192083
	minimum = 0.0146667 (at node 6)
	maximum = 0.0226667 (at node 1)
Accepted packet rate average = 0.0192917
	minimum = 0 (at node 0)
	maximum = 0.308667 (at node 11)
Injected flit rate average = 0.0192083
	minimum = 0.0146667 (at node 6)
	maximum = 0.0226667 (at node 1)
Accepted flit rate average= 0.0192917
	minimum = 0 (at node 0)
	maximum = 0.308667 (at node 11)
Injected packet length average = 1
Accepted packet length average = 1
Total in-flight flits = 9 (9 measured)
latency change    = 0.000800235
throughput change = 0.00539957
Class 0:
Packet latency average = 20.4531
	minimum = 7
	maximum = 42
Network latency average = 20.4531
	minimum = 7
	maximum = 42
Slowest packet = 3765
Flit latency average = 20.4653
	minimum = 7
	maximum = 42
Slowest flit = 3765
Fragmentation average = 0
	minimum = 0
	maximum = 0
Injected packet rate average = 0.0192812
	minimum = 0.0145 (at node 6)
	maximum = 0.0225 (at node 5)
Accepted packet rate average = 0.019375
	minimum = 0 (at node 0)
	maximum = 0.31 (at node 11)
Injected flit rate average = 0.0192812
	minimum = 0.0145 (at node 6)
	maximum = 0.0225 (at node 5)
Accepted flit rate average= 0.019375
	minimum = 0 (at node 0)
	maximum = 0.31 (at node 11)
Injected packet length average = 1
Accepted packet length average = 1
Total in-flight flits = 7 (7 measured)
latency change    = 0.0101365
throughput change = 0.00430108
Draining all recorded packets ...
Draining remaining packets ...
Time taken is 7052 cycles
Class 0:
Packet latency average = 21.763
	minimum = 7
	maximum = 49
Network latency average = 21.763
	minimum = 7
	maximum = 49
Slowest packet = 5000
Flit latency average = 21.763
	minimum = 7
	maximum = 49
Slowest flit = 5000
Fragmentation average = 0
	minimum = 0
	maximum = 0
Injected packet rate average = 0.0221875
	minimum = 0.011 (at node 2)
	maximum = 0.034 (at node 1)
Accepted packet rate average = 0.021625
	minimum = 0 (at node 0)
	maximum = 0.346 (at node 11)
Injected flit rate average = 0.0221875
	minimum = 0.011 (at node 2)
	maximum = 0.034 (at node 1)
Accepted flit rate average= 0.021625
	minimum = 0 (at node 0)
	maximum = 0.346 (at node 11)
Injected packet length average = 1
Accepted packet length average = 1
Total in-flight flits = 9 (0 measured)
latency change    = 1
throughput change = 1
Class 0:
Packet latency average = 21.1928
	minimum = 7
	maximum = 49
Network latency average = 21.1928
	minimum = 7
	maximum = 49
Slowest packet = 5000
Flit latency average = 21.1928
	minimum = 7
	maximum = 49
Slowest flit = 5000
Fragmentation average = 0
	minimum = 0
	maximum = 0
Injected packet rate average = 0.0202188
	minimum = 0.0165 (at node 7)
	maximum = 0.0265 (at node 0)
Accepted packet rate average = 0.0199375
	minimum = 0 (at node 0)
	maximum = 0.319 (at node 11)
Injected flit rate average = 0.0202188
	minimum = 0.0165 (at node 7)
	maximum = 0.0265 (at node 0)
Accepted flit rate average= 0.0199375
	minimum = 0 (at node 0)
	maximum = 0.319 (at node 11)
Injected packet length average = 1
Accepted packet length average = 1
Total in-flight flits = 9 (0 measured)
latency change    = 0.0269061
throughput change = 0.0846395
Class 0:
Packet latency average = 20.7358
	minimum = 7
	maximum = 41
Network latency average = 20.7358
	minimum = 7
	maximum = 41
Slowest packet = 5608
Flit latency average = 20.7358
	minimum = 7
	maximum = 41
Slowest flit = 5608
Fragmentation average = 0
	minimum = 0
	maximum = 0
Injected packet rate average = 0.019875
	minimum = 0.012 (at node 1)
	maximum = 0.027 (at node 2)
Accepted packet rate average = 0.019875
	minimum = 0 (at node 0)
	maximum = 0.318 (at node 11)
Injected flit rate average = 0.019875
	minimum = 0.012 (at node 1)
	maximum = 0.027 (at node 2)
Accepted flit rate average= 0.019875
	minimum = 0 (at node 0)
	maximum = 0.318 (at node 11)
Injected packet length average = 1
Accepted packet length average = 1
Total in-flight flits = 9 (0 measured)
latency change    = 0.0220363
throughput change = 0.00314465
Warmed up ...Time used is 3000 cycles
Class 0:
Packet latency average = 20.4644
	minimum = 7
	maximum = 35
Network latency average = 20.4644
	minimum = 7
	maximum = 35
Slowest packet = 5822
Flit latency average = 20.5399
	minimum = 7
	maximum = 35
Slowest flit = 5822
Fragmentation average = 0
	minimum = 0
	maximum = 0
Injected packet rate average = 0.0169375
	minimum = 0.012 (at node 10)
	maximum = 0.027 (at node 2)
Accepted packet rate average = 0.01725
	minimum = 0 (at node 0)
	maximum = 0.276 (at node 11)
Injected flit rate average = 0.0169375
	minimum = 0.012 (at node 10)
	maximum = 0.027 (at node 2)
Accepted flit rate average= 0.01725
	minimum = 0 (at node 0)
	maximum = 0.276 (at node 11)
Injected packet length average = 1
Accepted packet length average = 1
Total in-flight flits = 4 (4 measured)
latency change    = 0.0132635
throughput change = 0.152174
Class 0:
Packet latency average = 20.335
	minimum = 7
	maximum = 38
Network latency average = 20.335
	minimum = 7
	maximum = 38
Slowest packet = 6307
Flit latency average = 20.3719
	minimum = 7
	maximum = 38
Slowest flit = 6307
Fragmentation average = 0
	minimum = 0
	maximum = 0
Injected packet rate average = 0.0185
	minimum = 0.014 (at node 15)
	maximum = 0.027 (at node 12)
Accepted packet rate average = 0.0186562
	minimum = 0 (at node 0)
	maximum = 0.2985 (at node 11)
Injected flit rate average = 0.0185
	minimum = 0.014 (at node 15)
	maximum = 0.027 (at node 12)
Accepted flit rate average= 0.0186562
	minimum = 0 (at node 0)
	maximum = 0.2985 (at node 11)
Injected packet length average = 1
Accepted packet length average = 1
Total in-flight flits = 4 (4 measured)
latency change    = 0.00636269
throughput change = 0.0753769
Class 0:
Packet latency average = 20.4524
	minimum = 7
	maximum = 40
Network latency average = 20.4524
	minimum = 7
	maximum = 40
Slowest packet = 6483
Flit latency average = 20.4748
	minimum = 7
	maximum = 40
Slowest flit = 6483
Fragmentation average = 0
	minimum = 0
	maximum = 0
Injected packet rate average = 0.0193542
	minimum = 0.016 (at node 15)
	maximum = 0.0243333 (at node 12)
Accepted packet rate average = 0.0194375
	minimum = 0 (at node 0)
	maximum = 0.311 (at node 11)
Injected flit rate average = 0.0193542
	minimum = 0.016 (at node 15)
	maximum = 0.0243333 (at node 12)
Accepted flit rate average= 0.0194375
	minimum = 0 (at node 0)
	maximum = 0.311 (at node 11)
Injected packet length average = 1
Accepted packet length average = 1
Total in-flight flits = 5 (5 measured)
latency change    = 0.00573757
throughput change = 0.0401929
Class 0:
Packet latency average = 20.4446
	minimum = 7
	maximum = 40
Network latency average = 20.4446
	minimum = 7
	maximum = 40
Slowest packet = 6483
Flit latency average = 20.4614
	minimum = 7
	maximum = 40
Slowest flit = 6483
Fragmentation average = 0
	minimum = 0
	maximum = 0
Injected packet rate average = 0.0196406
	minimum = 0.017 (at node 15)
	maximum = 0.02325 (at node 12)
Accepted packet rate average = 0.0196094
	minimum = 0 (at node 0)
	maximum = 0.31375 (at node 11)
Injected flit rate average = 0.0196406
	minimum = 0.017 (at node 15)
	maximum = 0.02325 (at node 12)
Accepted flit rate average= 0.0196094
	minimum = 0 (at node 0)
	maximum = 0.31375 (at node 11)
Injected packet length average = 1
Accepted packet length average = 1
Total in-flight flits = 11 (11 measured)
latency change    = 0.000379472
throughput change = 0.00876494
Class 0:
Packet latency average = 20.5608
	minimum = 7
	maximum = 52
Network latency average = 20.5608
	minimum = 7
	maximum = 52
Slowest packet = 7042
Flit latency average = 20.5735
	minimum = 7
	maximum = 52
Slowest flit = 7042
Fragmentation average = 0
	minimum = 0
	maximum = 0
Injected packet rate average = 0.0196375
	minimum = 0.017 (at node 15)
	maximum = 0.0234 (at node 13)
Accepted packet rate average = 0.0196375
	minimum = 0 (at node 0)
	maximum = 0.3142 (at node 11)
Injected flit rate average = 0.0196375
	minimum = 0.017 (at node 15)
	maximum = 0.0234 (at node 13)
Accepted flit rate average= 0.0196375
	minimum = 0 (at node 0)
	maximum = 0.3142 (at node 11)
Injected packet length average = 1
Accepted packet length average = 1
Total in-flight flits = 9 (9 measured)
latency change    = 0.00565136
throughput change = 0.00143221
Draining all recorded packets ...
Draining remaining packets ...
Time taken is 8053 cycles
Class 0:
Packet latency average = 20.5099
	minimum = 7
	maximum = 49
Network latency average = 20.5099
	minimum = 7
	maximum = 49
Slowest packet = 7634
Flit latency average = 20.5099
	minimum = 7
	maximum = 49
Slowest flit = 7634
Fragmentation average = 0
	minimum = 0
	maximum = 0
Injected packet rate average = 0.0194375
	minimum = 0.014 (at node 0)
	maximum = 0.029 (at node 6)
Accepted packet rate average = 0.018875
	minimum = 0 (at node 0)
	maximum = 0.302 (at node 11)
Injected flit rate average = 0.0194375
	minimum = 0.014 (at node 0)
	maximum = 0.029 (at node 6)
Accepted flit rate average= 0.018875
	minimum = 0 (at node 0)
	maximum = 0.302 (at node 11)
Injected packet length average = 1
Accepted packet length average = 1
Total in-flight flits = 9 (0 measured)
latency change    = 1
throughput change = 1
Class 0:
Packet latency average = 20.1627
	minimum = 7
	maximum = 49
Network latency average = 20.1627
	minimum = 7
	maximum = 49
Slowest packet = 7634
Flit latency average = 20.1627
	minimum = 7
	maximum = 49
Slowest flit = 7634
Fragmentation average = 0
	minimum = 0
	maximum = 0
Injected packet rate average = 0.0197188
	minimum = 0.0125 (at node 5)
	maximum = 0.026 (at node 6)
Accepted packet rate average = 0.0195938
	minimum = 0 (at node 0)
	maximum = 0.3135 (at node 11)
Injected flit rate average = 0.0197188
	minimum = 0.0125 (at node 5)
	maximum = 0.026 (at node 6)
Accepted flit rate average= 0.0195938
	minimum = 0 (at node 0)
	maximum = 0.3135 (at node 11)
Injected packet length average = 1
Accepted packet length average = 1
Total in-flight flits = 4 (0 measured)
latency change    = 0.0172226
throughput change = 0.0366826
Class 0:
Packet latency average = 20.7436
	minimum = 7
	maximum = 48
Network latency average = 20.7436
	minimum = 7
	maximum = 48
Slowest packet = 8124
Flit latency average = 20.7436
	minimum = 7
	maximum = 48
Slowest flit = 8124
Fragmentation average = 0
	minimum = 0
	maximum = 0
Injected packet rate average = 0.0194375
	minimum = 0.013 (at node 5)
	maximum = 0.026 (at node 3)
Accepted packet rate average = 0.0195
	minimum = 0 (at node 0)
	maximum = 0.312 (at node 11)
Injected flit rate average = 0.0194375
	minimum = 0.013 (at node 5)
	maximum = 0.026 (at node 3)
Accepted flit rate average= 0.0195
	minimum = 0 (at node 0)
	maximum = 0.312 (at node 11)
Injected packet length average = 1
Accepted packet length average = 1
Total in-flight flits = 3 (0 measured)
latency change    = 0.0280043
throughput change = 0.00480769
Warmed up ...Time used is 3000 cycles
Class 0:
Packet latency average = 20.5168
	minimum = 7
	maximum = 45
Network latency average = 20.5168
	minimum = 7
	maximum = 45
Slowest packet = 8381
Flit latency average = 20.5333
	minimum = 7
	maximum = 45
Slowest flit = 8381
Fragmentation average = 0
	minimum = 0
	maximum = 0
Injected packet rate average = 0.02075
	minimum = 0.01 (at node 9)
	maximum = 0.033 (at node 4)
Accepted packet rate average = 0.020625
	minimum = 0 (at node 0)
	maximum = 0.33 (at node 11)
Injected flit rate average = 0.02075
	minimum = 0.01 (at node 9)
	maximum = 0.033 (at node 4)
Accepted flit rate average= 0.020625
	minimum = 0 (at node 0)
	maximum = 0.33 (at node 11)
Injected packet length average = 1
Accepted packet length average = 1
Total in-flight flits = 5 (5 measured)
latency change    = 0.0110529
throughput change = 0.0545455
Class 0:
Packet latency average = 20.7538
	minimum = 7
	maximum = 46
Network latency average = 20.7538
	minimum = 7
	maximum = 46
Slowest packet = 8783
Flit latency average = 20.761
	minimum = 7
	maximum = 46
Slowest flit = 8783
Fragmentation average = 0
	minimum = 0
	maximum = 0
Injected packet rate average = 0.0207813
	minimum = 0.0165 (at node 9)
	maximum = 0.0255 (at node 4)
Accepted packet rate average = 0.0206563
	minimum = 0 (at node 0)
	maximum = 0.3305 (at node 11)
Injected flit rate average = 0.0207813
	minimum = 0.0165 (at node 9)
	maximum = 0.0255 (at node 4)
Accepted flit rate average= 0.0206563
	minimum = 0 (at node 0)
	maximum = 0.3305 (at node 11)
Injected packet length average = 1
Accepted packet length average = 1
Total in-flight flits = 7 (7 measured)
latency change    = 0.0114186
throughput change = 0.00151286
Class 0:
Packet latency average = 20.6775
	minimum = 7
	maximum = 46
Network latency average = 20.6775
	minimum = 7
	maximum = 46
Slowest packet = 8783
Flit latency average = 20.6826
	minimum = 7
	maximum = 46
Slowest flit = 8783
Fragmentation average = 0
	minimum = 0
	maximum = 0
Injected packet rate average = 0.020625
	minimum = 0.0153333 (at node 9)
	maximum = 0.0246667 (at node 10)
Accepted packet rate average = 0.0205417
	minimum = 0 (at node 0)
	maximum = 0.328667 (at node 11)
Injected flit rate average = 0.020625
	minimum = 0.0153333 (at node 9)
	maximum = 0.0246667 (at node 10)
Accepted flit rate average= 0.0205417
	minimum = 0 (at node 0)
	maximum = 0.328667 (at node 11)
Injected packet length average = 1
Accepted packet length average = 1
Total in-flight flits = 7 (7 measured)
latency change    = 0.00368911
throughput change = 0.00557809
Class 0:
Packet latency average = 20.5725
	minimum = 7
	maximum = 46
Network latency average = 20.5725
	minimum = 7
	maximum = 46
Slowest packet = 8783
Flit latency average = 20.5765
	minimum = 7
	maximum = 46
Slowest flit = 8783
Fragmentation average = 0
	minimum = 0
	maximum = 0
Injected packet rate average = 0.0205156
	minimum = 0.016 (at node 5)
	maximum = 0.02375 (at node 4)
Accepted packet rate average = 0.0205156
	minimum = 0 (at node 0)
	maximum = 0.32825 (at node 11)
Injected flit rate average = 0.0205156
	minimum = 0.016 (at node 5)
	maximum = 0.02375 (at node 4)
Accepted flit rate average= 0.0205156
	minimum = 0 (at node 0)
	maximum = 0.32825 (at node 11)
Injected packet length average = 1
Accepted packet length average = 1
Total in-flight flits = 3 (3 measured)
latency change    = 0.00510383
throughput change = 0.00126936
Draining all recorded packets ...
Draining remaining packets ...
Time taken is 7037 cycles
Class 0:
Packet latency average = 20.7738
	minimum = 7
	maximum = 42
Network latency average = 20.7738
	minimum = 7
	maximum = 42
Slowest packet = 9661
Flit latency average = 20.7738
	minimum = 7
	maximum = 42
Slowest flit = 9661
Fragmentation average = 0
	minimum = 0
	maximum = 0
Injected packet rate average = 0.019375
	minimum = 0.013 (at node 11)
	maximum = 0.028 (at node 6)
Accepted packet rate average = 0.0190625
	minimum = 0 (at node 0)
	maximum = 0.305 (at node 11)
Injected flit rate average = 0.019375
	minimum = 0.013 (at node 11)
	maximum = 0.028 (at node 6)
Accepted flit rate average= 0.0190625
	minimum = 0 (at node 0)
	maximum = 0.305 (at node 11)
Injected packet length average = 1
Accepted packet length average = 1
Total in-flight flits = 5 (0 measured)
latency change    = 1
throughput change = 1
Class 0:
Packet latency average = 20.5666
	minimum = 7
	maximum = 42
Network latency average = 20.5666
	minimum = 7
	maximum = 42
Slowest packet = 9661
Flit latency average = 20.5666
	minimum = 7
	maximum = 42
Slowest flit = 9661
Fragmentation average = 0
	minimum = 0
	maximum = 0
Injected packet rate average = 0.0193125
	minimum = 0.015 (at node 7)
	maximum = 0.024 (at node 4)
Accepted packet rate average = 0.01925
	minimum = 0 (at node 0)
	maximum = 0.308 (at node 11)
Injected flit rate average = 0.0193125
	minimum = 0.015 (at node 7)
	maximum = 0.024 (at node 4)
Accepted flit rate average= 0.01925
	minimum = 0 (at node 0)
	maximum = 0.308 (at node 11)
Injected packet length average = 1
Accepted packet length average = 1
Total in-flight flits = 2 (0 measured)
latency change    = 0.0100752
throughput change = 0.00974026
Class 0:
Packet latency average = 19.991
	minimum = 7
	maximum = 37
Network latency average = 19.991
	minimum = 7
	maximum = 37
Slowest packet = 10364
Flit latency average = 19.991
	minimum = 7
	maximum = 37
Slowest flit = 10364
Fragmentation average = 0
	minimum = 0
	maximum = 0
Injected packet rate average = 0.0215625
	minimum = 0.014 (at node 12)
	maximum = 0.033 (at node 3)
Accepted packet rate average = 0.02075
	minimum = 0 (at node 0)
	maximum = 0.332 (at node 11)
Injected flit rate average = 0.0215625
	minimum = 0.014 (at node 12)
	maximum = 0.033 (at node 3)
Accepted flit rate average= 0.02075
	minimum = 0 (at node 0)
	maximum = 0.332 (at node 11)
Injected packet length average = 1
Accepted packet length average = 1
Total in-flight flits = 15 (0 measured)
latency change    = 0.0287927
throughput change = 0.0722892
Warmed up ...Time used is 3000 cycles
Class 0:
Packet latency average = 19.3445
	minimum = 7
	maximum = 38
Network latency average = 19.3445
	minimum = 7
	maximum = 38
Slowest packet = 10808
Flit latency average = 19.7389
	minimum = 7
	maximum = 44
Slowest flit = 10585
Fragmentation average = 0
	minimum = 0
	maximum = 0
Injected packet rate average = 0.019375
	minimum = 0.013 (at node 12)
	maximum = 0.03 (at node 11)
Accepted packet rate average = 0.019625
	minimum = 0 (at node 0)
	maximum = 0.314 (at node 11)
Injected flit rate average = 0.019375
	minimum = 0.013 (at node 12)
	maximum = 0.03 (at node 11)
Accepted flit rate average= 0.019625
	minimum = 0 (at node 0)
	maximum = 0.314 (at node 11)
Injected packet length average = 1
Accepted packet length average = 1
Total in-flight flits = 11 (11 measured)
latency change    = 0.0334195
throughput change = 0.0573248
Class 0:
Packet latency average = 20.0982
	minimum = 7
	maximum = 52
Network latency average = 20.0982
	minimum = 7
	maximum = 52
Slowest packet = 11106
Flit latency average = 20.278
	minimum = 7
	maximum = 52
Slowest flit = 11106
Fragmentation average = 0
	minimum = 0
	maximum = 0
Injected packet rate average = 0.01925
	minimum = 0.014 (at node 3)
	maximum = 0.026 (at node 7)
Accepted packet rate average = 0.0195625
	minimum = 0 (at node 0)
	maximum = 0.313 (at node 11)
Injected flit rate average = 0.01925
	minimum = 0.014 (at node 3)
	maximum = 0.026 (at node 7)
Accepted flit rate average= 0.0195625
	minimum = 0 (at node 0)
	maximum = 0.313 (at node 11)
Injected packet length average = 1
Accepted packet length average = 1
Total in-flight flits = 5 (5 measured)
latency change    = 0.0375018
throughput change = 0.00319489
Class 0:
Packet latency average = 19.9652
	minimum = 7
	maximum = 52
Network latency average = 19.9652
	minimum = 7
	maximum = 52
Slowest packet = 11106
Flit latency average = 20.0878
	minimum = 7
	maximum = 52
Slowest flit = 11106
Fragmentation average = 0
	minimum = 0
	maximum = 0
Injected packet rate average = 0.0192917
	minimum = 0.016 (at node 13)
	maximum = 0.0246667 (at node 7)
Accepted packet rate average = 0.0194583
	minimum = 0 (at node 0)
	maximum = 0.311333 (at node 11)
Injected flit rate average = 0.0192917
	minimum = 0.016 (at node 13)
	maximum = 0.0246667 (at node 7)
Accepted flit rate average= 0.0194583
	minimum = 0 (at node 0)
	maximum = 0.311333 (at node 11)
Injected packet length average = 1
Accepted packet length average = 1
Total in-flight flits = 7 (7 measured)
latency change    = 0.00666261
throughput change = 0.00535332
Class 0:
Packet latency average = 19.9959
	minimum = 7
	maximum = 52
Network latency average = 19.9959
	minimum = 7
	maximum = 52
Slowest packet = 11106
Flit latency average = 20.088
	minimum = 7
	maximum = 52
Slowest flit = 11106
Fragmentation average = 0
	minimum = 0
	maximum = 0
Injected packet rate average = 0.01925
	minimum = 0.01625 (at node 0)
	maximum = 0.02375 (at node 7)
Accepted packet rate average = 0.0193594
	minimum = 0 (at node 0)
	maximum = 0.30975 (at node 11)
Injected flit rate average = 0.01925
	minimum = 0.01625 (at node 0)
	maximum = 0.02375 (at node 7)
Accepted flit rate average= 0.0193594
	minimum = 0 (at node 0)
	maximum = 0.30975 (at node 11)
Injected packet length average = 1
Accepted packet length average = 1
Total in-flight flits = 8 (8 measured)
latency change    = 0.00153709
throughput change = 0.00511165
Draining all recorded packets ...
Draining remaining packets ...
Time taken is 7056 cycles
Class 0:
Packet latency average = 20.5079
	minimum = 7
	maximum = 46
Network latency average = 20.5079
	minimum = 7
	maximum = 46
Slowest packet = 11859
Flit latency average = 20.5079
	minimum = 7
	maximum = 46
Slowest flit = 11859
Fragmentation average = 0
	minimum = 0
	maximum = 0
Injected packet rate average = 0.0199375
	minimum = 0.013 (at node 5)
	maximum = 0.032 (at node 0)
Accepted packet rate average = 0.0196875
	minimum = 0 (at node 0)
	maximum = 0.315 (at node 11)
Injected flit rate average = 0.0199375
	minimum = 0.013 (at node 5)
	maximum = 0.032 (at node 0)
Accepted flit rate average= 0.0196875
	minimum = 0 (at node 0)
	maximum = 0.315 (at node 11)
Injected packet length average = 1
Accepted packet length average = 1
Total in-flight flits = 4 (0 measured)
latency change    = 1
throughput change = 1
Class 0:
Packet latency average = 20.4849
	minimum = 7
	maximum = 46
Network latency average = 20.4849
	minimum = 7
	maximum = 46
Slowest packet = 11859
Flit latency average = 20.4849
	minimum = 7
	maximum = 46
Slowest flit = 11859
Fragmentation average = 0
	minimum = 0
	maximum = 0
Injected packet rate average = 0.0189062
	minimum = 0.015 (at node 5)
	maximum = 0.0255 (at node 0)
Accepted packet rate average = 0.0186875
	minimum = 0 (at node 0)
	maximum = 0.299 (at node 11)
Injected flit rate average = 0.0189062
	minimum = 0.015 (at node 5)
	maximum = 0.0255 (at node 0)
Accepted flit rate average= 0.0186875
	minimum = 0 (at node 0)
	maximum = 0.299 (at node 11)
Injected packet length average = 1
Accepted packet length average = 1
Total in-flight flits = 7 (0 measured)
latency change    = 0.00112213
throughput change = 0.0535117
Class 0:
Packet latency average = 20.1524
	minimum = 7
	maximum = 40
Network latency average = 20.1524
	minimum = 7
	maximum = 40
Slowest packet = 12538
Flit latency average = 20.1524
	minimum = 7
	maximum = 40
Slowest flit = 12538
Fragmentation average = 0
	minimum = 0
	maximum = 0
Injected packet rate average = 0.019875
	minimum = 0.012 (at node 13)
	maximum = 0.026 (at node 11)
Accepted packet rate average = 0.0196875
	minimum = 0 (at node 0)
	maximum = 0.315 (at node 11)
Injected flit rate average = 0.019875
	minimum = 0.012 (at node 13)
	maximum = 0.026 (at node 11)
Accepted flit rate average= 0.0196875
	minimum = 0 (at node 0)
	maximum = 0.315 (at node 11)
Injected packet length average = 1
Accepted packet length average = 1
Total in-flight flits = 10 (0 measured)
latency change    = 0.0165027
throughput change = 0.0507937
Warmed up ...Time used is 3000 cycles
Class 0:
Packet latency average = 20.4059
	minimum = 7
	maximum = 42
Network latency average = 20.4059
	minimum = 7
	maximum = 42
Slowest packet = 12987
Flit latency average = 20.5112
	minimum = 7
	maximum = 42
Slowest flit = 12987
Fragmentation average = 0
	minimum = 0
	maximum = 0
Injected packet rate average = 0.0191875
	minimum = 0.013 (at node 14)
	maximum = 0.026 (at node 1)
Accepted packet rate average = 0.0195625
	minimum = 0 (at node 0)
	maximum = 0.313 (at node 11)
Injected flit rate average = 0.0191875
	minimum = 0.013 (at node 14)
	maximum = 0.026 (at node 1)
Accepted flit rate average= 0.0195625
	minimum = 0 (at node 0)
	maximum = 0.313 (at node 11)
Injected packet length average = 1
Accepted packet length average = 1
Total in-flight flits = 4 (4 measured)
latency change    = 0.0124258
throughput change = 0.00638978
Class 0:
Packet latency average = 20.1041
	minimum = 7
	maximum = 42
Network latency average = 20.1041
	minimum = 7
	maximum = 42
Slowest packet = 12987
Flit latency average = 20.1599
	minimum = 7
	maximum = 42
Slowest flit = 12987
Fragmentation average = 0
	minimum = 0
	maximum = 0
Injected packet rate average = 0.0199375
	minimum = 0.0145 (at node 2)
	maximum = 0.023 (at node 8)
Accepted packet rate average = 0.020125
	minimum = 0 (at node 0)
	maximum = 0.322 (at node 11)
Injected flit rate average = 0.0199375
	minimum = 0.0145 (at node 2)
	maximum = 0.023 (at node 8)
Accepted flit rate average= 0.020125
	minimum = 0 (at node 0)
	maximum = 0.322 (at node 11)
Injected packet length average = 1
Accepted packet length average = 1
Total in-flight flits = 4 (4 measured)
latency change    = 0.0150138
throughput change = 0.0279503
Class 0:
Packet latency average = 20.2394
	minimum = 7
	maximum = 53
Network latency average = 20.2394
	minimum = 7
	maximum = 53
Slowest packet = 13506
Flit latency average = 20.2775
	minimum = 7
	maximum = 53
Slowest flit = 13506
Fragmentation average = 0
	minimum = 0
	maximum = 0
Injected packet rate average = 0.0187917
	minimum = 0.015 (at node 12)
	maximum = 0.0213333 (at node 10)
Accepted packet rate average = 0.0189167
	minimum = 0 (at node 0)
	maximum = 0.302667 (at node 11)
Injected flit rate average = 0.0187917
	minimum = 0.015 (at node 12)
	maximum = 0.0213333 (at node 10)
Accepted flit rate average= 0.0189167
	minimum = 0 (at node 0)
	maximum = 0.302667 (at node 11)
Injected packet length average = 1
Accepted packet length average = 1
Total in-flight flits = 4 (4 measured)
latency change    = 0.00668596
throughput change = 0.0638767
Class 0:
Packet latency average = 20.4068
	minimum = 7
	maximum = 53
Network latency average = 20.4068
	minimum = 7
	maximum = 53
Slowest packet = 13506
Flit latency average = 20.4334
	minimum = 7
	maximum = 53
Slowest flit = 13506
Fragmentation average = 0
	minimum = 0
	maximum = 0
Injected packet rate average = 0.0193594
	minimum = 0.01625 (at node 12)
	maximum = 0.0235 (at node 10)
Accepted packet rate average = 0.0193594
	minimum = 0 (at node 0)
	maximum = 0.30975 (at node 11)
Injected flit rate average = 0.0193594
	minimum = 0.01625 (at node 12)
	maximum = 0.0235 (at node 10)
Accepted flit rate average= 0.0193594
	minimum = 0 (at node 0)
	maximum = 0.30975 (at node 11)
Injected packet length average = 1
Accepted packet length average = 1
Total in-flight flits = 10 (10 measured)
latency change    = 0.00820381
throughput change = 0.0228679
Class 0:
Packet latency average = 20.5161
	minimum = 7
	maximum = 53
Network latency average = 20.5161
	minimum = 7
	maximum = 53
Slowest packet = 13506
Flit latency average = 20.5365
	minimum = 7
	maximum = 53
Slowest flit = 13506
Fragmentation average = 0
	minimum = 0
	maximum = 0
Injected packet rate average = 0.01945
	minimum = 0.0168 (at node 2)
	maximum = 0.0232 (at node 10)
Accepted packet rate average = 0.019525
	minimum = 0 (at node 0)
	maximum = 0.3124 (at node 11)
Injected flit rate average = 0.01945
	minimum = 0.0168 (at node 2)
	maximum = 0.0232 (at node 10)
Accepted flit rate average= 0.019525
	minimum = 0 (at node 0)
	maximum = 0.3124 (at node 11)
Injected packet length average = 1
Accepted packet length average = 1
Total in-flight flits = 4 (4 measured)
latency change    = 0.00532623
throughput change = 0.00848271
Class 0:
Packet latency average = 20.5386
	minimum = 7
	maximum = 53
Network latency average = 20.5386
	minimum = 7
	maximum = 53
Slowest packet = 13506
Flit latency average = 20.5555
	minimum = 7
	maximum = 53
Slowest flit = 13506
Fragmentation average = 0
	minimum = 0
	maximum = 0
Injected packet rate average = 0.0194687
	minimum = 0.0173333 (at node 7)
	maximum = 0.0225 (at node 10)
Accepted packet rate average = 0.0195208
	minimum = 0 (at node 0)
	maximum = 0.312333 (at node 11)
Injected flit rate average = 0.0194687
	minimum = 0.0173333 (at node 7)
	maximum = 0.0225 (at node 10)
Accepted flit rate average= 0.0195208
	minimum = 0 (at node 0)
	maximum = 0.312333 (at node 11)
Injected packet length average = 1
Accepted packet length average = 1
Total in-flight flits = 5 (5 measured)
latency change    = 0.00109639
throughput change = 0.000213447
Draining all recorded packets ...
Draining remaining packets ...
Time taken is 9048 cycles
Class 0:
Packet latency average = 20.5117
	minimum = 7
	maximum = 38
Network latency average = 20.5117
	minimum = 7
	maximum = 38
Slowest packet = 14849
Flit latency average = 20.5117
	minimum = 7
	maximum = 38
Slowest flit = 14849
Fragmentation average = 0
	minimum = 0
	maximum = 0
Injected packet rate average = 0.022
	minimum = 0.014 (at node 2)
	maximum = 0.03 (at node 4)
Accepted packet rate average = 0.021375
	minimum = 0 (at node 0)
	maximum = 0.342 (at node 11)
Injected flit rate average = 0.022
	minimum = 0.014 (at node 2)
	maximum = 0.03 (at node 4)
Accepted flit rate average= 0.021375
	minimum = 0 (at node 0)
	maximum = 0.342 (at node 11)
Injected packet length average = 1
Accepted packet length average = 1
Total in-flight flits = 10 (0 measured)
latency change    = 1
throughput change = 1
Class 0:
Packet latency average = 21.0175
	minimum = 7
	maximum = 65
Network latency average = 21.0175
	minimum = 7
	maximum = 65
Slowest packet = 15088
Flit latency average = 21.0175
	minimum = 7
	maximum = 65
Slowest flit = 15088
Fragmentation average = 0
	minimum = 0
	maximum = 0
Injected packet rate average = 0.0215937
	minimum = 0.0155 (at node 2)
	maximum = 0.0265 (at node 4)
Accepted packet rate average = 0.0214063
	minimum = 0 (at node 0)
	maximum = 0.3425 (at node 11)
Injected flit rate average = 0.0215937
	minimum = 0.0155 (at node 2)
	maximum = 0.0265 (at node 4)
Accepted flit rate average= 0.0214063
	minimum = 0 (at node 0)
	maximum = 0.3425 (at node 11)
Injected packet length average = 1
Accepted packet length average = 1
Total in-flight flits = 6 (0 measured)
latency change    = 0.0240667
throughput change = 0.00145985
Class 0:
Packet latency average = 21.1958
	minimum = 7
	maximum = 48
Network latency average = 21.1958
	minimum = 7
	maximum = 48
Slowest packet = 15627
Flit latency average = 21.1958
	minimum = 7
	maximum = 48
Slowest flit = 15627
Fragmentation average = 0
	minimum = 0
	maximum = 0
Injected packet rate average = 0.020875
	minimum = 0.016 (at node 7)
	maximum = 0.027 (at node 0)
Accepted packet rate average = 0.02075
	minimum = 0 (at node 0)
	maximum = 0.332 (at node 11)
Injected flit rate average = 0.020875
	minimum = 0.016 (at node 7)
	maximum = 0.027 (at node 0)
Accepted flit rate average= 0.02075
	minimum = 0 (at node 0)
	maximum = 0.332 (at node 11)
Injected packet length average = 1
Accepted packet length average = 1
Total in-flight flits = 8 (0 measured)
latency change    = 0.00841039
throughput change = 0.0316265
Warmed up ...Time used is 3000 cycles
Class 0:
Packet latency average = 21.5113
	minimum = 7
	maximum = 49
Network latency average = 21.5113
	minimum = 7
	maximum = 49
Slowest packet = 15798
Flit latency average = 21.5768
	minimum = 7
	maximum = 49
Slowest flit = 15798
Fragmentation average = 0
	minimum = 0
	maximum = 0
Injected packet rate average = 0.019875
	minimum = 0.013 (at node 12)
	maximum = 0.029 (at node 1)
Accepted packet rate average = 0.0199375
	minimum = 0 (at node 0)
	maximum = 0.319 (at node 11)
Injected flit rate average = 0.019875
	minimum = 0.013 (at node 12)
	maximum = 0.029 (at node 1)
Accepted flit rate average= 0.0199375
	minimum = 0 (at node 0)
	maximum = 0.319 (at node 11)
Injected packet length average = 1
Accepted packet length average = 1
Total in-flight flits = 7 (7 measured)
latency change    = 0.0146654
throughput change = 0.0407524
Class 0:
Packet latency average = 20.8551
	minimum = 7
	maximum = 49
Network latency average = 20.8551
	minimum = 7
	maximum = 49
Slowest packet = 15798
Flit latency average = 20.8962
	minimum = 7
	maximum = 49
Slowest flit = 15798
Fragmentation average = 0
	minimum = 0
	maximum = 0
Injected packet rate average = 0.01975
	minimum = 0.0165 (at node 11)
	maximum = 0.025 (at node 1)
Accepted packet rate average = 0.019875
	minimum = 0 (at node 0)
	maximum = 0.318 (at node 11)
Injected flit rate average = 0.01975
	minimum = 0.0165 (at node 11)
	maximum = 0.025 (at node 1)
Accepted flit rate average= 0.019875
	minimum = 0 (at node 0)
	maximum = 0.318 (at node 11)
Injected packet length average = 1
Accepted packet length average = 1
Total in-flight flits = 4 (4 measured)
latency change    = 0.0314627
throughput change = 0.00314465
Class 0:
Packet latency average = 20.6635
	minimum = 7
	maximum = 49
Network latency average = 20.6635
	minimum = 7
	maximum = 49
Slowest packet = 15798
Flit latency average = 20.6923
	minimum = 7
	maximum = 49
Slowest flit = 15798
Fragmentation average = 0
	minimum = 0
	maximum = 0
Injected packet rate average = 0.020125
	minimum = 0.0166667 (at node 8)
	maximum = 0.0233333 (at node 6)
Accepted packet rate average = 0.0200417
	minimum = 0 (at node 0)
	maximum = 0.320667 (at node 11)
Injected flit rate average = 0.020125
	minimum = 0.0166667 (at node 8)
	maximum = 0.0233333 (at node 6)
Accepted flit rate average= 0.0200417
	minimum = 0 (at node 0)
	maximum = 0.320667 (at node 11)
Injected packet length average = 1
Accepted packet length average = 1
Total in-flight flits = 12 (12 measured)
latency change    = 0.0092711
throughput change = 0.00831601
Draining all recorded packets ...
Draining remaining packets ...
Time taken is 6046 cycles
Class 0:
Packet latency average = 21.7025
	minimum = 7
	maximum = 41
Network latency average = 21.7025
	minimum = 7
	maximum = 41
Slowest packet = 16911
Flit latency average = 21.7025
	minimum = 7
	maximum = 41
Slowest flit = 16911
Fragmentation average = 0
	minimum = 0
	maximum = 0
Injected packet rate average = 0.02
	minimum = 0.011 (at node 11)
	maximum = 0.034 (at node 12)
Accepted packet rate average = 0.01975
	minimum = 0 (at node 0)
	maximum = 0.316 (at node 11)
Injected flit rate average = 0.02
	minimum = 0.011 (at node 11)
	maximum = 0.034 (at node 12)
Accepted flit rate average= 0.01975
	minimum = 0 (at node 0)
	maximum = 0.316 (at node 11)
Injected packet length average = 1
Accepted packet length average = 1
Total in-flight flits = 4 (0 measured)
latency change    = 1
throughput change = 1
Class 0:
Packet latency average = 21.0447
	minimum = 7
	maximum = 41
Network latency average = 21.0447
	minimum = 7
	maximum = 41
Slowest packet = 16911
Flit latency average = 21.0447
	minimum = 7
	maximum = 41
Slowest flit = 16911
Fragmentation average = 0
	minimum = 0
	maximum = 0
Injected packet rate average = 0.01975
	minimum = 0.013 (at node 14)
	maximum = 0.0265 (at node 2)
Accepted packet rate average = 0.0195938
	minimum = 0 (at node 0)
	maximum = 0.3135 (at node 11)
Injected flit rate average = 0.01975
	minimum = 0.013 (at node 14)
	maximum = 0.0265 (at node 2)
Accepted flit rate average= 0.0195938
	minimum = 0 (at node 0)
	maximum = 0.3135 (at node 11)
Injected packet length average = 1
Accepted packet length average = 1
Total in-flight flits = 5 (0 measured)
latency change    = 0.0312609
throughput change = 0.00797448
Class 0:
Packet latency average = 20.8179
	minimum = 7
	maximum = 40
Network latency average = 20.8179
	minimum = 7
	maximum = 40
Slowest packet = 17501
Flit latency average = 20.8179
	minimum = 7
	maximum = 40
Slowest flit = 17501
Fragmentation average = 0
	minimum = 0
	maximum = 0
Injected packet rate average = 0.0199375
	minimum = 0.014 (at node 7)
	maximum = 0.028 (at node 1)
Accepted packet rate average = 0.0195625
	minimum = 0 (at node 0)
	maximum = 0.313 (at node 11)
Injected flit rate average = 0.0199375
	minimum = 0.014 (at node 7)
	maximum = 0.028 (at node 1)
Accepted flit rate average= 0.0195625
	minimum = 0 (at node 0)
	maximum = 0.313 (at node 11)
Injected packet length average = 1
Accepted packet length average = 1
Total in-flight flits = 11 (0 measured)
latency change    = 0.0108928
throughput change = 0.00159744
Warmed up ...Time used is 3000 cycles
Class 0:
Packet latency average = 21.6254
	minimum = 7
	maximum = 58
Network latency average = 21.6254
	minimum = 7
	maximum = 58
Slowest packet = 17652
Flit latency average = 21.805
	minimum = 7
	maximum = 58
Slowest flit = 17652
Fragmentation average = 0
	minimum = 0
	maximum = 0
Injected packet rate average = 0.02
	minimum = 0.011 (at node 2)
	maximum = 0.025 (at node 4)
Accepted packet rate average = 0.019875
	minimum = 0 (at node 0)
	maximum = 0.318 (at node 11)
Injected flit rate average = 0.02
	minimum = 0.011 (at node 2)
	maximum = 0.025 (at node 4)
Accepted flit rate average= 0.019875
	minimum = 0 (at node 0)
	maximum = 0.318 (at node 11)
Injected packet length average = 1
Accepted packet length average = 1
Total in-flight flits = 13 (13 measured)
latency change    = 0.0373411
throughput change = 0.0157233
Class 0:
Packet latency average = 21.4048
	minimum = 7
	maximum = 58
Network latency average = 21.4048
	minimum = 7
	maximum = 58
Slowest packet = 17652
Flit latency average = 21.4933
	minimum = 7
	maximum = 58
Slowest flit = 17652
Fragmentation average = 0
	minimum = 0
	maximum = 0
Injected packet rate average = 0.0207813
	minimum = 0.0155 (at node 7)
	maximum = 0.027 (at node 9)
Accepted packet rate average = 0.0210313
	minimum = 0 (at node 0)
	maximum = 0.3365 (at node 11)
Injected flit rate average = 0.0207813
	minimum = 0.0155 (at node 7)
	maximum = 0.027 (at node 9)
Accepted flit rate average= 0.0210313
	minimum = 0 (at node 0)
	maximum = 0.3365 (at node 11)
Injected packet length average = 1
Accepted packet length average = 1
Total in-flight flits = 3 (3 measured)
latency change    = 0.0103048
throughput change = 0.0549777
Class 0:
Packet latency average = 20.9634
	minimum = 7
	maximum = 58
Network latency average = 20.9634
	minimum = 7
	maximum = 58
Slowest packet = 17652
Flit latency average = 21.0281
	minimum = 7
	maximum = 58
Slowest flit = 17652
Fragmentation average = 0
	minimum = 0
	maximum = 0
Injected packet rate average = 0.0205833
	minimum = 0.015 (at node 7)
	maximum = 0.0256667 (at node 9)
Accepted packet rate average = 0.0207292
	minimum = 0 (at node 0)
	maximum = 0.331667 (at node 11)
Injected flit rate average = 0.0205833
	minimum = 0.015 (at node 7)
	maximum = 0.0256667 (at node 9)
Accepted flit rate average= 0.0207292
	minimum = 0 (at node 0)
	maximum = 0.331667 (at node 11)
Injected packet length average = 1
Accepted packet length average = 1
Total in-flight flits = 4 (4 measured)
latency change    = 0.0210566
throughput change = 0.0145729
Class 0:
Packet latency average = 21.1814
	minimum = 7
	maximum = 58
Network latency average = 21.1814
	minimum = 7
	maximum = 58
Slowest packet = 17652
Flit latency average = 21.2268
	minimum = 7
	maximum = 58
Slowest flit = 17652
Fragmentation average = 0
	minimum = 0
	maximum = 0
Injected packet rate average = 0.0213125
	minimum = 0.0175 (at node 7)
	maximum = 0.025 (at node 4)
Accepted packet rate average = 0.0213594
	minimum = 0 (at node 0)
	maximum = 0.34175 (at node 11)
Injected flit rate average = 0.0213125
	minimum = 0.0175 (at node 7)
	maximum = 0.025 (at node 4)
Accepted flit rate average= 0.0213594
	minimum = 0 (at node 0)
	maximum = 0.34175 (at node 11)
Injected packet length average = 1
Accepted packet length average = 1
Total in-flight flits = 8 (8 measured)
latency change    = 0.0102921
throughput change = 0.029505
Class 0:
Packet latency average = 21.0734
	minimum = 7
	maximum = 58
Network latency average = 21.0734
	minimum = 7
	maximum = 58
Slowest packet = 17652
Flit latency average = 21.1106
	minimum = 7
	maximum = 58
Slowest flit = 17652
Fragmentation average = 0
	minimum = 0
	maximum = 0
Injected packet rate average = 0.0212125
	minimum = 0.0188 (at node 11)
	maximum = 0.0252 (at node 8)
Accepted packet rate average = 0.02125
	minimum = 0 (at node 0)
	maximum = 0.34 (at node 11)
Injected flit rate average = 0.0212125
	minimum = 0.0188 (at node 11)
	maximum = 0.0252 (at node 8)
Accepted flit rate average= 0.02125
	minimum = 0 (at node 0)
	maximum = 0.34 (at node 11)
Injected packet length average = 1
Accepted packet length average = 1
Total in-flight flits = 8 (8 measured)
latency change    = 0.00512493
throughput change = 0.00514706
Draining all recorded packets ...
Draining remaining packets ...
Time taken is 8047 cycles
Class 0:
Packet latency average = 20.3
	minimum = 7
	maximum = 45
Network latency average = 20.3
	minimum = 7
	maximum = 45
Slowest packet = 19418
Flit latency average = 20.3
	minimum = 7
	maximum = 45
Slowest flit = 19418
Fragmentation average = 0
	minimum = 0
	maximum = 0
Injected packet rate average = 0.01975
	minimum = 0.013 (at node 2)
	maximum = 0.029 (at node 13)
Accepted packet rate average = 0.019375
	minimum = 0 (at node 0)
	maximum = 0.31 (at node 11)
Injected flit rate average = 0.01975
	minimum = 0.013 (at node 2)
	maximum = 0.029 (at node 13)
Accepted flit rate average= 0.019375
	minimum = 0 (at node 0)
	maximum = 0.31 (at node 11)
Injected packet length average = 1
Accepted packet length average = 1
Total in-flight flits = 6 (0 measured)
latency change    = 1
throughput change = 1
Class 0:
Packet latency average = 20.28
	minimum = 7
	maximum = 45
Network latency average = 20.28
	minimum = 7
	maximum = 45
Slowest packet = 19418
Flit latency average = 20.28
	minimum = 7
	maximum = 45
Slowest flit = 19418
Fragmentation average = 0
	minimum = 0
	maximum = 0
Injected packet rate average = 0.0190937
	minimum = 0.015 (at node 12)
	maximum = 0.028 (at node 13)
Accepted packet rate average = 0.01875
	minimum = 0 (at node 0)
	maximum = 0.3 (at node 11)
Injected flit rate average = 0.0190937
	minimum = 0.015 (at node 12)
	maximum = 0.028 (at node 13)
Accepted flit rate average= 0.01875
	minimum = 0 (at node 0)
	maximum = 0.3 (at node 11)
Injected packet length average = 1
Accepted packet length average = 1
Total in-flight flits = 11 (0 measured)
latency change    = 0.000986193
throughput change = 0.0333333
Class 0:
Packet latency average = 20.5097
	minimum = 7
	maximum = 40
Network latency average = 20.5097
	minimum = 7
	maximum = 40
Slowest packet = 19889
Flit latency average = 20.5097
	minimum = 7
	maximum = 40
Slowest flit = 19889
Fragmentation average = 0
	minimum = 0
	maximum = 0
Injected packet rate average = 0.0186875
	minimum = 0.012 (at node 11)
	maximum = 0.03 (at node 15)
Accepted packet rate average = 0.019375
	minimum = 0 (at node 0)
	maximum = 0.31 (at node 11)
Injected flit rate average = 0.0186875
	minimum = 0.012 (at node 11)
	maximum = 0.03 (at node 15)
Accepted flit rate average= 0.019375
	minimum = 0 (at node 0)
	maximum = 0.31 (at node 11)
Injected packet length average = 1
Accepted packet length average = 1
Total in-flight flits = 0 (0 measured)
latency change    = 0.0111985
throughput change = 0.0322581
Warmed up ...Time used is 3000 cycles
Class 0:
Packet latency average = 19.8094
	minimum = 7
	maximum = 40
Network latency average = 19.8094
	minimum = 7
	maximum = 40
Slowest packet = 20358
Flit latency average = 19.8094
	minimum = 7
	maximum = 40
Slowest flit = 20358
Fragmentation average = 0
	minimum = 0
	maximum = 0
Injected packet rate average = 0.0200625
	minimum = 0.012 (at node 12)
	maximum = 0.036 (at node 6)
Accepted packet rate average = 0.02
	minimum = 0 (at node 0)
	maximum = 0.32 (at node 11)
Injected flit rate average = 0.0200625
	minimum = 0.012 (at node 12)
	maximum = 0.036 (at node 6)
Accepted flit rate average= 0.02
	minimum = 0 (at node 0)
	maximum = 0.32 (at node 11)
Injected packet length average = 1
Accepted packet length average = 1
Total in-flight flits = 1 (1 measured)
latency change    = 0.0353521
throughput change = 0.03125
Class 0:
Packet latency average = 19.6444
	minimum = 7
	maximum = 40
Network latency average = 19.6444
	minimum = 7
	maximum = 40
Slowest packet = 20358
Flit latency average = 19.6444
	minimum = 7
	maximum = 40
Slowest flit = 20358
Fragmentation average = 0
	minimum = 0
	maximum = 0
Injected packet rate average = 0.0191875
	minimum = 0.013 (at node 3)
	maximum = 0.0275 (at node 6)
Accepted packet rate average = 0.0187187
	minimum = 0 (at node 0)
	maximum = 0.2995 (at node 11)
Injected flit rate average = 0.0191875
	minimum = 0.013 (at node 3)
	maximum = 0.0275 (at node 6)
Accepted flit rate average= 0.0187187
	minimum = 0 (at node 0)
	maximum = 0.2995 (at node 11)
Injected packet length average = 1
Accepted packet length average = 1
Total in-flight flits = 15 (15 measured)
latency change    = 0.00839769
throughput change = 0.0684474
Class 0:
Packet latency average = 20.1207
	minimum = 7
	maximum = 40
Network latency average = 20.1207
	minimum = 7
	maximum = 40
Slowest packet = 20358
Flit latency average = 20.1207
	minimum = 7
	maximum = 40
Slowest flit = 20358
Fragmentation average = 0
	minimum = 0
	maximum = 0
Injected packet rate average = 0.019
	minimum = 0.0143333 (at node 3)
	maximum = 0.023 (at node 11)
Accepted packet rate average = 0.0189792
	minimum = 0 (at node 0)
	maximum = 0.303667 (at node 11)
Injected flit rate average = 0.019
	minimum = 0.0143333 (at node 3)
	maximum = 0.023 (at node 11)
Accepted flit rate average= 0.0189792
	minimum = 0 (at node 0)
	maximum = 0.303667 (at node 11)
Injected packet length average = 1
Accepted packet length average = 1
Total in-flight flits = 1 (1 measured)
latency change    = 0.023674
throughput change = 0.0137212
Class 0:
Packet latency average = 20.5142
	minimum = 7
	maximum = 45
Network latency average = 20.5142
	minimum = 7
	maximum = 45
Slowest packet = 21232
Flit latency average = 20.5142
	minimum = 7
	maximum = 45
Slowest flit = 21232
Fragmentation average = 0
	minimum = 0
	maximum = 0
Injected packet rate average = 0.0199688
	minimum = 0.01525 (at node 3)
	maximum = 0.0235 (at node 11)
Accepted packet rate average = 0.0198125
	minimum = 0 (at node 0)
	maximum = 0.317 (at node 11)
Injected flit rate average = 0.0199688
	minimum = 0.01525 (at node 3)
	maximum = 0.0235 (at node 11)
Accepted flit rate average= 0.0198125
	minimum = 0 (at node 0)
	maximum = 0.317 (at node 11)
Injected packet length average = 1
Accepted packet length average = 1
Total in-flight flits = 10 (10 measured)
latency change    = 0.0191794
throughput change = 0.042061
Class 0:
Packet latency average = 20.5484
	minimum = 7
	maximum = 46
Network latency average = 20.5484
	minimum = 7
	maximum = 46
Slowest packet = 21491
Flit latency average = 20.5484
	minimum = 7
	maximum = 46
Slowest flit = 21491
Fragmentation average = 0
	minimum = 0
	maximum = 0
Injected packet rate average = 0.019925
	minimum = 0.0152 (at node 3)
	maximum = 0.024 (at node 11)
Accepted packet rate average = 0.019875
	minimum = 0 (at node 0)
	maximum = 0.318 (at node 11)
Injected flit rate average = 0.019925
	minimum = 0.0152 (at node 3)
	maximum = 0.024 (at node 11)
Accepted flit rate average= 0.019875
	minimum = 0 (at node 0)
	maximum = 0.318 (at node 11)
Injected packet length average = 1
Accepted packet length average = 1
Total in-flight flits = 4 (4 measured)
latency change    = 0.00166592
throughput change = 0.00314465
Draining all recorded packets ...
Draining remaining packets ...
Time taken is 8012 cycles
Class 0:
Packet latency average = 20.8774
	minimum = 7
	maximum = 42
Network latency average = 20.8774
	minimum = 7
	maximum = 42
Slowest packet = 21838
Flit latency average = 20.8774
	minimum = 7
	maximum = 42
Slowest flit = 21838
Fragmentation average = 0
	minimum = 0
	maximum = 0
Injected packet rate average = 0.0200625
	minimum = 0.013 (at node 3)
	maximum = 0.028 (at node 0)
Accepted packet rate average = 0.019375
	minimum = 0 (at node 0)
	maximum = 0.31 (at node 11)
Injected flit rate average = 0.0200625
	minimum = 0.013 (at node 3)
	maximum = 0.028 (at node 0)
Accepted flit rate average= 0.019375
	minimum = 0 (at node 0)
	maximum = 0.31 (at node 11)
Injected packet length average = 1
Accepted packet length average = 1
Total in-flight flits = 11 (0 measured)
latency change    = 1
throughput change = 1
Class 0:
Packet latency average = 21.0502
	minimum = 7
	maximum = 42
Network latency average = 21.0502
	minimum = 7
	maximum = 42
Slowest packet = 21838
Flit latency average = 21.0502
	minimum = 7
	maximum = 42
Slowest flit = 21838
Fragmentation average = 0
	minimum = 0
	maximum = 0
Injected packet rate average = 0.0195312
	minimum = 0.015 (at node 3)
	maximum = 0.0245 (at node 1)
Accepted packet rate average = 0.0192812
	minimum = 0 (at node 0)
	maximum = 0.3085 (at node 11)
Injected flit rate average = 0.0195312
	minimum = 0.015 (at node 3)
	maximum = 0.0245 (at node 1)
Accepted flit rate average= 0.0192812
	minimum = 0 (at node 0)
	maximum = 0.3085 (at node 11)
Injected packet length average = 1
Accepted packet length average = 1
Total in-flight flits = 8 (0 measured)
latency change    = 0.00821006
throughput change = 0.00486224
Class 0:
Packet latency average = 20.9511
	minimum = 7
	maximum = 39
Network latency average = 20.9511
	minimum = 7
	maximum = 39
Slowest packet = 22483
Flit latency average = 20.9511
	minimum = 7
	maximum = 39
Slowest flit = 22483
Fragmentation average = 0
	minimum = 0
	maximum = 0
Injected packet rate average = 0.020375
	minimum = 0.015 (at node 11)
	maximum = 0.029 (at node 8)
Accepted packet rate average = 0.0204375
	minimum = 0 (at node 0)
	maximum = 0.327 (at node 11)
Injected flit rate average = 0.020375
	minimum = 0.015 (at node 11)
	maximum = 0.029 (at node 8)
Accepted flit rate average= 0.0204375
	minimum = 0 (at node 0)
	maximum = 0.327 (at node 11)
Injected packet length average = 1
Accepted packet length average = 1
Total in-flight flits = 7 (0 measured)
latency change    = 0.00473354
throughput change = 0.0565749
Warmed up ...Time used is 3000 cycles
Class 0:
Packet latency average = 20.2482
	minimum = 7
	maximum = 46
Network latency average = 20.2482
	minimum = 7
	maximum = 46
Slowest packet = 22885
Flit latency average = 20.2807
	minimum = 7
	maximum = 46
Slowest flit = 22885
Fragmentation average = 0
	minimum = 0
	maximum = 0
Injected packet rate average = 0.0178125
	minimum = 0.005 (at node 3)
	maximum = 0.025 (at node 11)
Accepted packet rate average = 0.0178125
	minimum = 0 (at node 0)
	maximum = 0.285 (at node 11)
Injected flit rate average = 0.0178125
	minimum = 0.005 (at node 3)
	maximum = 0.025 (at node 11)
Accepted flit rate average= 0.0178125
	minimum = 0 (at node 0)
	maximum = 0.285 (at node 11)
Injected packet length average = 1
Accepted packet length average = 1
Total in-flight flits = 7 (7 measured)
latency change    = 0.0347127
throughput change = 0.147368
Class 0:
Packet latency average = 20.3585
	minimum = 7
	maximum = 46
Network latency average = 20.3585
	minimum = 7
	maximum = 46
Slowest packet = 22885
Flit latency average = 20.3725
	minimum = 7
	maximum = 46
Slowest flit = 22885
Fragmentation average = 0
	minimum = 0
	maximum = 0
Injected packet rate average = 0.0190312
	minimum = 0.013 (at node 3)
	maximum = 0.023 (at node 8)
Accepted packet rate average = 0.018875
	minimum = 0 (at node 0)
	maximum = 0.302 (at node 11)
Injected flit rate average = 0.0190312
	minimum = 0.013 (at node 3)
	maximum = 0.023 (at node 8)
Accepted flit rate average= 0.018875
	minimum = 0 (at node 0)
	maximum = 0.302 (at node 11)
Injected packet length average = 1
Accepted packet length average = 1
Total in-flight flits = 12 (12 measured)
latency change    = 0.00541581
throughput change = 0.0562914
Class 0:
Packet latency average = 20.4902
	minimum = 7
	maximum = 46
Network latency average = 20.4902
	minimum = 7
	maximum = 46
Slowest packet = 22885
Flit latency average = 20.4984
	minimum = 7
	maximum = 46
Slowest flit = 22885
Fragmentation average = 0
	minimum = 0
	maximum = 0
Injected packet rate average = 0.0191667
	minimum = 0.015 (at node 3)
	maximum = 0.0226667 (at node 8)
Accepted packet rate average = 0.0191875
	minimum = 0 (at node 0)
	maximum = 0.307 (at node 11)
Injected flit rate average = 0.0191667
	minimum = 0.015 (at node 3)
	maximum = 0.0226667 (at node 8)
Accepted flit rate average= 0.0191875
	minimum = 0 (at node 0)
	maximum = 0.307 (at node 11)
Injected packet length average = 1
Accepted packet length average = 1
Total in-flight flits = 6 (6 measured)
latency change    = 0.0064272
throughput change = 0.0162866
Class 0:
Packet latency average = 20.4614
	minimum = 7
	maximum = 46
Network latency average = 20.4614
	minimum = 7
	maximum = 46
Slowest packet = 22885
Flit latency average = 20.4678
	minimum = 7
	maximum = 46
Slowest flit = 22885
Fragmentation average = 0
	minimum = 0
	maximum = 0
Injected packet rate average = 0.0191562
	minimum = 0.0165 (at node 3)
	maximum = 0.023 (at node 0)
Accepted packet rate average = 0.0191406
	minimum = 0 (at node 0)
	maximum = 0.30625 (at node 11)
Injected flit rate average = 0.0191562
	minimum = 0.0165 (at node 3)
	maximum = 0.023 (at node 0)
Accepted flit rate average= 0.0191406
	minimum = 0 (at node 0)
	maximum = 0.30625 (at node 11)
Injected packet length average = 1
Accepted packet length average = 1
Total in-flight flits = 8 (8 measured)
latency change    = 0.00140465
throughput change = 0.00244898
Class 0:
Packet latency average = 20.5897
	minimum = 7
	maximum = 46
Network latency average = 20.5897
	minimum = 7
	maximum = 46
Slowest packet = 22885
Flit latency average = 20.5941
	minimum = 7
	maximum = 46
Slowest flit = 22885
Fragmentation average = 0
	minimum = 0
	maximum = 0
Injected packet rate average = 0.0195125
	minimum = 0.0166 (at node 3)
	maximum = 0.023 (at node 0)
Accepted packet rate average = 0.019525
	minimum = 0 (at node 0)
	maximum = 0.3124 (at node 11)
Injected flit rate average = 0.0195125
	minimum = 0.0166 (at node 3)
	maximum = 0.023 (at node 0)
Accepted flit rate average= 0.019525
	minimum = 0 (at node 0)
	maximum = 0.3124 (at node 11)
Injected packet length average = 1
Accepted packet length average = 1
Total in-flight flits = 6 (6 measured)
latency change    = 0.00623119
throughput change = 0.0196863
Draining all recorded packets ...
Draining remaining packets ...
Time taken is 8051 cycles
Class 0:
Packet latency average = 20.5455
	minimum = 7
	maximum = 43
Network latency average = 20.5455
	minimum = 7
	maximum = 43
Slowest packet = 24545
Flit latency average = 20.5455
	minimum = 7
	maximum = 43
Slowest flit = 24545
Fragmentation average = 0
	minimum = 0
	maximum = 0
Injected packet rate average = 0.019625
	minimum = 0.013 (at node 7)
	maximum = 0.026 (at node 3)
Accepted packet rate average = 0.01925
	minimum = 0 (at node 0)
	maximum = 0.308 (at node 11)
Injected flit rate average = 0.019625
	minimum = 0.013 (at node 7)
	maximum = 0.026 (at node 3)
Accepted flit rate average= 0.01925
	minimum = 0 (at node 0)
	maximum = 0.308 (at node 11)
Injected packet length average = 1
Accepted packet length average = 1
Total in-flight flits = 6 (0 measured)
latency change    = 1
throughput change = 1
Class 0:
Packet latency average = 20.5386
	minimum = 7
	maximum = 43
Network latency average = 20.5386
	minimum = 7
	maximum = 43
Slowest packet = 24545
Flit latency average = 20.5386
	minimum = 7
	maximum = 43
Slowest flit = 24545
Fragmentation average = 0
	minimum = 0
	maximum = 0
Injected packet rate average = 0.0201563
	minimum = 0.016 (at node 5)
	maximum = 0.0235 (at node 1)
Accepted packet rate average = 0.0198438
	minimum = 0 (at node 0)
	maximum = 0.3175 (at node 11)
Injected flit rate average = 0.0201563
	minimum = 0.016 (at node 5)
	maximum = 0.0235 (at node 1)
Accepted flit rate average= 0.0198438
	minimum = 0 (at node 0)
	maximum = 0.3175 (at node 11)
Injected packet length average = 1
Accepted packet length average = 1
Total in-flight flits = 10 (0 measured)
latency change    = 0.000334583
throughput change = 0.0299213
Class 0:
Packet latency average = 21.3438
	minimum = 7
	maximum = 43
Network latency average = 21.3438
	minimum = 7
	maximum = 43
Slowest packet = 25049
Flit latency average = 21.3438
	minimum = 7
	maximum = 43
Slowest flit = 25049
Fragmentation average = 0
	minimum = 0
	maximum = 0
Injected packet rate average = 0.0194375
	minimum = 0.01 (at node 15)
	maximum = 0.027 (at node 1)
Accepted packet rate average = 0.0198125
	minimum = 0 (at node 0)
	maximum = 0.317 (at node 11)
Injected flit rate average = 0.0194375
	minimum = 0.01 (at node 15)
	maximum = 0.027 (at node 1)
Accepted flit rate average= 0.0198125
	minimum = 0 (at node 0)
	maximum = 0.317 (at node 11)
Injected packet length average = 1
Accepted packet length average = 1
Total in-flight flits = 4 (0 measured)
latency change    = 0.0377282
throughput change = 0.00157729
Warmed up ...Time used is 3000 cycles
Class 0:
Packet latency average = 21.2589
	minimum = 7
	maximum = 47
Network latency average = 21.2589
	minimum = 7
	maximum = 47
Slowest packet = 25405
Flit latency average = 21.2524
	minimum = 7
	maximum = 47
Slowest flit = 25405
Fragmentation average = 0
	minimum = 0
	maximum = 0
Injected packet rate average = 0.0200625
	minimum = 0.013 (at node 6)
	maximum = 0.028 (at node 3)
Accepted packet rate average = 0.0195625
	minimum = 0 (at node 0)
	maximum = 0.313 (at node 11)
Injected flit rate average = 0.0200625
	minimum = 0.013 (at node 6)
	maximum = 0.028 (at node 3)
Accepted flit rate average= 0.0195625
	minimum = 0 (at node 0)
	maximum = 0.313 (at node 11)
Injected packet length average = 1
Accepted packet length average = 1
Total in-flight flits = 12 (12 measured)
latency change    = 0.00399592
throughput change = 0.0127796
Class 0:
Packet latency average = 20.7557
	minimum = 7
	maximum = 47
Network latency average = 20.7557
	minimum = 7
	maximum = 47
Slowest packet = 25405
Flit latency average = 20.7557
	minimum = 7
	maximum = 47
Slowest flit = 25405
Fragmentation average = 0
	minimum = 0
	maximum = 0
Injected packet rate average = 0.0205625
	minimum = 0.013 (at node 6)
	maximum = 0.0275 (at node 14)
Accepted packet rate average = 0.0205938
	minimum = 0 (at node 0)
	maximum = 0.3295 (at node 11)
Injected flit rate average = 0.0205625
	minimum = 0.013 (at node 6)
	maximum = 0.0275 (at node 14)
Accepted flit rate average= 0.0205938
	minimum = 0 (at node 0)
	maximum = 0.3295 (at node 11)
Injected packet length average = 1
Accepted packet length average = 1
Total in-flight flits = 3 (3 measured)
latency change    = 0.0242427
throughput change = 0.0500759
Class 0:
Packet latency average = 20.8522
	minimum = 7
	maximum = 47
Network latency average = 20.8522
	minimum = 7
	maximum = 47
Slowest packet = 25405
Flit latency average = 20.8518
	minimum = 7
	maximum = 47
Slowest flit = 25405
Fragmentation average = 0
	minimum = 0
	maximum = 0
Injected packet rate average = 0.0200833
	minimum = 0.0143333 (at node 6)
	maximum = 0.026 (at node 14)
Accepted packet rate average = 0.0199583
	minimum = 0 (at node 0)
	maximum = 0.319333 (at node 11)
Injected flit rate average = 0.0200833
	minimum = 0.0143333 (at node 6)
	maximum = 0.026 (at node 14)
Accepted flit rate average= 0.0199583
	minimum = 0 (at node 0)
	maximum = 0.319333 (at node 11)
Injected packet length average = 1
Accepted packet length average = 1
Total in-flight flits = 10 (10 measured)
latency change    = 0.00462666
throughput change = 0.0318372
Class 0:
Packet latency average = 20.7964
	minimum = 7
	maximum = 52
Network latency average = 20.7964
	minimum = 7
	maximum = 52
Slowest packet = 26478
Flit latency average = 20.7963
	minimum = 7
	maximum = 52
Slowest flit = 26478
Fragmentation average = 0
	minimum = 0
	maximum = 0
Injected packet rate average = 0.0203125
	minimum = 0.016 (at node 6)
	maximum = 0.0255 (at node 1)
Accepted packet rate average = 0.02025
	minimum = 0 (at node 0)
	maximum = 0.324 (at node 11)
Injected flit rate average = 0.0203125
	minimum = 0.016 (at node 6)
	maximum = 0.0255 (at node 1)
Accepted flit rate average= 0.02025
	minimum = 0 (at node 0)
	maximum = 0.324 (at node 11)
Injected packet length average = 1
Accepted packet length average = 1
Total in-flight flits = 8 (8 measured)
latency change    = 0.00268131
throughput change = 0.0144033
Class 0:
Packet latency average = 20.6807
	minimum = 7
	maximum = 52
Network latency average = 20.6807
	minimum = 7
	maximum = 52
Slowest packet = 26478
Flit latency average = 20.6809
	minimum = 7
	maximum = 52
Slowest flit = 26478
Fragmentation average = 0
	minimum = 0
	maximum = 0
Injected packet rate average = 0.019875
	minimum = 0.0158 (at node 6)
	maximum = 0.0244 (at node 1)
Accepted packet rate average = 0.0199
	minimum = 0 (at node 0)
	maximum = 0.3184 (at node 11)
Injected flit rate average = 0.019875
	minimum = 0.0158 (at node 6)
	maximum = 0.0244 (at node 1)
Accepted flit rate average= 0.0199
	minimum = 0 (at node 0)
	maximum = 0.3184 (at node 11)
Injected packet length average = 1
Accepted packet length average = 1
Total in-flight flits = 2 (2 measured)
latency change    = 0.00559502
throughput change = 0.0175879
Draining all recorded packets ...
Draining remaining packets ...
Time taken is 8048 cycles
Class 0:
Packet latency average = 20.4272
	minimum = 7
	maximum = 41
Network latency average = 20.4272
	minimum = 7
	maximum = 41
Slowest packet = 26881
Flit latency average = 20.4272
	minimum = 7
	maximum = 41
Slowest flit = 26881
Fragmentation average = 0
	minimum = 0
	maximum = 0
Injected packet rate average = 0.01925
	minimum = 0.009 (at node 9)
	maximum = 0.028 (at node 2)
Accepted packet rate average = 0.018875
	minimum = 0 (at node 0)
	maximum = 0.302 (at node 11)
Injected flit rate average = 0.01925
	minimum = 0.009 (at node 9)
	maximum = 0.028 (at node 2)
Accepted flit rate average= 0.018875
	minimum = 0 (at node 0)
	maximum = 0.302 (at node 11)
Injected packet length average = 1
Accepted packet length average = 1
Total in-flight flits = 6 (0 measured)
latency change    = 1
throughput change = 1
Class 0:
Packet latency average = 20.9631
	minimum = 7
	maximum = 53
Network latency average = 20.9631
	minimum = 7
	maximum = 53
Slowest packet = 27336
Flit latency average = 20.9631
	minimum = 7
	maximum = 53
Slowest flit = 27336
Fragmentation average = 0
	minimum = 0
	maximum = 0
Injected packet rate average = 0.0205
	minimum = 0.015 (at node 14)
	maximum = 0.025 (at node 1)
Accepted packet rate average = 0.0203125
	minimum = 0 (at node 0)
	maximum = 0.325 (at node 11)
Injected flit rate average = 0.0205
	minimum = 0.015 (at node 14)
	maximum = 0.025 (at node 1)
Accepted flit rate average= 0.0203125
	minimum = 0 (at node 0)
	maximum = 0.325 (at node 11)
Injected packet length average = 1
Accepted packet length average = 1
Total in-flight flits = 6 (0 measured)
latency change    = 0.0255652
throughput change = 0.0707692
Class 0:
Packet latency average = 20.7415
	minimum = 7
	maximum = 41
Network latency average = 20.7415
	minimum = 7
	maximum = 41
Slowest packet = 27658
Flit latency average = 20.7415
	minimum = 7
	maximum = 41
Slowest flit = 27658
Fragmentation average = 0
	minimum = 0
	maximum = 0
Injected packet rate average = 0.020125
	minimum = 0.012 (at node 3)
	maximum = 0.029 (at node 1)
Accepted packet rate average = 0.0203125
	minimum = 0 (at node 0)
	maximum = 0.325 (at node 11)
Injected flit rate average = 0.020125
	minimum = 0.012 (at node 3)
	maximum = 0.029 (at node 1)
Accepted flit rate average= 0.0203125
	minimum = 0 (at node 0)
	maximum = 0.325 (at node 11)
Injected packet length average = 1
Accepted packet length average = 1
Total in-flight flits = 3 (0 measured)
latency change    = 0.0106809
throughput change = 0
Warmed up ...Time used is 3000 cycles
Class 0:
Packet latency average = 20.9029
	minimum = 7
	maximum = 49
Network latency average = 20.9029
	minimum = 7
	maximum = 49
Slowest packet = 27883
Flit latency average = 20.9271
	minimum = 7
	maximum = 49
Slowest flit = 27883
Fragmentation average = 0
	minimum = 0
	maximum = 0
Injected packet rate average = 0.0218125
	minimum = 0.013 (at node 0)
	maximum = 0.028 (at node 12)
Accepted packet rate average = 0.0214375
	minimum = 0 (at node 0)
	maximum = 0.343 (at node 11)
Injected flit rate average = 0.0218125
	minimum = 0.013 (at node 0)
	maximum = 0.028 (at node 12)
Accepted flit rate average= 0.0214375
	minimum = 0 (at node 0)
	maximum = 0.343 (at node 11)
Injected packet length average = 1
Accepted packet length average = 1
Total in-flight flits = 9 (9 measured)
latency change    = 0.00772153
throughput change = 0.0524781
Class 0:
Packet latency average = 20.7883
	minimum = 7
	maximum = 49
Network latency average = 20.7883
	minimum = 7
	maximum = 49
Slowest packet = 27883
Flit latency average = 20.8019
	minimum = 7
	maximum = 49
Slowest flit = 27883
Fragmentation average = 0
	minimum = 0
	maximum = 0
Injected packet rate average = 0.0199375
	minimum = 0.013 (at node 6)
	maximum = 0.025 (at node 13)
Accepted packet rate average = 0.019875
	minimum = 0 (at node 0)
	maximum = 0.318 (at node 11)
Injected flit rate average = 0.0199375
	minimum = 0.013 (at node 6)
	maximum = 0.025 (at node 13)
Accepted flit rate average= 0.019875
	minimum = 0 (at node 0)
	maximum = 0.318 (at node 11)
Injected packet length average = 1
Accepted packet length average = 1
Total in-flight flits = 5 (5 measured)
latency change    = 0.00551423
throughput change = 0.0786164
Class 0:
Packet latency average = 20.8106
	minimum = 7
	maximum = 49
Network latency average = 20.8106
	minimum = 7
	maximum = 49
Slowest packet = 27883
Flit latency average = 20.8196
	minimum = 7
	maximum = 49
Slowest flit = 27883
Fragmentation average = 0
	minimum = 0
	maximum = 0
Injected packet rate average = 0.0198333
	minimum = 0.014 (at node 6)
	maximum = 0.0263333 (at node 13)
Accepted packet rate average = 0.01975
	minimum = 0 (at node 0)
	maximum = 0.316 (at node 11)
Injected flit rate average = 0.0198333
	minimum = 0.014 (at node 6)
	maximum = 0.0263333 (at node 13)
Accepted flit rate average= 0.01975
	minimum = 0 (at node 0)
	maximum = 0.316 (at node 11)
Injected packet length average = 1
Accepted packet length average = 1
Total in-flight flits = 7 (7 measured)
latency change    = 0.00107024
throughput change = 0.00632911
Class 0:
Packet latency average = 20.8025
	minimum = 7
	maximum = 49
Network latency average = 20.8025
	minimum = 7
	maximum = 49
Slowest packet = 27883
Flit latency average = 20.8092
	minimum = 7
	maximum = 49
Slowest flit = 27883
Fragmentation average = 0
	minimum = 0
	maximum = 0
Injected packet rate average = 0.0201563
	minimum = 0.01625 (at node 14)
	maximum = 0.0255 (at node 13)
Accepted packet rate average = 0.0201406
	minimum = 0 (at node 0)
	maximum = 0.32225 (at node 11)
Injected flit rate average = 0.0201563
	minimum = 0.01625 (at node 14)
	maximum = 0.0255 (at node 13)
Accepted flit rate average= 0.0201406
	minimum = 0 (at node 0)
	maximum = 0.32225 (at node 11)
Injected packet length average = 1
Accepted packet length average = 1
Total in-flight flits = 4 (4 measured)
latency change    = 0.000389072
throughput change = 0.0193949
Class 0:
Packet latency average = 20.8942
	minimum = 7
	maximum = 49
Network latency average = 20.8942
	minimum = 7
	maximum = 49
Slowest packet = 27883
Flit latency average = 20.8994
	minimum = 7
	maximum = 49
Slowest flit = 27883
Fragmentation average = 0
	minimum = 0
	maximum = 0
Injected packet rate average = 0.0201625
	minimum = 0.016 (at node 14)
	maximum = 0.0234 (at node 13)
Accepted packet rate average = 0.020125
	minimum = 0 (at node 0)
	maximum = 0.322 (at node 11)
Injected flit rate average = 0.0201625
	minimum = 0.016 (at node 14)
	maximum = 0.0234 (at node 13)
Accepted flit rate average= 0.020125
	minimum = 0 (at node 0)
	maximum = 0.322 (at node 11)
Injected packet length average = 1
Accepted packet length average = 1
Total in-flight flits = 6 (6 measured)
latency change    = 0.00438995
throughput change = 0.000776398
Draining all recorded packets ...
Draining remaining packets ...
Time taken is 8050 cycles
Class 0:
Packet latency average = 20.7778
	minimum = 7
	maximum = 41
Network latency average = 20.7778
	minimum = 7
	maximum = 41
Slowest packet = 29675
Flit latency average = 20.7778
	minimum = 7
	maximum = 41
Slowest flit = 29675
Fragmentation average = 0
	minimum = 0
	maximum = 0
Injected packet rate average = 0.0201875
	minimum = 0.014 (at node 1)
	maximum = 0.027 (at node 0)
Accepted packet rate average = 0.0196875
	minimum = 0 (at node 0)
	maximum = 0.315 (at node 11)
Injected flit rate average = 0.0201875
	minimum = 0.014 (at node 1)
	maximum = 0.027 (at node 0)
Accepted flit rate average= 0.0196875
	minimum = 0 (at node 0)
	maximum = 0.315 (at node 11)
Injected packet length average = 1
Accepted packet length average = 1
Total in-flight flits = 8 (0 measured)
latency change    = 1
[...]
Class 0:
Packet latency average = 20.3932
	minimum = 7
	maximum = 40
Network latency average = 20.3932
	minimum = 7
	maximum = 40
Slowest packet = 220845
Flit latency average = 20.3932
	minimum = 7
	maximum = 40
Slowest flit = 220845
Fragmentation average = 0
	minimum = 0
	maximum = 0
Injected packet rate average = 0.0189375
	minimum = 0.014 (at node 14)
	maximum = 0.026 (at node 0)
Accepted packet rate average = 0.0184375
	minimum = 0 (at node 0)
	maximum = 0.295 (at node 11)
Injected flit rate average = 0.0189375
	minimum = 0.014 (at node 14)
	maximum = 0.026 (at node 0)
Accepted flit rate average= 0.0184375
	minimum = 0 (at node 0)
	maximum = 0.295 (at node 11)
Injected packet length average = 1
Accepted packet length average = 1
Total in-flight flits = 8 (0 measured)
latency change    = 1
throughput change = 1
Class 0:
Packet latency average = 20.538
	minimum = 7
	maximum = 45
Network latency average = 20.538
	minimum = 7
	maximum = 45
Slowest packet = 221166
Flit latency average = 20.538
	minimum = 7
	maximum = 45
Slowest flit = 221166
Fragmentation average = 0
	minimum = 0
	maximum = 0
Injected packet rate average = 0.0199375
	minimum = 0.016 (at node 15)
	maximum = 0.0235 (at node 8)
Accepted packet rate average = 0.01975
	minimum = 0 (at node 0)
	maximum = 0.316 (at node 11)
Injected flit rate average = 0.0199375
	minimum = 0.016 (at node 15)
	maximum = 0.0235 (at node 8)
Accepted flit rate average= 0.01975
	minimum = 0 (at node 0)
	maximum = 0.316 (at node 11)
Injected packet length average = 1
Accepted packet length average = 1
Total in-flight flits = 6 (0 measured)
latency change    = 0.00704813
throughput change = 0.0664557
Class 0:
Packet latency average = 19.6962
	minimum = 7
	maximum = 34
Network latency average = 19.6962
	minimum = 7
	maximum = 34
Slowest packet = 221463
Flit latency average = 19.6962
	minimum = 7
	maximum = 34
Slowest flit = 221463
Fragmentation average = 0
	minimum = 0
	maximum = 0
Injected packet rate average = 0.0181875
	minimum = 0.011 (at node 3)
	maximum = 0.025 (at node 6)
Accepted packet rate average = 0.0183125
	minimum = 0 (at node 0)
	maximum = 0.293 (at node 11)
Injected flit rate average = 0.0181875
	minimum = 0.011 (at node 3)
	maximum = 0.025 (at node 6)
Accepted flit rate average= 0.0183125
	minimum = 0 (at node 0)
	maximum = 0.293 (at node 11)
Injected packet length average = 1
Accepted packet length average = 1
Total in-flight flits = 4 (0 measured)
latency change    = 0.0427355
throughput change = 0.0784983
Warmed up ...Time used is 3000 cycles
Class 0:
Packet latency average = 20.5782
	minimum = 7
	maximum = 40
Network latency average = 20.5782
	minimum = 7
	maximum = 40
Slowest packet = 221784
Flit latency average = 20.6523
	minimum = 7
	maximum = 40
Slowest flit = 221784
Fragmentation average = 0
	minimum = 0
	maximum = 0
Injected packet rate average = 0.0175
	minimum = 0.012 (at node 7)
	maximum = 0.025 (at node 6)
Accepted packet rate average = 0.0174375
	minimum = 0 (at node 0)
	maximum = 0.279 (at node 11)
Injected flit rate average = 0.0175
	minimum = 0.012 (at node 7)
	maximum = 0.025 (at node 6)
Accepted flit rate average= 0.0174375
	minimum = 0 (at node 0)
	maximum = 0.279 (at node 11)
Injected packet length average = 1
Accepted packet length average = 1
Total in-flight flits = 5 (5 measured)
latency change    = 0.0428578
throughput change = 0.0501792
Class 0:
Packet latency average = 20.6039
	minimum = 7
	maximum = 43
Network latency average = 20.6039
	minimum = 7
	maximum = 43
Slowest packet = 222049
Flit latency average = 20.6368
	minimum = 7
	maximum = 43
Slowest flit = 222049
Fragmentation average = 0
	minimum = 0
	maximum = 0
Injected packet rate average = 0.0195625
	minimum = 0.013 (at node 12)
	maximum = 0.0265 (at node 4)
Accepted packet rate average = 0.0195312
	minimum = 0 (at node 0)
	maximum = 0.3125 (at node 11)
Injected flit rate average = 0.0195625
	minimum = 0.013 (at node 12)
	maximum = 0.0265 (at node 4)
Accepted flit rate average= 0.0195312
	minimum = 0 (at node 0)
	maximum = 0.3125 (at node 11)
Injected packet length average = 1
Accepted packet length average = 1
Total in-flight flits = 5 (5 measured)
latency change    = 0.00124651
throughput change = 0.1072
Class 0:
Packet latency average = 20.7223
	minimum = 7
	maximum = 43
Network latency average = 20.7223
	minimum = 7
	maximum = 43
Slowest packet = 222049
Flit latency average = 20.7438
	minimum = 7
	maximum = 43
Slowest flit = 222049
Fragmentation average = 0
	minimum = 0
	maximum = 0
Injected packet rate average = 0.0195625
	minimum = 0.0153333 (at node 7)
	maximum = 0.0256667 (at node 4)
Accepted packet rate average = 0.0194375
	minimum = 0 (at node 0)
	maximum = 0.311 (at node 11)
Injected flit rate average = 0.0195625
	minimum = 0.0153333 (at node 7)
	maximum = 0.0256667 (at node 4)
Accepted flit rate average= 0.0194375
	minimum = 0 (at node 0)
	maximum = 0.311 (at node 11)
Injected packet length average = 1
Accepted packet length average = 1
Total in-flight flits = 10 (10 measured)
latency change    = 0.00571449
throughput change = 0.00482315
Class 0:
Packet latency average = 20.6919
	minimum = 7
	maximum = 44
Network latency average = 20.6919
	minimum = 7
	maximum = 44
Slowest packet = 222677
Flit latency average = 20.708
	minimum = 7
	maximum = 44
Slowest flit = 222677
Fragmentation average = 0
	minimum = 0
	maximum = 0
Injected packet rate average = 0.0196875
	minimum = 0.0155 (at node 12)
	maximum = 0.02375 (at node 4)
Accepted packet rate average = 0.0196406
	minimum = 0 (at node 0)
	maximum = 0.31425 (at node 11)
Injected flit rate average = 0.0196875
	minimum = 0.0155 (at node 12)
	maximum = 0.02375 (at node 4)
Accepted flit rate average= 0.0196406
	minimum = 0 (at node 0)
	maximum = 0.31425 (at node 11)
Injected packet length average = 1
Accepted packet length average = 1
Total in-flight flits = 7 (7 measured)
latency change    = 0.0014664
throughput change = 0.0103421
Class 0:
Packet latency average = 20.6542
	minimum = 7
	maximum = 44
Network latency average = 20.6542
	minimum = 7
	maximum = 44
Slowest packet = 222677
Flit latency average = 20.6673
	minimum = 7
	maximum = 44
Slowest flit = 222677
Fragmentation average = 0
	minimum = 0
	maximum = 0
Injected packet rate average = 0.01955
	minimum = 0.0168 (at node 12)
	maximum = 0.0244 (at node 4)
Accepted packet rate average = 0.0195
	minimum = 0 (at node 0)
	maximum = 0.312 (at node 11)
Injected flit rate average = 0.01955
	minimum = 0.0168 (at node 12)
	maximum = 0.0244 (at node 4)
Accepted flit rate average= 0.0195
	minimum = 0 (at node 0)
	maximum = 0.312 (at node 11)
Injected packet length average = 1
Accepted packet length average = 1
Total in-flight flits = 8 (8 measured)
latency change    = 0.00182518
throughput change = 0.00721154
Draining all recorded packets ...
Draining remaining packets ...
Time taken is 8044 cycles
Class 0:
Packet latency average = 20.9216
	minimum = 7
	maximum = 39
Network latency average = 20.9216
	minimum = 7
	maximum = 39
Slowest packet = 223504
Flit latency average = 20.9216
	minimum = 7
	maximum = 39
Slowest flit = 223504
Fragmentation average = 0
	minimum = 0
	maximum = 0
Injected packet rate average = 0.0205625
	minimum = 0.014 (at node 3)
	maximum = 0.031 (at node 13)
Accepted packet rate average = 0.0199375
	minimum = 0 (at node 0)
	maximum = 0.319 (at node 11)
Injected flit rate average = 0.0205625
	minimum = 0.014 (at node 3)
	maximum = 0.031 (at node 13)
Accepted flit rate average= 0.0199375
	minimum = 0 (at node 0)
	maximum = 0.319 (at node 11)
Injected packet length average = 1
Accepted packet length average = 1
Total in-flight flits = 10 (0 measured)
latency change    = 1
throughput change = 1
Class 0:
Packet latency average = 20.989
	minimum = 7
	maximum = 42
Network latency average = 20.989
	minimum = 7
	maximum = 42
Slowest packet = 223520
Flit latency average = 20.989
	minimum = 7
	maximum = 42
Slowest flit = 223520
Fragmentation average = 0
	minimum = 0
	maximum = 0
Injected packet rate average = 0.0200625
	minimum = 0.0145 (at node 6)
	maximum = 0.0275 (at node 13)
Accepted packet rate average = 0.0198438
	minimum = 0 (at node 0)
	maximum = 0.3175 (at node 11)
Injected flit rate average = 0.0200625
	minimum = 0.0145 (at node 6)
	maximum = 0.0275 (at node 13)
Accepted flit rate average= 0.0198438
	minimum = 0 (at node 0)
	maximum = 0.3175 (at node 11)
Injected packet length average = 1
Accepted packet length average = 1
Total in-flight flits = 7 (0 measured)
latency change    = 0.00320865
throughput change = 0.00472441
Class 0:
Packet latency average = 20.0867
	minimum = 7
	maximum = 38
Network latency average = 20.0867
	minimum = 7
	maximum = 38
Slowest packet = 223961
Flit latency average = 20.0867
	minimum = 7
	maximum = 38
Slowest flit = 223961
Fragmentation average = 0
	minimum = 0
	maximum = 0
Injected packet rate average = 0.0203125
	minimum = 0.012 (at node 15)
	maximum = 0.026 (at node 3)
Accepted packet rate average = 0.0201875
	minimum = 0 (at node 0)
	maximum = 0.323 (at node 11)
Injected flit rate average = 0.0203125
	minimum = 0.012 (at node 15)
	maximum = 0.026 (at node 3)
Accepted flit rate average= 0.0201875
	minimum = 0 (at node 0)
	maximum = 0.323 (at node 11)
Injected packet length average = 1
Accepted packet length average = 1
Total in-flight flits = 9 (0 measured)
latency change    = 0.0449198
throughput change = 0.0170279
Warmed up ...Time used is 3000 cycles
Class 0:
Packet latency average = 20.8523
	minimum = 7
	maximum = 49
Network latency average = 20.8523
	minimum = 7
	maximum = 49
Slowest packet = 224441
Flit latency average = 20.867
	minimum = 7
	maximum = 49
Slowest flit = 224441
Fragmentation average = 0
	minimum = 0
	maximum = 0
Injected packet rate average = 0.022125
	minimum = 0.014 (at node 3)
	maximum = 0.034 (at node 11)
Accepted packet rate average = 0.0225625
	minimum = 0 (at node 0)
	maximum = 0.361 (at node 11)
Injected flit rate average = 0.022125
	minimum = 0.014 (at node 3)
	maximum = 0.034 (at node 11)
Accepted flit rate average= 0.0225625
	minimum = 0 (at node 0)
	maximum = 0.361 (at node 11)
Injected packet length average = 1
Accepted packet length average = 1
Total in-flight flits = 2 (2 measured)
latency change    = 0.0367147
throughput change = 0.105263
Class 0:
Packet latency average = 20.8887
	minimum = 7
	maximum = 49
Network latency average = 20.8887
	minimum = 7
	maximum = 49
Slowest packet = 224441
Flit latency average = 20.896
	minimum = 7
	maximum = 49
Slowest flit = 224441
Fragmentation average = 0
	minimum = 0
	maximum = 0
Injected packet rate average = 0.0215937
	minimum = 0.0125 (at node 7)
	maximum = 0.028 (at node 15)
Accepted packet rate average = 0.021625
	minimum = 0 (at node 0)
	maximum = 0.346 (at node 11)
Injected flit rate average = 0.0215937
	minimum = 0.0125 (at node 7)
	maximum = 0.028 (at node 15)
Accepted flit rate average= 0.021625
	minimum = 0 (at node 0)
	maximum = 0.346 (at node 11)
Injected packet length average = 1
Accepted packet length average = 1
Total in-flight flits = 8 (8 measured)
latency change    = 0.00174513
throughput change = 0.0433526
Class 0:
Packet latency average = 21.0837
	minimum = 7
	maximum = 49
Network latency average = 21.0837
	minimum = 7
	maximum = 49
Slowest packet = 224441
Flit latency average = 21.0868
	minimum = 7
	maximum = 49
Slowest flit = 224441
Fragmentation average = 0
	minimum = 0
	maximum = 0
Injected packet rate average = 0.0213125
	minimum = 0.014 (at node 7)
	maximum = 0.027 (at node 8)
Accepted packet rate average = 0.0213542
	minimum = 0 (at node 0)
	maximum = 0.341667 (at node 11)
Injected flit rate average = 0.0213125
	minimum = 0.014 (at node 7)
	maximum = 0.027 (at node 8)
Accepted flit rate average= 0.0213542
	minimum = 0 (at node 0)
	maximum = 0.341667 (at node 11)
Injected packet length average = 1
Accepted packet length average = 1
Total in-flight flits = 7 (7 measured)
latency change    = 0.00924579
throughput change = 0.0126829
Class 0:
Packet latency average = 20.8886
	minimum = 7
	maximum = 49
Network latency average = 20.8886
	minimum = 7
	maximum = 49
Slowest packet = 224441
Flit latency average = 20.8924
	minimum = 7
	maximum = 49
Slowest flit = 224441
Fragmentation average = 0
	minimum = 0
	maximum = 0
Injected packet rate average = 0.0204844
	minimum = 0.01425 (at node 7)
	maximum = 0.02525 (at node 8)
Accepted packet rate average = 0.0204844
	minimum = 0 (at node 0)
	maximum = 0.32775 (at node 11)
Injected flit rate average = 0.0204844
	minimum = 0.01425 (at node 7)
	maximum = 0.02525 (at node 8)
Accepted flit rate average= 0.0204844
	minimum = 0 (at node 0)
	maximum = 0.32775 (at node 11)
Injected packet length average = 1
Accepted packet length average = 1
Total in-flight flits = 9 (9 measured)
latency change    = 0.00933659
throughput change = 0.0424612
Draining all recorded packets ...
Draining remaining packets ...
Time taken is 7038 cycles
Class 0:
Packet latency average = 19.8531
	minimum = 7
	maximum = 39
Network latency average = 19.8531
	minimum = 7
	maximum = 39
Slowest packet = 225507
Flit latency average = 19.8531
	minimum = 7
	maximum = 39
Slowest flit = 225507
Fragmentation average = 0
	minimum = 0
	maximum = 0
Injected packet rate average = 0.018375
	minimum = 0.012 (at node 13)
	maximum = 0.025 (at node 6)
Accepted packet rate average = 0.017875
	minimum = 0 (at node 0)
	maximum = 0.286 (at node 11)
Injected flit rate average = 0.018375
	minimum = 0.012 (at node 13)
	maximum = 0.025 (at node 6)
Accepted flit rate average= 0.017875
	minimum = 0 (at node 0)
	maximum = 0.286 (at node 11)
Injected packet length average = 1
Accepted packet length average = 1
Total in-flight flits = 8 (0 measured)
latency change    = 1
throughput change = 1
Class 0:
Packet latency average = 20.754
	minimum = 7
	maximum = 39
Network latency average = 20.754
	minimum = 7
	maximum = 39
Slowest packet = 225507
Flit latency average = 20.754
	minimum = 7
	maximum = 39
Slowest flit = 225507
Fragmentation average = 0
	minimum = 0
	maximum = 0
Injected packet rate average = 0.0196875
	minimum = 0.0155 (at node 2)
	maximum = 0.0265 (at node 6)
Accepted packet rate average = 0.0195625
	minimum = 0 (at node 0)
	maximum = 0.313 (at node 11)
Injected flit rate average = 0.0196875
	minimum = 0.0155 (at node 2)
	maximum = 0.0265 (at node 6)
Accepted flit rate average= 0.0195625
	minimum = 0 (at node 0)
	maximum = 0.313 (at node 11)
Injected packet length average = 1
Accepted packet length average = 1
Total in-flight flits = 4 (0 measured)
latency change    = 0.0434059
throughput change = 0.086262
Class 0:
Packet latency average = 20.3686
	minimum = 7
	maximum = 42
Network latency average = 20.3686
	minimum = 7
	maximum = 42
Slowest packet = 226334
Flit latency average = 20.3686
	minimum = 7
	maximum = 42
Slowest flit = 226334
Fragmentation average = 0
	minimum = 0
	maximum = 0
Injected packet rate average = 0.0206875
	minimum = 0.014 (at node 1)
	maximum = 0.03 (at node 5)
Accepted packet rate average = 0.0206875
	minimum = 0 (at node 0)
	maximum = 0.331 (at node 11)
Injected flit rate average = 0.0206875
	minimum = 0.014 (at node 1)
	maximum = 0.03 (at node 5)
Accepted flit rate average= 0.0206875
	minimum = 0 (at node 0)
	maximum = 0.331 (at node 11)
Injected packet length average = 1
Accepted packet length average = 1
Total in-flight flits = 4 (0 measured)
latency change    = 0.018922
throughput change = 0.0543807
Warmed up ...Time used is 3000 cycles
Class 0:
Packet latency average = 19.7867
	minimum = 7
	maximum = 39
Network latency average = 19.7867
	minimum = 7
	maximum = 39
Slowest packet = 226608
Flit latency average = 19.7993
	minimum = 7
	maximum = 39
Slowest flit = 226608
Fragmentation average = 0
	minimum = 0
	maximum = 0
Injected packet rate average = 0.01925
	minimum = 0.012 (at node 0)
	maximum = 0.029 (at node 15)
Accepted packet rate average = 0.019
	minimum = 0 (at node 0)
	maximum = 0.304 (at node 11)
Injected flit rate average = 0.01925
	minimum = 0.012 (at node 0)
	maximum = 0.029 (at node 15)
Accepted flit rate average= 0.019
	minimum = 0 (at node 0)
	maximum = 0.304 (at node 11)
Injected packet length average = 1
Accepted packet length average = 1
Total in-flight flits = 8 (8 measured)
latency change    = 0.0294094
throughput change = 0.0888158
Class 0:
Packet latency average = 20.533
	minimum = 7
	maximum = 43
Network latency average = 20.533
	minimum = 7
	maximum = 43
Slowest packet = 226861
Flit latency average = 20.5344
	minimum = 7
	maximum = 43
Slowest flit = 226861
Fragmentation average = 0
	minimum = 0
	maximum = 0
Injected packet rate average = 0.0196563
	minimum = 0.014 (at node 8)
	maximum = 0.023 (at node 15)
Accepted packet rate average = 0.0195312
	minimum = 0 (at node 0)
	maximum = 0.3125 (at node 11)
Injected flit rate average = 0.0196563
	minimum = 0.014 (at node 8)
	maximum = 0.023 (at node 15)
Accepted flit rate average= 0.0195312
	minimum = 0 (at node 0)
	maximum = 0.3125 (at node 11)
Injected packet length average = 1
Accepted packet length average = 1
Total in-flight flits = 8 (8 measured)
latency change    = 0.0363485
throughput change = 0.0272
Class 0:
Packet latency average = 20.5866
	minimum = 7
	maximum = 44
Network latency average = 20.5866
	minimum = 7
	maximum = 44
Slowest packet = 227323
Flit latency average = 20.5873
	minimum = 7
	maximum = 44
Slowest flit = 227323
Fragmentation average = 0
	minimum = 0
	maximum = 0
Injected packet rate average = 0.0196458
	minimum = 0.0136667 (at node 8)
	maximum = 0.023 (at node 3)
Accepted packet rate average = 0.0196875
	minimum = 0 (at node 0)
	maximum = 0.315 (at node 11)
Injected flit rate average = 0.0196458
	minimum = 0.0136667 (at node 8)
	maximum = 0.023 (at node 3)
Accepted flit rate average= 0.0196875
	minimum = 0 (at node 0)
	maximum = 0.315 (at node 11)
Injected packet length average = 1
Accepted packet length average = 1
Total in-flight flits = 2 (2 measured)
latency change    = 0.00260357
throughput change = 0.00793651
Class 0:
Packet latency average = 20.7533
	minimum = 7
	maximum = 44
Network latency average = 20.7533
	minimum = 7
	maximum = 44
Slowest packet = 227323
Flit latency average = 20.7533
	minimum = 7
	maximum = 44
Slowest flit = 227323
Fragmentation average = 0
	minimum = 0
	maximum = 0
Injected packet rate average = 0.0199219
	minimum = 0.01375 (at node 8)
	maximum = 0.02225 (at node 3)
Accepted packet rate average = 0.0199531
	minimum = 0 (at node 0)
	maximum = 0.31925 (at node 11)
Injected flit rate average = 0.0199219
	minimum = 0.01375 (at node 8)
	maximum = 0.02225 (at node 3)
Accepted flit rate average= 0.0199531
	minimum = 0 (at node 0)
	maximum = 0.31925 (at node 11)
Injected packet length average = 1
Accepted packet length average = 1
Total in-flight flits = 2 (2 measured)
latency change    = 0.00803382
throughput change = 0.0133125
Draining all recorded packets ...
Draining remaining packets ...
Time taken is 7035 cycles
====== Overall Traffic Statistics ======
====== Traffic class 0 ======
Packet latency average = 20.6508 (100 samples)
	minimum = 7 (100 samples)
	maximum = 48.72 (100 samples)
Network latency average = 20.6508 (100 samples)
	minimum = 7 (100 samples)
	maximum = 48.72 (100 samples)
Flit latency average = 20.6636 (100 samples)
	minimum = 7 (100 samples)
	maximum = 48.77 (100 samples)
Fragmentation average = 0 (100 samples)
	minimum = 0 (100 samples)
	maximum = 0 (100 samples)
Injected packet rate average = 0.0199518 (100 samples)
	minimum = 0.0161963 (100 samples)
	maximum = 0.0240695 (100 samples)
Accepted packet rate average = 0.0199456 (100 samples)
	minimum = 0 (100 samples)
	maximum = 0.31913 (100 samples)
Injected flit rate average = 0.0199518 (100 samples)
	minimum = 0.0161963 (100 samples)
	maximum = 0.0240695 (100 samples)
Accepted flit rate average = 0.0199456 (100 samples)
	minimum = 0 (100 samples)
	maximum = 0.31913 (100 samples)
Injected packet size average = 1 (100 samples)
Accepted packet size average = 1 (100 samples)
Hops average = 3.5041 (100 samples)
Total run time 10.6857
