BEGIN Configuration File: /tmp/tmp9nh49uiv.cfg
topology = mesh;
k = 4;
n = 2;
routing_function = dor;
num_vcs = 4;
vc_buf_size = 4;
wait_for_tail_credit = 1;
vc_allocator = islip;
sw_allocator = islip;
alloc_iters = 1;
credit_delay = 2;
routing_delay = 1;
vc_alloc_delay = 1;
sw_alloc_delay = 1;
input_speedup = 2;
output_speedup = 1;
internal_speedup = 1.0;
traffic = transpose;
packet_size = 1;
sim_type = latency;
injection_rate = 0.05;
warmup_periods = 3;
sample_period = 1000;
sim_count = 100;
seed = 4;

END Configuration File: /tmp/tmp9nh49uiv.cfg
Class 0:
Packet latency average = 19.5381
	minimum = 7
	maximum = 41
Network latency average = 19.5381
	minimum = 7
	maximum = 41
Slowest packet = 693
Flit latency average = 19.5381
	minimum = 7
	maximum = 41
Slowest flit = 693
Fragmentation average = 0
	minimum = 0
	maximum = 0
Injected packet rate average = 0.051625
	minimum = 0.037 (at node 11)
	maximum = 0.062 (at node 2)
Accepted packet rate average = 0.050875
	minimum = 0.037 (at node 14)
	maximum = 0.061 (at node 0)
Injected flit rate average = 0.051625
	minimum = 0.037 (at node 11)
	maximum = 0.062 (at node 2)
Accepted flit rate average= 0.050875
	minimum = 0.037 (at node 14)
	maximum = 0.061 (at node 0)
Injected packet length average = 1
Accepted packet length average = 1
Total in-flight flits = 12 (0 measured)
latency change    = 1
throughput change = 1
Class 0:
Packet latency average = 19.7022
	minimum = 7
	maximum = 41
Network latency average = 19.7022
	minimum = 7
	maximum = 41
Slowest packet = 693
Flit latency average = 19.7022
	minimum = 7
	maximum = 41
Slowest flit = 693
Fragmentation average = 0
	minimum = 0
	maximum = 0
Injected packet rate average = 0.0511875
	minimum = 0.042 (at node 11)
	maximum = 0.0595 (at node 9)
Accepted packet rate average = 0.0507812
	minimum = 0.0405 (at node 14)
	maximum = 0.0595 (at node 6)
Injected flit rate average = 0.0511875
	minimum = 0.042 (at node 11)
	maximum = 0.0595 (at node 9)
Accepted flit rate average= 0.0507812
	minimum = 0.0405 (at node 14)
	maximum = 0.0595 (at node 6)
Injected packet length average = 1
Accepted packet length average = 1
Total in-flight flits = 13 (0 measured)
latency change    = 0.00832753
throughput change = 0.00184615
Class 0:
Packet latency average = 19.9277
	minimum = 7
	maximum = 46
Network latency average = 19.9277
	minimum = 7
	maximum = 46
Slowest packet = 1720
Flit latency average = 19.9277
	minimum = 7
	maximum = 46
Slowest flit = 1720
Fragmentation average = 0
	minimum = 0
	maximum = 0
Injected packet rate average = 0.0509375
	minimum = 0.035 (at node 6)
	maximum = 0.064 (at node 2)
Accepted packet rate average = 0.051
	minimum = 0.034 (at node 9)
	maximum = 0.066 (at node 8)
Injected flit rate average = 0.0509375
	minimum = 0.035 (at node 6)
	maximum = 0.064 (at node 2)
Accepted flit rate average= 0.051
	minimum = 0.034 (at node 9)
	maximum = 0.066 (at node 8)
Injected packet length average = 1
Accepted packet length average = 1
Total in-flight flits = 12 (0 measured)
latency change    = 0.011318
throughput change = 0.00428922
Warmed up ...Time used is 3000 cycles
Class 0:
Packet latency average = 19.1312
	minimum = 7
	maximum = 44
Network latency average = 19.1312
	minimum = 7
	maximum = 44
Slowest packet = 2689
Flit latency average = 19.1744
	minimum = 7
	maximum = 44
Slowest flit = 2689
Fragmentation average = 0
	minimum = 0
	maximum = 0
Injected packet rate average = 0.0501875
	minimum = 0.04 (at node 12)
	maximum = 0.059 (at node 10)
Accepted packet rate average = 0.0498125
	minimum = 0.04 (at node 3)
	maximum = 0.059 (at node 10)
Injected flit rate average = 0.0501875
	minimum = 0.04 (at node 12)
	maximum = 0.059 (at node 10)
Accepted flit rate average= 0.0498125
	minimum = 0.04 (at node 3)
	maximum = 0.059 (at node 10)
Injected packet length average = 1
Accepted packet length average = 1
Total in-flight flits = 18 (18 measured)
latency change    = 0.0416328
throughput change = 0.0238394
Class 0:
Packet latency average = 19.5868
	minimum = 7
	maximum = 44
Network latency average = 19.5868
	minimum = 7
	maximum = 44
Slowest packet = 2689
Flit latency average = 19.6047
	minimum = 7
	maximum = 44
Slowest flit = 2689
Fragmentation average = 0
	minimum = 0
	maximum = 0
Injected packet rate average = 0.050625
	minimum = 0.0405 (at node 4)
	maximum = 0.0595 (at node 13)
Accepted packet rate average = 0.0505937
	minimum = 0.041 (at node 1)
	maximum = 0.0585 (at node 7)
Injected flit rate average = 0.050625
	minimum = 0.0405 (at node 4)
	maximum = 0.0595 (at node 13)
Accepted flit rate average= 0.0505937
	minimum = 0.041 (at node 1)
	maximum = 0.0585 (at node 7)
Injected packet length average = 1
Accepted packet length average = 1
Total in-flight flits = 13 (13 measured)
latency change    = 0.0232604
throughput change = 0.0154416
Class 0:
Packet latency average = 19.5046
	minimum = 7
	maximum = 44
Network latency average = 19.5046
	minimum = 7
	maximum = 44
Slowest packet = 2689
Flit latency average = 19.5169
	minimum = 7
	maximum = 44
Slowest flit = 2689
Fragmentation average = 0
	minimum = 0
	maximum = 0
Injected packet rate average = 0.0506667
	minimum = 0.044 (at node 4)
	maximum = 0.0596667 (at node 13)
Accepted packet rate average = 0.0505833
	minimum = 0.044 (at node 1)
	maximum = 0.059 (at node 7)
Injected flit rate average = 0.0506667
	minimum = 0.044 (at node 4)
	maximum = 0.0596667 (at node 13)
Accepted flit rate average= 0.0505833
	minimum = 0.044 (at node 1)
	maximum = 0.059 (at node 7)
Injected packet length average = 1
Accepted packet length average = 1
Total in-flight flits = 16 (16 measured)
latency change    = 0.00421721
throughput change = 0.000205931
Draining all recorded packets ...
Draining remaining packets ...
Time taken is 6061 cycles
Class 0:
Packet latency average = 19.0874
	minimum = 7
	maximum = 41
Network latency average = 19.0874
	minimum = 7
	maximum = 41
Slowest packet = 5014
Flit latency average = 19.0874
	minimum = 7
	maximum = 41
Slowest flit = 5014
Fragmentation average = 0
	minimum = 0
	maximum = 0
Injected packet rate average = 0.0485625
	minimum = 0.037 (at node 6)
	maximum = 0.057 (at node 15)
Accepted packet rate average = 0.0471875
	minimum = 0.036 (at node 9)
	maximum = 0.057 (at node 15)
Injected flit rate average = 0.0485625
	minimum = 0.037 (at node 6)
	maximum = 0.057 (at node 15)
Accepted flit rate average= 0.0471875
	minimum = 0.036 (at node 9)
	maximum = 0.057 (at node 15)
Injected packet length average = 1
Accepted packet length average = 1
Total in-flight flits = 22 (0 measured)
latency change    = 1
throughput change = 1
Class 0:
Packet latency average = 19.5338
	minimum = 7
	maximum = 44
Network latency average = 19.5338
	minimum = 7
	maximum = 44
Slowest packet = 6148
Flit latency average = 19.5338
	minimum = 7
	maximum = 44
Slowest flit = 6148
Fragmentation average = 0
	minimum = 0
	maximum = 0
Injected packet rate average = 0.0498125
	minimum = 0.0385 (at node 6)
	maximum = 0.057 (at node 10)
Accepted packet rate average = 0.0495312
	minimum = 0.0385 (at node 9)
	maximum = 0.057 (at node 10)
Injected flit rate average = 0.0498125
	minimum = 0.0385 (at node 6)
	maximum = 0.057 (at node 10)
Accepted flit rate average= 0.0495312
	minimum = 0.0385 (at node 9)
	maximum = 0.057 (at node 10)
Injected packet length average = 1
Accepted packet length average = 1
Total in-flight flits = 9 (0 measured)
latency change    = 0.0228495
throughput change = 0.0473186
Class 0:
Packet latency average = 20.0581
	minimum = 7
	maximum = 40
Network latency average = 20.0581
	minimum = 7
	maximum = 40
Slowest packet = 7239
Flit latency average = 20.0581
	minimum = 7
	maximum = 40
Slowest flit = 7239
Fragmentation average = 0
	minimum = 0
	maximum = 0
Injected packet rate average = 0.049
	minimum = 0.036 (at node 0)
	maximum = 0.059 (at node 7)
Accepted packet rate average = 0.0484375
	minimum = 0.037 (at node 0)
	maximum = 0.06 (at node 13)
Injected flit rate average = 0.049
	minimum = 0.036 (at node 0)
	maximum = 0.059 (at node 7)
Accepted flit rate average= 0.0484375
	minimum = 0.037 (at node 0)
	maximum = 0.06 (at node 13)
Injected packet length average = 1
Accepted packet length average = 1
Total in-flight flits = 18 (0 measured)
latency change    = 0.0261396
throughput change = 0.0225806
Warmed up ...Time used is 3000 cycles
Class 0:
Packet latency average = 19.5675
	minimum = 7
	maximum = 38
Network latency average = 19.5675
	minimum = 7
	maximum = 38
Slowest packet = 7403
Flit latency average = 19.6201
	minimum = 7
	maximum = 40
Slowest flit = 7269
Fragmentation average = 0
	minimum = 0
	maximum = 0
Injected packet rate average = 0.045625
	minimum = 0.034 (at node 0)
	maximum = 0.058 (at node 12)
Accepted packet rate average = 0.0460625
	minimum = 0.034 (at node 0)
	maximum = 0.059 (at node 3)
Injected flit rate average = 0.045625
	minimum = 0.034 (at node 0)
	maximum = 0.058 (at node 12)
Accepted flit rate average= 0.0460625
	minimum = 0.034 (at node 0)
	maximum = 0.059 (at node 3)
Injected packet length average = 1
Accepted packet length average = 1
Total in-flight flits = 11 (11 measured)
latency change    = 0.0250727
throughput change = 0.0515604
Class 0:
Packet latency average = 19.5376
	minimum = 7
	maximum = 41
Network latency average = 19.5376
	minimum = 7
	maximum = 41
Slowest packet = 8249
Flit latency average = 19.5637
	minimum = 7
	maximum = 41
Slowest flit = 8249
Fragmentation average = 0
	minimum = 0
	maximum = 0
Injected packet rate average = 0.047125
	minimum = 0.04 (at node 14)
	maximum = 0.0595 (at node 15)
Accepted packet rate average = 0.0470625
	minimum = 0.0405 (at node 4)
	maximum = 0.0595 (at node 15)
Injected flit rate average = 0.047125
	minimum = 0.04 (at node 14)
	maximum = 0.0595 (at node 15)
Accepted flit rate average= 0.0470625
	minimum = 0.0405 (at node 4)
	maximum = 0.0595 (at node 15)
Injected packet length average = 1
Accepted packet length average = 1
Total in-flight flits = 20 (20 measured)
latency change    = 0.00152631
throughput change = 0.0212483
Class 0:
Packet latency average = 19.6159
	minimum = 7
	maximum = 42
Network latency average = 19.6159
	minimum = 7
	maximum = 42
Slowest packet = 8987
Flit latency average = 19.632
	minimum = 7
	maximum = 42
Slowest flit = 8987
Fragmentation average = 0
	minimum = 0
	maximum = 0
Injected packet rate average = 0.0489792
	minimum = 0.042 (at node 2)
	maximum = 0.0616667 (at node 15)
Accepted packet rate average = 0.0490833
	minimum = 0.042 (at node 8)
	maximum = 0.062 (at node 15)
Injected flit rate average = 0.0489792
	minimum = 0.042 (at node 2)
	maximum = 0.0616667 (at node 15)
Accepted flit rate average= 0.0490833
	minimum = 0.042 (at node 8)
	maximum = 0.062 (at node 15)
Injected packet length average = 1
Accepted packet length average = 1
Total in-flight flits = 13 (13 measured)
latency change    = 0.00399047
throughput change = 0.0411715
Class 0:
Packet latency average = 19.6244
	minimum = 7
	maximum = 43
Network latency average = 19.6244
	minimum = 7
	maximum = 43
Slowest packet = 10009
Flit latency average = 19.6364
	minimum = 7
	maximum = 43
Slowest flit = 10009
Fragmentation average = 0
	minimum = 0
	maximum = 0
Injected packet rate average = 0.049
	minimum = 0.04275 (at node 0)
	maximum = 0.05925 (at node 15)
Accepted packet rate average = 0.0490312
	minimum = 0.04225 (at node 0)
	maximum = 0.0595 (at node 15)
Injected flit rate average = 0.049
	minimum = 0.04275 (at node 0)
	maximum = 0.05925 (at node 15)
Accepted flit rate average= 0.0490312
	minimum = 0.04225 (at node 0)
	maximum = 0.0595 (at node 15)
Injected packet length average = 1
Accepted packet length average = 1
Total in-flight flits = 16 (16 measured)
latency change    = 0.000430482
throughput change = 0.00106225
Draining all recorded packets ...
Draining remaining packets ...
Time taken is 7064 cycles
Class 0:
Packet latency average = 19.0497
	minimum = 7
	maximum = 48
Network latency average = 19.0472
	minimum = 7
	maximum = 48
Slowest packet = 10611
Flit latency average = 19.0472
	minimum = 7
	maximum = 48
Slowest flit = 10611
Fragmentation average = 0
	minimum = 0
	maximum = 0
Injected packet rate average = 0.0515625
	minimum = 0.04 (at node 1)
	maximum = 0.061 (at node 8)
Accepted packet rate average = 0.0503125
	minimum = 0.038 (at node 3)
	maximum = 0.061 (at node 11)
Injected flit rate average = 0.0515625
	minimum = 0.04 (at node 1)
	maximum = 0.061 (at node 8)
Accepted flit rate average= 0.0503125
	minimum = 0.038 (at node 3)
	maximum = 0.061 (at node 11)
Injected packet length average = 1
Accepted packet length average = 1
Total in-flight flits = 20 (0 measured)
latency change    = 1
throughput change = 1
Class 0:
Packet latency average = 19.7308
	minimum = 7
	maximum = 48
Network latency average = 19.7295
	minimum = 7
	maximum = 48
Slowest packet = 10611
Flit latency average = 19.7295
	minimum = 7
	maximum = 48
Slowest flit = 10611
Fragmentation average = 0
	minimum = 0
	maximum = 0
Injected packet rate average = 0.0493125
	minimum = 0.0425 (at node 12)
	maximum = 0.062 (at node 8)
Accepted packet rate average = 0.04875
	minimum = 0.042 (at node 3)
	maximum = 0.061 (at node 2)
Injected flit rate average = 0.0493125
	minimum = 0.0425 (at node 12)
	maximum = 0.062 (at node 8)
Accepted flit rate average= 0.04875
	minimum = 0.042 (at node 3)
	maximum = 0.061 (at node 2)
Injected packet length average = 1
Accepted packet length average = 1
Total in-flight flits = 18 (0 measured)
latency change    = 0.0345187
throughput change = 0.0320513
Class 0:
Packet latency average = 19.4436
	minimum = 7
	maximum = 38
Network latency average = 19.4436
	minimum = 7
	maximum = 38
Slowest packet = 12075
Flit latency average = 19.4436
	minimum = 7
	maximum = 38
Slowest flit = 12075
Fragmentation average = 0
	minimum = 0
	maximum = 0
Injected packet rate average = 0.0486875
	minimum = 0.037 (at node 0)
	maximum = 0.057 (at node 5)
Accepted packet rate average = 0.0481875
	minimum = 0.036 (at node 0)
	maximum = 0.056 (at node 5)
Injected flit rate average = 0.0486875
	minimum = 0.037 (at node 0)
	maximum = 0.057 (at node 5)
Accepted flit rate average= 0.0481875
	minimum = 0.036 (at node 0)
	maximum = 0.056 (at node 5)
Injected packet length average = 1
Accepted packet length average = 1
Total in-flight flits = 26 (0 measured)
latency change    = 0.0147704
throughput change = 0.0116732
Warmed up ...Time used is 3000 cycles
Class 0:
Packet latency average = 19.3274
	minimum = 7
	maximum = 42
Network latency average = 19.3274
	minimum = 7
	maximum = 42
Slowest packet = 12907
Flit latency average = 19.5166
	minimum = 7
	maximum = 42
Slowest flit = 12907
Fragmentation average = 0
	minimum = 0
	maximum = 0
Injected packet rate average = 0.0499375
	minimum = 0.038 (at node 9)
	maximum = 0.067 (at node 15)
Accepted packet rate average = 0.0506875
	minimum = 0.036 (at node 6)
	maximum = 0.067 (at node 15)
Injected flit rate average = 0.0499375
	minimum = 0.038 (at node 9)
	maximum = 0.067 (at node 15)
Accepted flit rate average= 0.0506875
	minimum = 0.036 (at node 6)
	maximum = 0.067 (at node 15)
Injected packet length average = 1
Accepted packet length average = 1
Total in-flight flits = 14 (14 measured)
latency change    = 0.00601174
throughput change = 0.0493218
Class 0:
Packet latency average = 19.3853
	minimum = 7
	maximum = 43
Network latency average = 19.3853
	minimum = 7
	maximum = 43
Slowest packet = 13979
Flit latency average = 19.4808
	minimum = 7
	maximum = 43
Slowest flit = 13979
Fragmentation average = 0
	minimum = 0
	maximum = 0
Injected packet rate average = 0.0495625
	minimum = 0.0415 (at node 1)
	maximum = 0.0605 (at node 15)
Accepted packet rate average = 0.0497187
	minimum = 0.042 (at node 4)
	maximum = 0.0605 (at node 15)
Injected flit rate average = 0.0495625
	minimum = 0.0415 (at node 1)
	maximum = 0.0605 (at node 15)
Accepted flit rate average= 0.0497187
	minimum = 0.042 (at node 4)
	maximum = 0.0605 (at node 15)
Injected packet length average = 1
Accepted packet length average = 1
Total in-flight flits = 21 (21 measured)
latency change    = 0.00298757
throughput change = 0.0194846
Class 0:
Packet latency average = 19.4182
	minimum = 7
	maximum = 43
Network latency average = 19.4182
	minimum = 7
	maximum = 43
Slowest packet = 13979
Flit latency average = 19.4803
	minimum = 7
	maximum = 43
Slowest flit = 13979
Fragmentation average = 0
	minimum = 0
	maximum = 0
Injected packet rate average = 0.0505417
	minimum = 0.0443333 (at node 2)
	maximum = 0.0576667 (at node 15)
Accepted packet rate average = 0.0507083
	minimum = 0.0443333 (at node 8)
	maximum = 0.058 (at node 15)
Injected flit rate average = 0.0505417
	minimum = 0.0443333 (at node 2)
	maximum = 0.0576667 (at node 15)
Accepted flit rate average= 0.0507083
	minimum = 0.0443333 (at node 8)
	maximum = 0.058 (at node 15)
Injected packet length average = 1
Accepted packet length average = 1
Total in-flight flits = 18 (18 measured)
latency change    = 0.00169356
throughput change = 0.0195152
Draining all recorded packets ...
Draining remaining packets ...
Time taken is 6068 cycles
Class 0:
Packet latency average = 18.986
	minimum = 7
	maximum = 41
Network latency average = 18.986
	minimum = 7
	maximum = 41
Slowest packet = 15325
Flit latency average = 18.986
	minimum = 7
	maximum = 41
Slowest flit = 15325
Fragmentation average = 0
	minimum = 0
	maximum = 0
Injected packet rate average = 0.0494375
	minimum = 0.04 (at node 3)
	maximum = 0.066 (at node 9)
Accepted packet rate average = 0.0489375
	minimum = 0.039 (at node 12)
	maximum = 0.066 (at node 6)
Injected flit rate average = 0.0494375
	minimum = 0.04 (at node 3)
	maximum = 0.066 (at node 9)
Accepted flit rate average= 0.0489375
	minimum = 0.039 (at node 12)
	maximum = 0.066 (at node 6)
Injected packet length average = 1
Accepted packet length average = 1
Total in-flight flits = 8 (0 measured)
latency change    = 1
throughput change = 1
Class 0:
Packet latency average = 19.0999
	minimum = 7
	maximum = 42
Network latency average = 19.0999
	minimum = 7
	maximum = 42
Slowest packet = 16462
Flit latency average = 19.0999
	minimum = 7
	maximum = 42
Slowest flit = 16462
Fragmentation average = 0
	minimum = 0
	maximum = 0
Injected packet rate average = 0.0497812
	minimum = 0.0405 (at node 12)
	maximum = 0.0585 (at node 9)
Accepted packet rate average = 0.0494062
	minimum = 0.04 (at node 3)
	maximum = 0.0585 (at node 6)
Injected flit rate average = 0.0497812
	minimum = 0.0405 (at node 12)
	maximum = 0.0585 (at node 9)
Accepted flit rate average= 0.0494062
	minimum = 0.04 (at node 3)
	maximum = 0.0585 (at node 6)
Injected packet length average = 1
Accepted packet length average = 1
Total in-flight flits = 12 (0 measured)
latency change    = 0.00596784
throughput change = 0.00948767
Class 0:
Packet latency average = 20.0427
	minimum = 7
	maximum = 38
Network latency average = 20.0427
	minimum = 7
	maximum = 38
Slowest packet = 16899
Flit latency average = 20.0427
	minimum = 7
	maximum = 38
Slowest flit = 16899
Fragmentation average = 0
	minimum = 0
	maximum = 0
Injected packet rate average = 0.0511875
	minimum = 0.038 (at node 0)
	maximum = 0.062 (at node 4)
Accepted packet rate average = 0.05125
	minimum = 0.038 (at node 0)
	maximum = 0.062 (at node 1)
Injected flit rate average = 0.0511875
	minimum = 0.038 (at node 0)
	maximum = 0.062 (at node 4)
Accepted flit rate average= 0.05125
	minimum = 0.038 (at node 0)
	maximum = 0.062 (at node 1)
Injected packet length average = 1
Accepted packet length average = 1
Total in-flight flits = 11 (0 measured)
latency change    = 0.0470369
throughput change = 0.0359756
Warmed up ...Time used is 3000 cycles
Class 0:
Packet latency average = 19.4148
	minimum = 7
	maximum = 41
Network latency average = 19.4148
	minimum = 7
	maximum = 41
Slowest packet = 18241
Flit latency average = 19.4727
	minimum = 7
	maximum = 41
Slowest flit = 18241
Fragmentation average = 0
	minimum = 0
	maximum = 0
Injected packet rate average = 0.0479375
	minimum = 0.03 (at node 6)
	maximum = 0.057 (at node 8)
Accepted packet rate average = 0.048
	minimum = 0.032 (at node 9)
	maximum = 0.056 (at node 2)
Injected flit rate average = 0.0479375
	minimum = 0.03 (at node 6)
	maximum = 0.057 (at node 8)
Accepted flit rate average= 0.048
	minimum = 0.032 (at node 9)
	maximum = 0.056 (at node 2)
Injected packet length average = 1
Accepted packet length average = 1
Total in-flight flits = 10 (10 measured)
latency change    = 0.0323407
throughput change = 0.0677083
Class 0:
Packet latency average = 19.2953
	minimum = 7
	maximum = 41
Network latency average = 19.2953
	minimum = 7
	maximum = 41
Slowest packet = 18241
Flit latency average = 19.3244
	minimum = 7
	maximum = 41
Slowest flit = 18241
Fragmentation average = 0
	minimum = 0
	maximum = 0
Injected packet rate average = 0.049375
	minimum = 0.0395 (at node 7)
	maximum = 0.0605 (at node 8)
Accepted packet rate average = 0.049125
	minimum = 0.0385 (at node 13)
	maximum = 0.06 (at node 2)
Injected flit rate average = 0.049375
	minimum = 0.0395 (at node 7)
	maximum = 0.0605 (at node 8)
Accepted flit rate average= 0.049125
	minimum = 0.0385 (at node 13)
	maximum = 0.06 (at node 2)
Injected packet length average = 1
Accepted packet length average = 1
Total in-flight flits = 19 (19 measured)
latency change    = 0.00619175
throughput change = 0.0229008
Class 0:
Packet latency average = 19.5766
	minimum = 7
	maximum = 49
Network latency average = 19.5766
	minimum = 7
	maximum = 49
Slowest packet = 19337
Flit latency average = 19.5945
	minimum = 7
	maximum = 49
Slowest flit = 19337
Fragmentation average = 0
	minimum = 0
	maximum = 0
Injected packet rate average = 0.0498542
	minimum = 0.0416667 (at node 7)
	maximum = 0.061 (at node 8)
Accepted packet rate average = 0.0497292
	minimum = 0.0413333 (at node 13)
	maximum = 0.0603333 (at node 2)
Injected flit rate average = 0.0498542
	minimum = 0.0416667 (at node 7)
	maximum = 0.061 (at node 8)
Accepted flit rate average= 0.0497292
	minimum = 0.0413333 (at node 13)
	maximum = 0.0603333 (at node 2)
Injected packet length average = 1
Accepted packet length average = 1
Total in-flight flits = 17 (17 measured)
latency change    = 0.014368
throughput change = 0.0121491
Class 0:
Packet latency average = 19.483
	minimum = 7
	maximum = 49
Network latency average = 19.483
	minimum = 7
	maximum = 49
Slowest packet = 19337
Flit latency average = 19.4968
	minimum = 7
	maximum = 49
Slowest flit = 19337
Fragmentation average = 0
	minimum = 0
	maximum = 0
Injected packet rate average = 0.0494687
	minimum = 0.04 (at node 7)
	maximum = 0.0605 (at node 8)
Accepted packet rate average = 0.049375
	minimum = 0.0395 (at node 13)
	maximum = 0.06025 (at node 2)
Injected flit rate average = 0.0494687
	minimum = 0.04 (at node 7)
	maximum = 0.0605 (at node 8)
Accepted flit rate average= 0.049375
	minimum = 0.0395 (at node 13)
	maximum = 0.06025 (at node 2)
Injected packet length average = 1
Accepted packet length average = 1
Total in-flight flits = 17 (17 measured)
latency change    = 0.00480361
throughput change = 0.007173
Draining all recorded packets ...
Draining remaining packets ...
Time taken is 7063 cycles
Class 0:
Packet latency average = 19.4509
	minimum = 7
	maximum = 40
Network latency average = 19.4509
	minimum = 7
	maximum = 40
Slowest packet = 21267
Flit latency average = 19.4509
	minimum = 7
	maximum = 40
Slowest flit = 21267
Fragmentation average = 0
	minimum = 0
	maximum = 0
Injected packet rate average = 0.0474375
	minimum = 0.04 (at node 6)
	maximum = 0.055 (at node 4)
Accepted packet rate average = 0.0464375
	minimum = 0.039 (at node 9)
	maximum = 0.054 (at node 15)
Injected flit rate average = 0.0474375
	minimum = 0.04 (at node 6)
	maximum = 0.055 (at node 4)
Accepted flit rate average= 0.0464375
	minimum = 0.039 (at node 9)
	maximum = 0.054 (at node 15)
Injected packet length average = 1
Accepted packet length average = 1
Total in-flight flits = 16 (0 measured)
latency change    = 1
throughput change = 1
Class 0:
Packet latency average = 19.4932
	minimum = 7
	maximum = 46
Network latency average = 19.4932
	minimum = 7
	maximum = 46
Slowest packet = 21791
Flit latency average = 19.4932
	minimum = 7
	maximum = 46
Slowest flit = 21791
Fragmentation average = 0
	minimum = 0
	maximum = 0
Injected packet rate average = 0.04925
	minimum = 0.0425 (at node 0)
	maximum = 0.0555 (at node 5)
Accepted packet rate average = 0.0485937
	minimum = 0.0425 (at node 0)
	maximum = 0.055 (at node 5)
Injected flit rate average = 0.04925
	minimum = 0.0425 (at node 0)
	maximum = 0.0555 (at node 5)
Accepted flit rate average= 0.0485937
	minimum = 0.0425 (at node 0)
	maximum = 0.055 (at node 5)
Injected packet length average = 1
Accepted packet length average = 1
Total in-flight flits = 21 (0 measured)
latency change    = 0.00217371
throughput change = 0.044373
Class 0:
Packet latency average = 19.4082
	minimum = 7
	maximum = 41
Network latency average = 19.4082
	minimum = 7
	maximum = 41
Slowest packet = 22695
Flit latency average = 19.4082
	minimum = 7
	maximum = 41
Slowest flit = 22695
Fragmentation average = 0
	minimum = 0
	maximum = 0
Injected packet rate average = 0.0499375
	minimum = 0.041 (at node 6)
	maximum = 0.062 (at node 15)
Accepted packet rate average = 0.050375
	minimum = 0.041 (at node 7)
	maximum = 0.062 (at node 13)
Injected flit rate average = 0.0499375
	minimum = 0.041 (at node 6)
	maximum = 0.062 (at node 15)
Accepted flit rate average= 0.050375
	minimum = 0.041 (at node 7)
	maximum = 0.062 (at node 13)
Injected packet length average = 1
Accepted packet length average = 1
Total in-flight flits = 14 (0 measured)
latency change    = 0.00438263
throughput change = 0.0353598
Warmed up ...Time used is 3000 cycles
Class 0:
Packet latency average = 19.6008
	minimum = 7
	maximum = 39
Network latency average = 19.6008
	minimum = 7
	maximum = 39
Slowest packet = 23732
Flit latency average = 19.6862
	minimum = 7
	maximum = 39
Slowest flit = 23732
Fragmentation average = 0
	minimum = 0
	maximum = 0
Injected packet rate average = 0.0499375
	minimum = 0.042 (at node 15)
	maximum = 0.059 (at node 0)
Accepted packet rate average = 0.0501875
	minimum = 0.042 (at node 6)
	maximum = 0.063 (at node 7)
Injected flit rate average = 0.0499375
	minimum = 0.042 (at node 15)
	maximum = 0.059 (at node 0)
Accepted flit rate average= 0.0501875
	minimum = 0.042 (at node 6)
	maximum = 0.063 (at node 7)
Injected packet length average = 1
Accepted packet length average = 1
Total in-flight flits = 10 (10 measured)
latency change    = 0.00982471
throughput change = 0.00373599
Class 0:
Packet latency average = 19.4438
	minimum = 7
	maximum = 43
Network latency average = 19.4438
	minimum = 7
	maximum = 43
Slowest packet = 24727
Flit latency average = 19.4871
	minimum = 7
	maximum = 43
Slowest flit = 24727
Fragmentation average = 0
	minimum = 0
	maximum = 0
Injected packet rate average = 0.0510625
	minimum = 0.044 (at node 11)
	maximum = 0.058 (at node 5)
Accepted packet rate average = 0.0510625
	minimum = 0.0435 (at node 14)
	maximum = 0.058 (at node 2)
Injected flit rate average = 0.0510625
	minimum = 0.044 (at node 11)
	maximum = 0.058 (at node 5)
Accepted flit rate average= 0.0510625
	minimum = 0.0435 (at node 14)
	maximum = 0.058 (at node 2)
Injected packet length average = 1
Accepted packet length average = 1
Total in-flight flits = 14 (14 measured)
latency change    = 0.00807111
throughput change = 0.0171359
Class 0:
Packet latency average = 19.5441
	minimum = 7
	maximum = 44
Network latency average = 19.5441
	minimum = 7
	maximum = 44
Slowest packet = 25261
Flit latency average = 19.5726
	minimum = 7
	maximum = 44
Slowest flit = 25261
Fragmentation average = 0
	minimum = 0
	maximum = 0
Injected packet rate average = 0.0508958
	minimum = 0.0413333 (at node 11)
	maximum = 0.058 (at node 5)
Accepted packet rate average = 0.0506458
	minimum = 0.041 (at node 14)
	maximum = 0.058 (at node 5)
Injected flit rate average = 0.0508958
	minimum = 0.0413333 (at node 11)
	maximum = 0.058 (at node 5)
Accepted flit rate average= 0.0506458
	minimum = 0.041 (at node 14)
	maximum = 0.058 (at node 5)
Injected packet length average = 1
Accepted packet length average = 1
Total in-flight flits = 26 (26 measured)
latency change    = 0.0051287
throughput change = 0.00822707
Draining all recorded packets ...
Draining remaining packets ...
Time taken is 6074 cycles
Class 0:
Packet latency average = 19.5815
	minimum = 7
	maximum = 39
Network latency average = 19.5815
	minimum = 7
	maximum = 39
Slowest packet = 26241
Flit latency average = 19.5815
	minimum = 7
	maximum = 39
Slowest flit = 26241
Fragmentation average = 0
	minimum = 0
	maximum = 0
Injected packet rate average = 0.052
	minimum = 0.041 (at node 1)
	maximum = 0.064 (at node 4)
Accepted packet rate average = 0.051375
	minimum = 0.041 (at node 4)
	maximum = 0.064 (at node 1)
Injected flit rate average = 0.052
	minimum = 0.041 (at node 1)
	maximum = 0.064 (at node 4)
Accepted flit rate average= 0.051375
	minimum = 0.041 (at node 4)
	maximum = 0.064 (at node 1)
Injected packet length average = 1
Accepted packet length average = 1
Total in-flight flits = 10 (0 measured)
latency change    = 1
throughput change = 1
Class 0:
Packet latency average = 19.4646
	minimum = 7
	maximum = 42
Network latency average = 19.4646
	minimum = 7
	maximum = 42
Slowest packet = 26587
Flit latency average = 19.4646
	minimum = 7
	maximum = 42
Slowest flit = 26587
Fragmentation average = 0
	minimum = 0
	maximum = 0
Injected packet rate average = 0.0511875
	minimum = 0.044 (at node 8)
	maximum = 0.0585 (at node 11)
Accepted packet rate average = 0.0507812
	minimum = 0.0435 (at node 2)
	maximum = 0.0575 (at node 14)
Injected flit rate average = 0.0511875
	minimum = 0.044 (at node 8)
	maximum = 0.0585 (at node 11)
Accepted flit rate average= 0.0507812
	minimum = 0.0435 (at node 2)
	maximum = 0.0575 (at node 14)
Injected packet length average = 1
Accepted packet length average = 1
Total in-flight flits = 13 (0 measured)
latency change    = 0.00600542
throughput change = 0.0116923
Class 0:
Packet latency average = 18.9374
	minimum = 7
	maximum = 41
Network latency average = 18.9374
	minimum = 7
	maximum = 41
Slowest packet = 27380
Flit latency average = 18.9374
	minimum = 7
	maximum = 41
Slowest flit = 27380
Fragmentation average = 0
	minimum = 0
	maximum = 0
Injected packet rate average = 0.0528125
	minimum = 0.034 (at node 3)
	maximum = 0.069 (at node 13)
Accepted packet rate average = 0.0529375
	minimum = 0.035 (at node 12)
	maximum = 0.068 (at node 7)
Injected flit rate average = 0.0528125
	minimum = 0.034 (at node 3)
	maximum = 0.069 (at node 13)
Accepted flit rate average= 0.0529375
	minimum = 0.035 (at node 12)
	maximum = 0.068 (at node 7)
Injected packet length average = 1
Accepted packet length average = 1
Total in-flight flits = 11 (0 measured)
latency change    = 0.0278385
throughput change = 0.040732
Warmed up ...Time used is 3000 cycles
Class 0:
Packet latency average = 19.7673
	minimum = 7
	maximum = 40
Network latency average = 19.7673
	minimum = 7
	maximum = 40
Slowest packet = 28516
Flit latency average = 19.8441
	minimum = 7
	maximum = 40
Slowest flit = 28516
Fragmentation average = 0
	minimum = 0
	maximum = 0
Injected packet rate average = 0.0486875
	minimum = 0.035 (at node 14)
	maximum = 0.064 (at node 8)
Accepted packet rate average = 0.0485
	minimum = 0.035 (at node 11)
	maximum = 0.063 (at node 2)
Injected flit rate average = 0.0486875
	minimum = 0.035 (at node 14)
	maximum = 0.064 (at node 8)
Accepted flit rate average= 0.0485
	minimum = 0.035 (at node 11)
	maximum = 0.063 (at node 2)
Injected packet length average = 1
Accepted packet length average = 1
Total in-flight flits = 14 (14 measured)
latency change    = 0.0419831
throughput change = 0.0914948
Class 0:
Packet latency average = 19.7769
	minimum = 7
	maximum = 40
Network latency average = 19.7769
	minimum = 7
	maximum = 40
Slowest packet = 28516
Flit latency average = 19.8143
	minimum = 7
	maximum = 40
Slowest flit = 28516
Fragmentation average = 0
	minimum = 0
	maximum = 0
Injected packet rate average = 0.0499687
	minimum = 0.0425 (at node 2)
	maximum = 0.063 (at node 8)
Accepted packet rate average = 0.0496562
	minimum = 0.042 (at node 4)
	maximum = 0.063 (at node 2)
Injected flit rate average = 0.0499687
	minimum = 0.0425 (at node 2)
	maximum = 0.063 (at node 8)
Accepted flit rate average= 0.0496562
	minimum = 0.042 (at node 4)
	maximum = 0.063 (at node 2)
Injected packet length average = 1
Accepted packet length average = 1
Total in-flight flits = 21 (21 measured)
latency change    = 0.000486049
throughput change = 0.0232851
Class 0:
Packet latency average = 19.8366
	minimum = 7
	maximum = 40
Network latency average = 19.8366
	minimum = 7
	maximum = 40
Slowest packet = 28516
Flit latency average = 19.8615
	minimum = 7
	maximum = 40
Slowest flit = 28516
Fragmentation average = 0
	minimum = 0
	maximum = 0
Injected packet rate average = 0.0492083
	minimum = 0.0433333 (at node 1)
	maximum = 0.0583333 (at node 8)
Accepted packet rate average = 0.0491875
	minimum = 0.0433333 (at node 4)
	maximum = 0.0586667 (at node 2)
Injected flit rate average = 0.0492083
	minimum = 0.0433333 (at node 1)
	maximum = 0.0583333 (at node 8)
Accepted flit rate average= 0.0491875
	minimum = 0.0433333 (at node 4)
	maximum = 0.0586667 (at node 2)
Injected packet length average = 1
Accepted packet length average = 1
Total in-flight flits = 12 (12 measured)
latency change    = 0.00300772
throughput change = 0.00952986
Class 0:
Packet latency average = 19.8442
	minimum = 7
	maximum = 41
Network latency average = 19.8442
	minimum = 7
	maximum = 41
Slowest packet = 30715
Flit latency average = 19.8631
	minimum = 7
	maximum = 41
Slowest flit = 30715
Fragmentation average = 0
	minimum = 0
	maximum = 0
Injected packet rate average = 0.0487187
	minimum = 0.04275 (at node 2)
	maximum = 0.0545 (at node 13)
Accepted packet rate average = 0.0486094
	minimum = 0.043 (at node 8)
	maximum = 0.05475 (at node 7)
Injected flit rate average = 0.0487187
	minimum = 0.04275 (at node 2)
	maximum = 0.0545 (at node 13)
Accepted flit rate average= 0.0486094
	minimum = 0.043 (at node 8)
	maximum = 0.05475 (at node 7)
Injected packet length average = 1
Accepted packet length average = 1
Total in-flight flits = 18 (18 measured)
latency change    = 0.000382873
throughput change = 0.0118933
Draining all recorded packets ...
Draining remaining packets ...
Time taken is 7067 cycles
Class 0:
Packet latency average = 20.0859
	minimum = 7
	maximum = 43
Network latency average = 20.0859
	minimum = 7
	maximum = 43
Slowest packet = 31846
Flit latency average = 20.0859
	minimum = 7
	maximum = 43
Slowest flit = 31846
Fragmentation average = 0
	minimum = 0
	maximum = 0
Injected packet rate average = 0.0495625
	minimum = 0.029 (at node 5)
	maximum = 0.06 (at node 7)
Accepted packet rate average = 0.04875
	minimum = 0.029 (at node 5)
	maximum = 0.058 (at node 13)
Injected flit rate average = 0.0495625
	minimum = 0.029 (at node 5)
	maximum = 0.06 (at node 7)
Accepted flit rate average= 0.04875
	minimum = 0.029 (at node 5)
	maximum = 0.058 (at node 13)
Injected packet length average = 1
Accepted packet length average = 1
Total in-flight flits = 13 (0 measured)
latency change    = 1
throughput change = 1
Class 0:
Packet latency average = 20.1105
	minimum = 7
	maximum = 43
Network latency average = 20.1105
	minimum = 7
	maximum = 43
Slowest packet = 31846
Flit latency average = 20.1105
	minimum = 7
	maximum = 43
Slowest flit = 31846
Fragmentation average = 0
	minimum = 0
	maximum = 0
Injected packet rate average = 0.0494687
	minimum = 0.039 (at node 5)
	maximum = 0.059 (at node 12)
Accepted packet rate average = 0.0489375
	minimum = 0.039 (at node 5)
	maximum = 0.0565 (at node 3)
Injected flit rate average = 0.0494687
	minimum = 0.039 (at node 5)
	maximum = 0.059 (at node 12)
Accepted flit rate average= 0.0489375
	minimum = 0.039 (at node 5)
	maximum = 0.0565 (at node 3)
Injected packet length average = 1
Accepted packet length average = 1
Total in-flight flits = 17 (0 measured)
latency change    = 0.00122201
throughput change = 0.00383142
Class 0:
Packet latency average = 19.3318
	minimum = 7
	maximum = 39
Network latency average = 19.3318
	minimum = 7
	maximum = 39
Slowest packet = 33379
Flit latency average = 19.3318
	minimum = 7
	maximum = 39
Slowest flit = 33379
Fragmentation average = 0
	minimum = 0
	maximum = 0
Injected packet rate average = 0.0524375
	minimum = 0.039 (at node 12)
	maximum = 0.066 (at node 15)
Accepted packet rate average = 0.05275
	minimum = 0.042 (at node 4)
	maximum = 0.066 (at node 15)
Injected flit rate average = 0.0524375
	minimum = 0.039 (at node 12)
	maximum = 0.066 (at node 15)
Accepted flit rate average= 0.05275
	minimum = 0.042 (at node 4)
	maximum = 0.066 (at node 15)
Injected packet length average = 1
Accepted packet length average = 1
Total in-flight flits = 12 (0 measured)
latency change    = 0.0402819
throughput change = 0.0722749
Warmed up ...Time used is 3000 cycles
Class 0:
Packet latency average = 18.7556
	minimum = 7
	maximum = 38
Network latency average = 18.7556
	minimum = 7
	maximum = 38
Slowest packet = 33981
Flit latency average = 18.8065
	minimum = 7
	maximum = 38
Slowest flit = 33981
Fragmentation average = 0
	minimum = 0
	maximum = 0
Injected packet rate average = 0.0483125
	minimum = 0.037 (at node 13)
	maximum = 0.058 (at node 7)
Accepted packet rate average = 0.0478125
	minimum = 0.036 (at node 7)
	maximum = 0.058 (at node 1)
Injected flit rate average = 0.0483125
	minimum = 0.037 (at node 13)
	maximum = 0.058 (at node 7)
Accepted flit rate average= 0.0478125
	minimum = 0.036 (at node 7)
	maximum = 0.058 (at node 1)
Injected packet length average = 1
Accepted packet length average = 1
Total in-flight flits = 20 (20 measured)
latency change    = 0.0307166
throughput change = 0.103268
Class 0:
Packet latency average = 19.3647
	minimum = 7
	maximum = 43
Network latency average = 19.3647
	minimum = 7
	maximum = 43
Slowest packet = 34936
Flit latency average = 19.3848
	minimum = 7
	maximum = 43
Slowest flit = 34936
Fragmentation average = 0
	minimum = 0
	maximum = 0
Injected packet rate average = 0.0492812
	minimum = 0.0405 (at node 13)
	maximum = 0.0585 (at node 6)
Accepted packet rate average = 0.0492187
	minimum = 0.0405 (at node 7)
	maximum = 0.0585 (at node 9)
Injected flit rate average = 0.0492812
	minimum = 0.0405 (at node 13)
	maximum = 0.0585 (at node 6)
Accepted flit rate average= 0.0492187
	minimum = 0.0405 (at node 7)
	maximum = 0.0585 (at node 9)
Injected packet length average = 1
Accepted packet length average = 1
Total in-flight flits = 14 (14 measured)
latency change    = 0.031451
throughput change = 0.0285714
Class 0:
Packet latency average = 19.1836
	minimum = 7
	maximum = 43
Network latency average = 19.1836
	minimum = 7
	maximum = 43
Slowest packet = 34936
Flit latency average = 19.198
	minimum = 7
	maximum = 43
Slowest flit = 34936
Fragmentation average = 0
	minimum = 0
	maximum = 0
Injected packet rate average = 0.0490417
	minimum = 0.042 (at node 3)
	maximum = 0.0556667 (at node 15)
Accepted packet rate average = 0.0489167
	minimum = 0.0416667 (at node 7)
	maximum = 0.0556667 (at node 15)
Injected flit rate average = 0.0490417
	minimum = 0.042 (at node 3)
	maximum = 0.0556667 (at node 15)
Accepted flit rate average= 0.0489167
	minimum = 0.0416667 (at node 7)
	maximum = 0.0556667 (at node 15)
Injected packet length average = 1
Accepted packet length average = 1
Total in-flight flits = 18 (18 measured)
latency change    = 0.009437
throughput change = 0.00617547
Class 0:
Packet latency average = 19.2827
	minimum = 7
	maximum = 47
Network latency average = 19.2827
	minimum = 7
	maximum = 47
Slowest packet = 36638
Flit latency average = 19.293
	minimum = 7
	maximum = 47
Slowest flit = 36638
Fragmentation average = 0
	minimum = 0
	maximum = 0
Injected packet rate average = 0.0497969
	minimum = 0.043 (at node 13)
	maximum = 0.056 (at node 7)
Accepted packet rate average = 0.0497031
	minimum = 0.0425 (at node 7)
	maximum = 0.05575 (at node 13)
Injected flit rate average = 0.0497969
	minimum = 0.043 (at node 13)
	maximum = 0.056 (at node 7)
Accepted flit rate average= 0.0497031
	minimum = 0.0425 (at node 7)
	maximum = 0.05575 (at node 13)
Injected packet length average = 1
Accepted packet length average = 1
Total in-flight flits = 18 (18 measured)
latency change    = 0.00513888
throughput change = 0.0158231
Draining all recorded packets ...
Draining remaining packets ...
Time taken is 7066 cycles
Class 0:
Packet latency average = 19.256
	minimum = 7
	maximum = 41
Network latency average = 19.256
	minimum = 7
	maximum = 41
Slowest packet = 37205
Flit latency average = 19.256
	minimum = 7
	maximum = 41
Slowest flit = 37205
Fragmentation average = 0
	minimum = 0
	maximum = 0
Injected packet rate average = 0.04975
	minimum = 0.036 (at node 2)
	maximum = 0.063 (at node 10)
Accepted packet rate average = 0.0493125
	minimum = 0.035 (at node 8)
	maximum = 0.063 (at node 10)
Injected flit rate average = 0.04975
	minimum = 0.036 (at node 2)
	maximum = 0.063 (at node 10)
Accepted flit rate average= 0.0493125
	minimum = 0.035 (at node 8)
	maximum = 0.063 (at node 10)
Injected packet length average = 1
Accepted packet length average = 1
Total in-flight flits = 7 (0 measured)
latency change    = 1
throughput change = 1
Class 0:
Packet latency average = 19.0868
	minimum = 7
	maximum = 41
Network latency average = 19.0868
	minimum = 7
	maximum = 41
Slowest packet = 37205
Flit latency average = 19.0868
	minimum = 7
	maximum = 41
Slowest flit = 37205
Fragmentation average = 0
	minimum = 0
	maximum = 0
Injected packet rate average = 0.0500312
	minimum = 0.04 (at node 5)
	maximum = 0.063 (at node 15)
Accepted packet rate average = 0.0496562
	minimum = 0.0395 (at node 5)
	maximum = 0.063 (at node 15)
Injected flit rate average = 0.0500312
	minimum = 0.04 (at node 5)
	maximum = 0.063 (at node 15)
Accepted flit rate average= 0.0496562
	minimum = 0.0395 (at node 5)
	maximum = 0.063 (at node 15)
Injected packet length average = 1
Accepted packet length average = 1
Total in-flight flits = 12 (0 measured)
latency change    = 0.00886334
throughput change = 0.00692259
Class 0:
Packet latency average = 19.7241
	minimum = 7
	maximum = 41
Network latency average = 19.7241
	minimum = 7
	maximum = 41
Slowest packet = 38929
Flit latency average = 19.7241
	minimum = 7
	maximum = 41
Slowest flit = 38929
Fragmentation average = 0
	minimum = 0
	maximum = 0
Injected packet rate average = 0.049375
	minimum = 0.04 (at node 4)
	maximum = 0.064 (at node 2)
Accepted packet rate average = 0.0489375
	minimum = 0.039 (at node 2)
	maximum = 0.064 (at node 15)
Injected flit rate average = 0.049375
	minimum = 0.04 (at node 4)
	maximum = 0.064 (at node 2)
Accepted flit rate average= 0.0489375
	minimum = 0.039 (at node 2)
	maximum = 0.064 (at node 15)
Injected packet length average = 1
Accepted packet length average = 1
Total in-flight flits = 19 (0 measured)
latency change    = 0.0323102
throughput change = 0.0146871
Warmed up ...Time used is 3000 cycles
Class 0:
Packet latency average = 19.4684
	minimum = 7
	maximum = 43
Network latency average = 19.4684
	minimum = 7
	maximum = 43
Slowest packet = 39413
Flit latency average = 19.6804
	minimum = 7
	maximum = 43
Slowest flit = 39413
Fragmentation average = 0
	minimum = 0
	maximum = 0
Injected packet rate average = 0.0488125
	minimum = 0.034 (at node 14)
	maximum = 0.057 (at node 10)
Accepted packet rate average = 0.0486875
	minimum = 0.033 (at node 11)
	maximum = 0.06 (at node 7)
Injected flit rate average = 0.0488125
	minimum = 0.034 (at node 14)
	maximum = 0.057 (at node 10)
Accepted flit rate average= 0.0486875
	minimum = 0.033 (at node 11)
	maximum = 0.06 (at node 7)
Injected packet length average = 1
Accepted packet length average = 1
Total in-flight flits = 21 (21 measured)
latency change    = 0.013135
throughput change = 0.00513479
Class 0:
Packet latency average = 19.5502
	minimum = 7
	maximum = 44
Network latency average = 19.5502
	minimum = 7
	maximum = 44
Slowest packet = 40302
Flit latency average = 19.6503
	minimum = 7
	maximum = 44
Slowest flit = 40302
Fragmentation average = 0
	minimum = 0
	maximum = 0
Injected packet rate average = 0.0509063
	minimum = 0.042 (at node 14)
	maximum = 0.0595 (at node 8)
Accepted packet rate average = 0.0510313
	minimum = 0.041 (at node 11)
	maximum = 0.0605 (at node 7)
Injected flit rate average = 0.0509063
	minimum = 0.042 (at node 14)
	maximum = 0.0595 (at node 8)
Accepted flit rate average= 0.0510313
	minimum = 0.041 (at node 11)
	maximum = 0.0605 (at node 7)
Injected packet length average = 1
Accepted packet length average = 1
Total in-flight flits = 15 (15 measured)
latency change    = 0.0041823
throughput change = 0.0459277
Class 0:
Packet latency average = 19.4515
	minimum = 7
	maximum = 44
Network latency average = 19.4515
	minimum = 7
	maximum = 44
Slowest packet = 40302
Flit latency average = 19.5195
	minimum = 7
	maximum = 44
Slowest flit = 40302
Fragmentation average = 0
	minimum = 0
	maximum = 0
Injected packet rate average = 0.0506042
	minimum = 0.0436667 (at node 14)
	maximum = 0.0583333 (at node 13)
Accepted packet rate average = 0.0506875
	minimum = 0.0436667 (at node 11)
	maximum = 0.059 (at node 7)
Injected flit rate average = 0.0506042
	minimum = 0.0436667 (at node 14)
	maximum = 0.0583333 (at node 13)
Accepted flit rate average= 0.0506875
	minimum = 0.0436667 (at node 11)
	maximum = 0.059 (at node 7)
Injected packet length average = 1
Accepted packet length average = 1
Total in-flight flits = 15 (15 measured)
latency change    = 0.00507174
throughput change = 0.00678175
Draining all recorded packets ...
Draining remaining packets ...
Time taken is 6059 cycles
Class 0:
Packet latency average = 19.8008
	minimum = 7
	maximum = 43
Network latency average = 19.8008
	minimum = 7
	maximum = 43
Slowest packet = 42108
Flit latency average = 19.8008
	minimum = 7
	maximum = 43
Slowest flit = 42108
Fragmentation average = 0
	minimum = 0
	maximum = 0
Injected packet rate average = 0.04825
	minimum = 0.038 (at node 8)
	maximum = 0.06 (at node 10)
Accepted packet rate average = 0.0476875
	minimum = 0.034 (at node 2)
	maximum = 0.06 (at node 10)
Injected flit rate average = 0.04825
	minimum = 0.038 (at node 8)
	maximum = 0.06 (at node 10)
Accepted flit rate average= 0.0476875
	minimum = 0.034 (at node 2)
	maximum = 0.06 (at node 10)
Injected packet length average = 1
Accepted packet length average = 1
Total in-flight flits = 9 (0 measured)
latency change    = 1
throughput change = 1
Class 0:
Packet latency average = 19.6817
	minimum = 7
	maximum = 44
Network latency average = 19.6817
	minimum = 7
	maximum = 44
Slowest packet = 43137
Flit latency average = 19.6817
	minimum = 7
	maximum = 44
Slowest flit = 43137
Fragmentation average = 0
	minimum = 0
	maximum = 0
Injected packet rate average = 0.0483437
	minimum = 0.041 (at node 0)
	maximum = 0.057 (at node 9)
Accepted packet rate average = 0.0479062
	minimum = 0.0405 (at node 0)
	maximum = 0.057 (at node 6)
Injected flit rate average = 0.0483437
	minimum = 0.041 (at node 0)
	maximum = 0.057 (at node 9)
Accepted flit rate average= 0.0479062
	minimum = 0.0405 (at node 0)
	maximum = 0.057 (at node 6)
Injected packet length average = 1
Accepted packet length average = 1
Total in-flight flits = 14 (0 measured)
latency change    = 0.00605215
throughput change = 0.00456621
Class 0:
Packet latency average = 20.0091
	minimum = 7
	maximum = 50
Network latency average = 20.0091
	minimum = 7
	maximum = 50
Slowest packet = 43677
Flit latency average = 20.0091
	minimum = 7
	maximum = 50
Slowest flit = 43677
Fragmentation average = 0
	minimum = 0
	maximum = 0
Injected packet rate average = 0.0483125
	minimum = 0.039 (at node 1)
	maximum = 0.061 (at node 12)
Accepted packet rate average = 0.048
	minimum = 0.039 (at node 4)
	maximum = 0.061 (at node 3)
Injected flit rate average = 0.0483125
	minimum = 0.039 (at node 1)
	maximum = 0.061 (at node 12)
Accepted flit rate average= 0.048
	minimum = 0.039 (at node 4)
	maximum = 0.061 (at node 3)
Injected packet length average = 1
Accepted packet length average = 1
Total in-flight flits = 19 (0 measured)
latency change    = 0.0163648
throughput change = 0.00195313
Warmed up ...Time used is 3000 cycles
Class 0:
Packet latency average = 19.8466
	minimum = 7
	maximum = 39
Network latency average = 19.8466
	minimum = 7
	maximum = 39
Slowest packet = 44351
Flit latency average = 20.0219
	minimum = 7
	maximum = 39
Slowest flit = 44351
Fragmentation average = 0
	minimum = 0
	maximum = 0
Injected packet rate average = 0.048
	minimum = 0.031 (at node 0)
	maximum = 0.06 (at node 5)
Accepted packet rate average = 0.0484375
	minimum = 0.032 (at node 0)
	maximum = 0.059 (at node 5)
Injected flit rate average = 0.048
	minimum = 0.031 (at node 0)
	maximum = 0.06 (at node 5)
Accepted flit rate average= 0.0484375
	minimum = 0.032 (at node 0)
	maximum = 0.059 (at node 5)
Injected packet length average = 1
Accepted packet length average = 1
Total in-flight flits = 12 (12 measured)
latency change    = 0.00819052
throughput change = 0.00903226
Class 0:
Packet latency average = 19.7446
	minimum = 7
	maximum = 46
Network latency average = 19.7446
	minimum = 7
	maximum = 46
Slowest packet = 45117
Flit latency average = 19.8338
	minimum = 7
	maximum = 46
Slowest flit = 45117
Fragmentation average = 0
	minimum = 0
	maximum = 0
Injected packet rate average = 0.0481875
	minimum = 0.04 (at node 1)
	maximum = 0.055 (at node 4)
Accepted packet rate average = 0.0483125
	minimum = 0.04 (at node 4)
	maximum = 0.055 (at node 1)
Injected flit rate average = 0.0481875
	minimum = 0.04 (at node 1)
	maximum = 0.055 (at node 4)
Accepted flit rate average= 0.0483125
	minimum = 0.04 (at node 4)
	maximum = 0.055 (at node 1)
Injected packet length average = 1
Accepted packet length average = 1
Total in-flight flits = 15 (15 measured)
latency change    = 0.00516413
throughput change = 0.00258732
Class 0:
Packet latency average = 19.4682
	minimum = 7
	maximum = 46
Network latency average = 19.4682
	minimum = 7
	maximum = 46
Slowest packet = 45117
Flit latency average = 19.5296
	minimum = 7
	maximum = 46
Slowest flit = 45117
Fragmentation average = 0
	minimum = 0
	maximum = 0
Injected packet rate average = 0.0485625
	minimum = 0.043 (at node 12)
	maximum = 0.0556667 (at node 4)
Accepted packet rate average = 0.0485833
	minimum = 0.0426667 (at node 3)
	maximum = 0.055 (at node 6)
Injected flit rate average = 0.0485625
	minimum = 0.043 (at node 12)
	maximum = 0.0556667 (at node 4)
Accepted flit rate average= 0.0485833
	minimum = 0.0426667 (at node 3)
	maximum = 0.055 (at node 6)
Injected packet length average = 1
Accepted packet length average = 1
Total in-flight flits = 18 (18 measured)
latency change    = 0.0141962
throughput change = 0.00557461
Draining all recorded packets ...
Draining remaining packets ...
Time taken is 6053 cycles
Class 0:
Packet latency average = 19.2943
	minimum = 7
	maximum = 42
Network latency average = 19.2943
	minimum = 7
	maximum = 42
Slowest packet = 46979
Flit latency average = 19.2943
	minimum = 7
	maximum = 42
Slowest flit = 46979
Fragmentation average = 0
	minimum = 0
	maximum = 0
Injected packet rate average = 0.0475
	minimum = 0.035 (at node 13)
	maximum = 0.058 (at node 5)
Accepted packet rate average = 0.0469375
	minimum = 0.035 (at node 7)
	maximum = 0.058 (at node 5)
Injected flit rate average = 0.0475
	minimum = 0.035 (at node 13)
	maximum = 0.058 (at node 5)
Accepted flit rate average= 0.0469375
	minimum = 0.035 (at node 7)
	maximum = 0.058 (at node 5)
Injected packet length average = 1
Accepted packet length average = 1
Total in-flight flits = 9 (0 measured)
latency change    = 1
throughput change = 1
Class 0:
Packet latency average = 19.501
	minimum = 7
	maximum = 42
Network latency average = 19.501
	minimum = 7
	maximum = 42
Slowest packet = 46979
Flit latency average = 19.501
	minimum = 7
	maximum = 42
Slowest flit = 46979
Fragmentation average = 0
	minimum = 0
	maximum = 0
Injected packet rate average = 0.0487812
	minimum = 0.0425 (at node 7)
	maximum = 0.056 (at node 5)
Accepted packet rate average = 0.0484687
	minimum = 0.042 (at node 13)
	maximum = 0.056 (at node 5)
Injected flit rate average = 0.0487812
	minimum = 0.0425 (at node 7)
	maximum = 0.056 (at node 5)
Accepted flit rate average= 0.0484687
	minimum = 0.042 (at node 13)
	maximum = 0.056 (at node 5)
Injected packet length average = 1
Accepted packet length average = 1
Total in-flight flits = 10 (0 measured)
latency change    = 0.0105991
throughput change = 0.0315925
Class 0:
Packet latency average = 20.3707
	minimum = 7
	maximum = 42
Network latency average = 20.3707
	minimum = 7
	maximum = 42
Slowest packet = 48317
Flit latency average = 20.3707
	minimum = 7
	maximum = 42
Slowest flit = 48317
Fragmentation average = 0
	minimum = 0
	maximum = 0
Injected packet rate average = 0.0474375
	minimum = 0.033 (at node 15)
	maximum = 0.063 (at node 12)
Accepted packet rate average = 0.047375
	minimum = 0.033 (at node 15)
	maximum = 0.064 (at node 3)
Injected flit rate average = 0.0474375
	minimum = 0.033 (at node 15)
	maximum = 0.063 (at node 12)
Accepted flit rate average= 0.047375
	minimum = 0.033 (at node 15)
	maximum = 0.064 (at node 3)
Injected packet length average = 1
Accepted packet length average = 1
Total in-flight flits = 11 (0 measured)
latency change    = 0.0426959
throughput change = 0.0230871
Warmed up ...Time used is 3000 cycles
Class 0:
Packet latency average = 19.3102
	minimum = 7
	maximum = 42
Network latency average = 19.3102
	minimum = 7
	maximum = 42
Slowest packet = 48893
Flit latency average = 19.3758
	minimum = 7
	maximum = 42
Slowest flit = 48893
Fragmentation average = 0
	minimum = 0
	maximum = 0
Injected packet rate average = 0.052375
	minimum = 0.042 (at node 3)
	maximum = 0.063 (at node 4)
Accepted packet rate average = 0.0520625
	minimum = 0.041 (at node 12)
	maximum = 0.064 (at node 9)
Injected flit rate average = 0.052375
	minimum = 0.042 (at node 3)
	maximum = 0.063 (at node 4)
Accepted flit rate average= 0.0520625
	minimum = 0.041 (at node 12)
	maximum = 0.064 (at node 9)
Injected packet length average = 1
Accepted packet length average = 1
Total in-flight flits = 16 (16 measured)
latency change    = 0.0549188
throughput change = 0.090036
Class 0:
Packet latency average = 19.223
	minimum = 7
	maximum = 45
Network latency average = 19.223
	minimum = 7
	maximum = 45
Slowest packet = 50171
Flit latency average = 19.2565
	minimum = 7
	maximum = 45
Slowest flit = 50171
Fragmentation average = 0
	minimum = 0
	maximum = 0
Injected packet rate average = 0.052
	minimum = 0.0445 (at node 13)
	maximum = 0.061 (at node 4)
Accepted packet rate average = 0.0519063
	minimum = 0.044 (at node 7)
	maximum = 0.061 (at node 1)
Injected flit rate average = 0.052
	minimum = 0.0445 (at node 13)
	maximum = 0.061 (at node 4)
Accepted flit rate average= 0.0519063
	minimum = 0.044 (at node 7)
	maximum = 0.061 (at node 1)
Injected packet length average = 1
Accepted packet length average = 1
Total in-flight flits = 14 (14 measured)
latency change    = 0.00453564
throughput change = 0.00301023
Class 0:
Packet latency average = 19.499
	minimum = 7
	maximum = 45
Network latency average = 19.499
	minimum = 7
	maximum = 45
Slowest packet = 50171
Flit latency average = 19.5204
	minimum = 7
	maximum = 45
Slowest flit = 50171
Fragmentation average = 0
	minimum = 0
	maximum = 0
Injected packet rate average = 0.0511458
	minimum = 0.0456667 (at node 5)
	maximum = 0.057 (at node 4)
Accepted packet rate average = 0.0510417
	minimum = 0.0456667 (at node 5)
	maximum = 0.057 (at node 1)
Injected flit rate average = 0.0511458
	minimum = 0.0456667 (at node 5)
	maximum = 0.057 (at node 4)
Accepted flit rate average= 0.0510417
	minimum = 0.0456667 (at node 5)
	maximum = 0.057 (at node 1)
Injected packet length average = 1
Accepted packet length average = 1
Total in-flight flits = 16 (16 measured)
latency change    = 0.0141518
throughput change = 0.0169388
Class 0:
Packet latency average = 19.4181
	minimum = 7
	maximum = 46
Network latency average = 19.4181
	minimum = 7
	maximum = 46
Slowest packet = 51290
Flit latency average = 19.4345
	minimum = 7
	maximum = 46
Slowest flit = 51290
Fragmentation average = 0
	minimum = 0
	maximum = 0
Injected packet rate average = 0.0507969
	minimum = 0.0445 (at node 13)
	maximum = 0.055 (at node 4)
Accepted packet rate average = 0.0507031
	minimum = 0.044 (at node 7)
	maximum = 0.055 (at node 1)
Injected flit rate average = 0.0507969
	minimum = 0.0445 (at node 13)
	maximum = 0.055 (at node 4)
Accepted flit rate average= 0.0507031
	minimum = 0.044 (at node 7)
	maximum = 0.055 (at node 1)
Injected packet length average = 1
Accepted packet length average = 1
Total in-flight flits = 17 (17 measured)
latency change    = 0.00416709
throughput change = 0.00667694
Draining all recorded packets ...
Draining remaining packets ...
Time taken is 7074 cycles
Class 0:
Packet latency average = 19.4098
	minimum = 7
	maximum = 43
Network latency average = 19.4098
	minimum = 7
	maximum = 43
Slowest packet = 52421
Flit latency average = 19.4098
	minimum = 7
	maximum = 43
Slowest flit = 52421
Fragmentation average = 0
	minimum = 0
	maximum = 0
Injected packet rate average = 0.0485
	minimum = 0.036 (at node 3)
	maximum = 0.06 (at node 1)
Accepted packet rate average = 0.047125
	minimum = 0.035 (at node 12)
	maximum = 0.059 (at node 8)
Injected flit rate average = 0.0485
	minimum = 0.036 (at node 3)
	maximum = 0.06 (at node 1)
Accepted flit rate average= 0.047125
	minimum = 0.035 (at node 12)
	maximum = 0.059 (at node 8)
Injected packet length average = 1
Accepted packet length average = 1
Total in-flight flits = 22 (0 measured)
latency change    = 1
throughput change = 1
Class 0:
Packet latency average = 19.4358
	minimum = 7
	maximum = 43
Network latency average = 19.4358
	minimum = 7
	maximum = 43
Slowest packet = 52421
Flit latency average = 19.4358
	minimum = 7
	maximum = 43
Slowest flit = 52421
Fragmentation average = 0
	minimum = 0
	maximum = 0
Injected packet rate average = 0.0494687
	minimum = 0.0405 (at node 10)
	maximum = 0.058 (at node 2)
Accepted packet rate average = 0.0491875
	minimum = 0.0405 (at node 10)
	maximum = 0.058 (at node 8)
Injected flit rate average = 0.0494687
	minimum = 0.0405 (at node 10)
	maximum = 0.058 (at node 2)
Accepted flit rate average= 0.0491875
	minimum = 0.0405 (at node 10)
	maximum = 0.058 (at node 8)
Injected packet length average = 1
Accepted packet length average = 1
Total in-flight flits = 9 (0 measured)
latency change    = 0.00133866
throughput change = 0.0419314
Class 0:
Packet latency average = 19.8827
	minimum = 7
	maximum = 41
Network latency average = 19.8827
	minimum = 7
	maximum = 41
Slowest packet = 54059
Flit latency average = 19.8827
	minimum = 7
	maximum = 41
Slowest flit = 54059
Fragmentation average = 0
	minimum = 0
	maximum = 0
Injected packet rate average = 0.0494375
	minimum = 0.04 (at node 4)
	maximum = 0.061 (at node 9)
Accepted packet rate average = 0.049
	minimum = 0.038 (at node 1)
	maximum = 0.062 (at node 6)
Injected flit rate average = 0.0494375
	minimum = 0.04 (at node 4)
	maximum = 0.061 (at node 9)
Accepted flit rate average= 0.049
	minimum = 0.038 (at node 1)
	maximum = 0.062 (at node 6)
Injected packet length average = 1
Accepted packet length average = 1
Total in-flight flits = 16 (0 measured)
latency change    = 0.0224729
throughput change = 0.00382653
Warmed up ...Time used is 3000 cycles
Class 0:
Packet latency average = 19.8693
	minimum = 7
	maximum = 40
Network latency average = 19.8693
	minimum = 7
	maximum = 40
Slowest packet = 54714
Flit latency average = 19.9241
	minimum = 7
	maximum = 40
Slowest flit = 54714
Fragmentation average = 0
	minimum = 0
	maximum = 0
Injected packet rate average = 0.05025
	minimum = 0.042 (at node 13)
	maximum = 0.06 (at node 12)
Accepted packet rate average = 0.05025
	minimum = 0.04 (at node 7)
	maximum = 0.06 (at node 1)
Injected flit rate average = 0.05025
	minimum = 0.042 (at node 13)
	maximum = 0.06 (at node 12)
Accepted flit rate average= 0.05025
	minimum = 0.04 (at node 7)
	maximum = 0.06 (at node 1)
Injected packet length average = 1
Accepted packet length average = 1
Total in-flight flits = 16 (16 measured)
latency change    = 0.000672582
throughput change = 0.0248756
Class 0:
Packet latency average = 19.7647
	minimum = 7
	maximum = 40
Network latency average = 19.7647
	minimum = 7
	maximum = 40
Slowest packet = 54714
Flit latency average = 19.793
	minimum = 7
	maximum = 40
Slowest flit = 54714
Fragmentation average = 0
	minimum = 0
	maximum = 0
Injected packet rate average = 0.0504375
	minimum = 0.042 (at node 13)
	maximum = 0.058 (at node 7)
Accepted packet rate average = 0.0505625
	minimum = 0.0415 (at node 7)
	maximum = 0.059 (at node 13)
Injected flit rate average = 0.0504375
	minimum = 0.042 (at node 13)
	maximum = 0.058 (at node 7)
Accepted flit rate average= 0.0505625
	minimum = 0.0415 (at node 7)
	maximum = 0.059 (at node 13)
Injected packet length average = 1
Accepted packet length average = 1
Total in-flight flits = 12 (12 measured)
latency change    = 0.00529329
throughput change = 0.00618047
Class 0:
Packet latency average = 19.7296
	minimum = 7
	maximum = 43
Network latency average = 19.7296
	minimum = 7
	maximum = 43
Slowest packet = 56564
Flit latency average = 19.749
	minimum = 7
	maximum = 43
Slowest flit = 56564
Fragmentation average = 0
	minimum = 0
	maximum = 0
Injected packet rate average = 0.0499583
	minimum = 0.0436667 (at node 14)
	maximum = 0.0566667 (at node 6)
Accepted packet rate average = 0.0499583
	minimum = 0.0436667 (at node 11)
	maximum = 0.0563333 (at node 9)
Injected flit rate average = 0.0499583
	minimum = 0.0436667 (at node 14)
	maximum = 0.0566667 (at node 6)
Accepted flit rate average= 0.0499583
	minimum = 0.0436667 (at node 11)
	maximum = 0.0563333 (at node 9)
Injected packet length average = 1
Accepted packet length average = 1
Total in-flight flits = 16 (16 measured)
latency change    = 0.00177551
throughput change = 0.0120934
Draining all recorded packets ...
Draining remaining packets ...
Time taken is 6067 cycles
Class 0:
Packet latency average = 19.6785
	minimum = 7
	maximum = 38
Network latency average = 19.6785
	minimum = 7
	maximum = 38
Slowest packet = 56921
Flit latency average = 19.6785
	minimum = 7
	maximum = 38
Slowest flit = 56921
Fragmentation average = 0
	minimum = 0
	maximum = 0
Injected packet rate average = 0.0503125
	minimum = 0.036 (at node 6)
	maximum = 0.061 (at node 1)
Accepted packet rate average = 0.049375
	minimum = 0.036 (at node 9)
	maximum = 0.061 (at node 4)
Injected flit rate average = 0.0503125
	minimum = 0.036 (at node 6)
	maximum = 0.061 (at node 1)
Accepted flit rate average= 0.049375
	minimum = 0.036 (at node 9)
	maximum = 0.061 (at node 4)
Injected packet length average = 1
Accepted packet length average = 1
Total in-flight flits = 15 (0 measured)
latency change    = 1
throughput change = 1
Class 0:
Packet latency average = 19.5371
	minimum = 7
	maximum = 39
Network latency average = 19.5371
	minimum = 7
	maximum = 39
Slowest packet = 58254
Flit latency average = 19.5371
	minimum = 7
	maximum = 39
Slowest flit = 58254
Fragmentation average = 0
	minimum = 0
	maximum = 0
Injected packet rate average = 0.049375
	minimum = 0.043 (at node 10)
	maximum = 0.056 (at node 4)
Accepted packet rate average = 0.048875
	minimum = 0.043 (at node 10)
	maximum = 0.0555 (at node 1)
Injected flit rate average = 0.049375
	minimum = 0.043 (at node 10)
	maximum = 0.056 (at node 4)
Accepted flit rate average= 0.048875
	minimum = 0.043 (at node 10)
	maximum = 0.0555 (at node 1)
Injected packet length average = 1
Accepted packet length average = 1
Total in-flight flits = 16 (0 measured)
latency change    = 0.00723734
throughput change = 0.0102302
Class 0:
Packet latency average = 19.5854
	minimum = 7
	maximum = 48
Network latency average = 19.5854
	minimum = 7
	maximum = 48
Slowest packet = 59048
Flit latency average = 19.5854
	minimum = 7
	maximum = 48
Slowest flit = 59048
Fragmentation average = 0
	minimum = 0
	maximum = 0
Injected packet rate average = 0.0514375
	minimum = 0.036 (at node 6)
	maximum = 0.065 (at node 7)
Accepted packet rate average = 0.05125
	minimum = 0.037 (at node 9)
	maximum = 0.062 (at node 13)
Injected flit rate average = 0.0514375
	minimum = 0.036 (at node 6)
	maximum = 0.065 (at node 7)
Accepted flit rate average= 0.05125
	minimum = 0.037 (at node 9)
	maximum = 0.062 (at node 13)
Injected packet length average = 1
Accepted packet length average = 1
Total in-flight flits = 19 (0 measured)
latency change    = 0.00246518
throughput change = 0.0463415
Warmed up ...Time used is 3000 cycles
Class 0:
Packet latency average = 19.3777
	minimum = 7
	maximum = 43
Network latency average = 19.3777
	minimum = 7
	maximum = 43
Slowest packet = 59721
Flit latency average = 19.5686
	minimum = 7
	maximum = 43
Slowest flit = 59721
Fragmentation average = 0
	minimum = 0
	maximum = 0
Injected packet rate average = 0.05075
	minimum = 0.039 (at node 15)
	maximum = 0.07 (at node 0)
Accepted packet rate average = 0.051
	minimum = 0.039 (at node 15)
	maximum = 0.07 (at node 0)
Injected flit rate average = 0.05075
	minimum = 0.039 (at node 15)
	maximum = 0.07 (at node 0)
Accepted flit rate average= 0.051
	minimum = 0.039 (at node 15)
	maximum = 0.07 (at node 0)
Injected packet length average = 1
Accepted packet length average = 1
Total in-flight flits = 15 (15 measured)
latency change    = 0.0107185
throughput change = 0.00490196
Class 0:
Packet latency average = 19.1882
	minimum = 7
	maximum = 43
Network latency average = 19.1882
	minimum = 7
	maximum = 43
Slowest packet = 59721
Flit latency average = 19.2901
	minimum = 7
	maximum = 43
Slowest flit = 59721
Fragmentation average = 0
	minimum = 0
	maximum = 0
Injected packet rate average = 0.0485625
	minimum = 0.0405 (at node 3)
	maximum = 0.063 (at node 0)
Accepted packet rate average = 0.0489062
	minimum = 0.0425 (at node 12)
	maximum = 0.063 (at node 0)
Injected flit rate average = 0.0485625
	minimum = 0.0405 (at node 3)
	maximum = 0.063 (at node 0)
Accepted flit rate average= 0.0489062
	minimum = 0.0425 (at node 12)
	maximum = 0.063 (at node 0)
Injected packet length average = 1
Accepted packet length average = 1
Total in-flight flits = 8 (8 measured)
latency change    = 0.00987265
throughput change = 0.0428115
Class 0:
Packet latency average = 19.2841
	minimum = 7
	maximum = 44
Network latency average = 19.2841
	minimum = 7
	maximum = 44
Slowest packet = 60838
Flit latency average = 19.3507
	minimum = 7
	maximum = 44
Slowest flit = 60838
Fragmentation average = 0
	minimum = 0
	maximum = 0
Injected packet rate average = 0.0493542
	minimum = 0.041 (at node 3)
	maximum = 0.058 (at node 0)
Accepted packet rate average = 0.0493125
	minimum = 0.042 (at node 12)
	maximum = 0.0576667 (at node 0)
Injected flit rate average = 0.0493542
	minimum = 0.041 (at node 3)
	maximum = 0.058 (at node 0)
Accepted flit rate average= 0.0493125
	minimum = 0.042 (at node 12)
	maximum = 0.0576667 (at node 0)
Injected packet length average = 1
Accepted packet length average = 1
Total in-flight flits = 21 (21 measured)
latency change    = 0.00497011
throughput change = 0.00823828
Draining all recorded packets ...
Draining remaining packets ...
Time taken is 6075 cycles
Class 0:
Packet latency average = 19.4922
	minimum = 7
	maximum = 45
Network latency average = 19.4922
	minimum = 7
	maximum = 45
Slowest packet = 61824
Flit latency average = 19.4922
	minimum = 7
	maximum = 45
Slowest flit = 61824
Fragmentation average = 0
	minimum = 0
	maximum = 0
Injected packet rate average = 0.0529375
	minimum = 0.04 (at node 1)
	maximum = 0.068 (at node 13)
Accepted packet rate average = 0.0519375
	minimum = 0.038 (at node 4)
	maximum = 0.065 (at node 7)
Injected flit rate average = 0.0529375
	minimum = 0.04 (at node 1)
	maximum = 0.068 (at node 13)
Accepted flit rate average= 0.0519375
	minimum = 0.038 (at node 4)
	maximum = 0.065 (at node 7)
Injected packet length average = 1
Accepted packet length average = 1
Total in-flight flits = 16 (0 measured)
latency change    = 1
throughput change = 1
Class 0:
Packet latency average = 19.4403
	minimum = 7
	maximum = 45
Network latency average = 19.4403
	minimum = 7
	maximum = 45
Slowest packet = 61824
Flit latency average = 19.4403
	minimum = 7
	maximum = 45
Slowest flit = 61824
Fragmentation average = 0
	minimum = 0
	maximum = 0
Injected packet rate average = 0.0499687
	minimum = 0.0415 (at node 3)
	maximum = 0.058 (at node 7)
Accepted packet rate average = 0.04975
	minimum = 0.041 (at node 12)
	maximum = 0.057 (at node 13)
Injected flit rate average = 0.0499687
	minimum = 0.0415 (at node 3)
	maximum = 0.058 (at node 7)
Accepted flit rate average= 0.04975
	minimum = 0.041 (at node 12)
	maximum = 0.057 (at node 13)
Injected packet length average = 1
Accepted packet length average = 1
Total in-flight flits = 7 (0 measured)
latency change    = 0.00266721
throughput change = 0.0439698
Class 0:
Packet latency average = 19.3366
	minimum = 7
	maximum = 41
Network latency average = 19.3366
	minimum = 7
	maximum = 41
Slowest packet = 63648
Flit latency average = 19.3366
	minimum = 7
	maximum = 41
Slowest flit = 63648
Fragmentation average = 0
	minimum = 0
	maximum = 0
Injected packet rate average = 0.05225
	minimum = 0.04 (at node 3)
	maximum = 0.059 (at node 7)
Accepted packet rate average = 0.0518125
	minimum = 0.04 (at node 5)
	maximum = 0.061 (at node 13)
Injected flit rate average = 0.05225
	minimum = 0.04 (at node 3)
	maximum = 0.059 (at node 7)
Accepted flit rate average= 0.0518125
	minimum = 0.04 (at node 5)
	maximum = 0.061 (at node 13)
Injected packet length average = 1
Accepted packet length average = 1
Total in-flight flits = 14 (0 measured)
latency change    = 0.00536686
throughput change = 0.039807
Warmed up ...Time used is 3000 cycles
Class 0:
Packet latency average = 19.4969
	minimum = 7
	maximum = 44
Network latency average = 19.4969
	minimum = 7
	maximum = 44
Slowest packet = 64212
Flit latency average = 19.5771
	minimum = 7
	maximum = 44
Slowest flit = 64212
Fragmentation average = 0
	minimum = 0
	maximum = 0
Injected packet rate average = 0.050625
	minimum = 0.039 (at node 5)
	maximum = 0.059 (at node 0)
Accepted packet rate average = 0.0506875
	minimum = 0.04 (at node 5)
	maximum = 0.06 (at node 1)
Injected flit rate average = 0.050625
	minimum = 0.039 (at node 5)
	maximum = 0.059 (at node 0)
Accepted flit rate average= 0.0506875
	minimum = 0.04 (at node 5)
	maximum = 0.06 (at node 1)
Injected packet length average = 1
Accepted packet length average = 1
Total in-flight flits = 13 (13 measured)
latency change    = 0.00822251
throughput change = 0.0221948
Class 0:
Packet latency average = 19.5164
	minimum = 7
	maximum = 45
Network latency average = 19.5164
	minimum = 7
	maximum = 45
Slowest packet = 64901
Flit latency average = 19.5562
	minimum = 7
	maximum = 45
Slowest flit = 64901
Fragmentation average = 0
	minimum = 0
	maximum = 0
Injected packet rate average = 0.0509063
	minimum = 0.044 (at node 9)
	maximum = 0.056 (at node 4)
Accepted packet rate average = 0.0509063
	minimum = 0.0435 (at node 6)
	maximum = 0.0565 (at node 1)
Injected flit rate average = 0.0509063
	minimum = 0.044 (at node 9)
	maximum = 0.056 (at node 4)
Accepted flit rate average= 0.0509063
	minimum = 0.0435 (at node 6)
	maximum = 0.0565 (at node 1)
Injected packet length average = 1
Accepted packet length average = 1
Total in-flight flits = 14 (14 measured)
latency change    = 0.00100149
throughput change = 0.00429711
Class 0:
Packet latency average = 19.5825
	minimum = 7
	maximum = 45
Network latency average = 19.5825
	minimum = 7
	maximum = 45
Slowest packet = 64901
Flit latency average = 19.6081
	minimum = 7
	maximum = 45
Slowest flit = 64901
Fragmentation average = 0
	minimum = 0
	maximum = 0
Injected packet rate average = 0.052
	minimum = 0.0466667 (at node 9)
	maximum = 0.0563333 (at node 15)
Accepted packet rate average = 0.0519375
	minimum = 0.0466667 (at node 6)
	maximum = 0.0563333 (at node 15)
Injected flit rate average = 0.052
	minimum = 0.0466667 (at node 9)
	maximum = 0.0563333 (at node 15)
Accepted flit rate average= 0.0519375
	minimum = 0.0466667 (at node 6)
	maximum = 0.0563333 (at node 15)
Injected packet length average = 1
Accepted packet length average = 1
Total in-flight flits = 17 (17 measured)
latency change    = 0.00337466
throughput change = 0.0198556
Draining all recorded packets ...
Draining remaining packets ...
Time taken is 6068 cycles
Class 0:
Packet latency average = 19.4619
	minimum = 7
	maximum = 44
Network latency average = 19.4619
	minimum = 7
	maximum = 44
Slowest packet = 66888
Flit latency average = 19.4619
	minimum = 7
	maximum = 44
Slowest flit = 66888
Fragmentation average = 0
	minimum = 0
	maximum = 0
Injected packet rate average = 0.050125
	minimum = 0.041 (at node 13)
	maximum = 0.058 (at node 9)
Accepted packet rate average = 0.04925
	minimum = 0.04 (at node 7)
	maximum = 0.058 (at node 6)
Injected flit rate average = 0.050125
	minimum = 0.041 (at node 13)
	maximum = 0.058 (at node 9)
Accepted flit rate average= 0.04925
	minimum = 0.04 (at node 7)
	maximum = 0.058 (at node 6)
Injected packet length average = 1
Accepted packet length average = 1
Total in-flight flits = 14 (0 measured)
latency change    = 1
throughput change = 1
Class 0:
Packet latency average = 19.8732
	minimum = 7
	maximum = 46
Network latency average = 19.8732
	minimum = 7
	maximum = 46
Slowest packet = 67652
Flit latency average = 19.8732
	minimum = 7
	maximum = 46
Slowest flit = 67652
Fragmentation average = 0
	minimum = 0
	maximum = 0
Injected packet rate average = 0.050625
	minimum = 0.043 (at node 13)
	maximum = 0.06 (at node 3)
Accepted packet rate average = 0.0500312
	minimum = 0.0425 (at node 7)
	maximum = 0.059 (at node 12)
Injected flit rate average = 0.050625
	minimum = 0.043 (at node 13)
	maximum = 0.06 (at node 3)
Accepted flit rate average= 0.0500312
	minimum = 0.0425 (at node 7)
	maximum = 0.059 (at node 12)
Injected packet length average = 1
Accepted packet length average = 1
Total in-flight flits = 19 (0 measured)
latency change    = 0.020695
throughput change = 0.0156152
Class 0:
Packet latency average = 19.1492
	minimum = 7
	maximum = 41
Network latency average = 19.1492
	minimum = 7
	maximum = 41
Slowest packet = 68927
Flit latency average = 19.1492
	minimum = 7
	maximum = 41
Slowest flit = 68927
Fragmentation average = 0
	minimum = 0
	maximum = 0
Injected packet rate average = 0.050375
	minimum = 0.036 (at node 7)
	maximum = 0.067 (at node 9)
Accepted packet rate average = 0.0506875
	minimum = 0.037 (at node 2)
	maximum = 0.066 (at node 6)
Injected flit rate average = 0.050375
	minimum = 0.036 (at node 7)
	maximum = 0.067 (at node 9)
Accepted flit rate average= 0.0506875
	minimum = 0.037 (at node 2)
	maximum = 0.066 (at node 6)
Injected packet length average = 1
Accepted packet length average = 1
Total in-flight flits = 14 (0 measured)
latency change    = 0.0378087
throughput change = 0.012947
Warmed up ...Time used is 3000 cycles
Class 0:
Packet latency average = 19.1665
	minimum = 7
	maximum = 42
Network latency average = 19.1665
	minimum = 7
	maximum = 42
Slowest packet = 69287
Flit latency average = 19.2928
	minimum = 7
	maximum = 42
Slowest flit = 69287
Fragmentation average = 0
	minimum = 0
	maximum = 0
Injected packet rate average = 0.0490625
	minimum = 0.041 (at node 5)
	maximum = 0.059 (at node 15)
Accepted packet rate average = 0.0493125
	minimum = 0.041 (at node 13)
	maximum = 0.059 (at node 15)
Injected flit rate average = 0.0490625
	minimum = 0.041 (at node 5)
	maximum = 0.059 (at node 15)
Accepted flit rate average= 0.0493125
	minimum = 0.041 (at node 13)
	maximum = 0.059 (at node 15)
Injected packet length average = 1
Accepted packet length average = 1
Total in-flight flits = 10 (10 measured)
latency change    = 0.000900171
throughput change = 0.0278834
Class 0:
Packet latency average = 19.5676
	minimum = 7
	maximum = 42
Network latency average = 19.5676
	minimum = 7
	maximum = 42
Slowest packet = 69287
Flit latency average = 19.6255
	minimum = 7
	maximum = 42
Slowest flit = 69287
Fragmentation average = 0
	minimum = 0
	maximum = 0
Injected packet rate average = 0.0508438
	minimum = 0.0445 (at node 7)
	maximum = 0.0595 (at node 14)
Accepted packet rate average = 0.0508125
	minimum = 0.0435 (at node 13)
	maximum = 0.0595 (at node 11)
Injected flit rate average = 0.0508438
	minimum = 0.0445 (at node 7)
	maximum = 0.0595 (at node 14)
Accepted flit rate average= 0.0508125
	minimum = 0.0435 (at node 13)
	maximum = 0.0595 (at node 11)
Injected packet length average = 1
Accepted packet length average = 1
Total in-flight flits = 15 (15 measured)
latency change    = 0.0205015
throughput change = 0.0295203
Class 0:
Packet latency average = 19.6946
	minimum = 7
	maximum = 46
Network latency average = 19.6946
	minimum = 7
	maximum = 46
Slowest packet = 71001
Flit latency average = 19.7331
	minimum = 7
	maximum = 46
Slowest flit = 71001
Fragmentation average = 0
	minimum = 0
	maximum = 0
Injected packet rate average = 0.0499375
	minimum = 0.0456667 (at node 7)
	maximum = 0.057 (at node 2)
Accepted packet rate average = 0.0499583
	minimum = 0.046 (at node 4)
	maximum = 0.057 (at node 8)
Injected flit rate average = 0.0499375
	minimum = 0.0456667 (at node 7)
	maximum = 0.057 (at node 2)
Accepted flit rate average= 0.0499583
	minimum = 0.046 (at node 4)
	maximum = 0.057 (at node 8)
Injected packet length average = 1
Accepted packet length average = 1
Total in-flight flits = 13 (13 measured)
latency change    = 0.00644912
throughput change = 0.0170976
Draining all recorded packets ...
Draining remaining packets ...
Time taken is 6064 cycles
Class 0:
Packet latency average = 19.6662
	minimum = 7
	maximum = 47
Network latency average = 19.6662
	minimum = 7
	maximum = 47
Slowest packet = 71760
Flit latency average = 19.6662
	minimum = 7
	maximum = 47
Slowest flit = 71760
Fragmentation average = 0
	minimum = 0
	maximum = 0
Injected packet rate average = 0.0495625
	minimum = 0.037 (at node 6)
	maximum = 0.061 (at node 1)
Accepted packet rate average = 0.048125
	minimum = 0.037 (at node 9)
	maximum = 0.06 (at node 4)
Injected flit rate average = 0.0495625
	minimum = 0.037 (at node 6)
	maximum = 0.061 (at node 1)
Accepted flit rate average= 0.048125
	minimum = 0.037 (at node 9)
	maximum = 0.06 (at node 4)
Injected packet length average = 1
Accepted packet length average = 1
Total in-flight flits = 23 (0 measured)
latency change    = 1
throughput change = 1
Class 0:
Packet latency average = 19.298
	minimum = 7
	maximum = 47
Network latency average = 19.298
	minimum = 7
	maximum = 47
Slowest packet = 71760
Flit latency average = 19.298
	minimum = 7
	maximum = 47
Slowest flit = 71760
Fragmentation average = 0
	minimum = 0
	maximum = 0
Injected packet rate average = 0.0500625
	minimum = 0.0415 (at node 9)
	maximum = 0.063 (at node 5)
Accepted packet rate average = 0.0495
	minimum = 0.041 (at node 6)
	maximum = 0.063 (at node 5)
Injected flit rate average = 0.0500625
	minimum = 0.0415 (at node 9)
	maximum = 0.063 (at node 5)
Accepted flit rate average= 0.0495
	minimum = 0.041 (at node 6)
	maximum = 0.063 (at node 5)
Injected packet length average = 1
Accepted packet length average = 1
Total in-flight flits = 18 (0 measured)
latency change    = 0.0190825
throughput change = 0.0277778
Class 0:
Packet latency average = 19.3965
	minimum = 7
	maximum = 38
Network latency average = 19.3965
	minimum = 7
	maximum = 38
Slowest packet = 73094
Flit latency average = 19.3965
	minimum = 7
	maximum = 38
Slowest flit = 73094
Fragmentation average = 0
	minimum = 0
	maximum = 0
Injected packet rate average = 0.0499375
	minimum = 0.036 (at node 6)
	maximum = 0.058 (at node 9)
Accepted packet rate average = 0.0504375
	minimum = 0.038 (at node 9)
	maximum = 0.059 (at node 14)
Injected flit rate average = 0.0499375
	minimum = 0.036 (at node 6)
[...]
	minimum = 0.036 (at node 0)
	maximum = 0.056 (at node 11)
Accepted packet rate average = 0.0496875
	minimum = 0.035 (at node 0)
	maximum = 0.056 (at node 7)
Injected flit rate average = 0.049875
	minimum = 0.036 (at node 0)
	maximum = 0.056 (at node 11)
Accepted flit rate average= 0.0496875
	minimum = 0.035 (at node 0)
	maximum = 0.056 (at node 7)
Injected packet length average = 1
Accepted packet length average = 1
Total in-flight flits = 18 (18 measured)
latency change    = 0.0343119
throughput change = 0.0264151
Class 0:
Packet latency average = 19.6291
	minimum = 7
	maximum = 46
Network latency average = 19.6291
	minimum = 7
	maximum = 46
Slowest packet = 497482
Flit latency average = 19.6962
	minimum = 7
	maximum = 46
Slowest flit = 497482
Fragmentation average = 0
	minimum = 0
	maximum = 0
Injected packet rate average = 0.048625
	minimum = 0.0425 (at node 9)
	maximum = 0.0555 (at node 15)
Accepted packet rate average = 0.0486562
	minimum = 0.0425 (at node 0)
	maximum = 0.0555 (at node 15)
Injected flit rate average = 0.048625
	minimum = 0.0425 (at node 9)
	maximum = 0.0555 (at node 15)
Accepted flit rate average= 0.0486562
	minimum = 0.0425 (at node 0)
	maximum = 0.0555 (at node 15)
Injected packet length average = 1
Accepted packet length average = 1
Total in-flight flits = 14 (14 measured)
latency change    = 0.00167605
throughput change = 0.0211946
Class 0:
Packet latency average = 19.6727
	minimum = 7
	maximum = 46
Network latency average = 19.6727
	minimum = 7
	maximum = 46
Slowest packet = 497482
Flit latency average = 19.7163
	minimum = 7
	maximum = 46
Slowest flit = 497482
Fragmentation average = 0
	minimum = 0
	maximum = 0
Injected packet rate average = 0.0497292
	minimum = 0.04 (at node 7)
	maximum = 0.056 (at node 13)
Accepted packet rate average = 0.0497083
	minimum = 0.0406667 (at node 13)
	maximum = 0.056 (at node 7)
Injected flit rate average = 0.0497292
	minimum = 0.04 (at node 7)
	maximum = 0.056 (at node 13)
Accepted flit rate average= 0.0497083
	minimum = 0.0406667 (at node 13)
	maximum = 0.056 (at node 7)
Injected packet length average = 1
Accepted packet length average = 1
Total in-flight flits = 16 (16 measured)
latency change    = 0.00221925
throughput change = 0.0211651
Draining all recorded packets ...
Draining remaining packets ...
Time taken is 6067 cycles
Class 0:
Packet latency average = 19.4645
	minimum = 7
	maximum = 42
Network latency average = 19.4645
	minimum = 7
	maximum = 42
Slowest packet = 499771
Flit latency average = 19.4645
	minimum = 7
	maximum = 42
Slowest flit = 499771
Fragmentation average = 0
	minimum = 0
	maximum = 0
Injected packet rate average = 0.0495
	minimum = 0.039 (at node 6)
	maximum = 0.062 (at node 10)
Accepted packet rate average = 0.0484375
	minimum = 0.038 (at node 9)
	maximum = 0.062 (at node 10)
Injected flit rate average = 0.0495
	minimum = 0.039 (at node 6)
	maximum = 0.062 (at node 10)
Accepted flit rate average= 0.0484375
	minimum = 0.038 (at node 9)
	maximum = 0.062 (at node 10)
Injected packet length average = 1
Accepted packet length average = 1
Total in-flight flits = 17 (0 measured)
latency change    = 1
throughput change = 1
Class 0:
Packet latency average = 19.5852
	minimum = 7
	maximum = 42
Network latency average = 19.5852
	minimum = 7
	maximum = 42
Slowest packet = 499771
Flit latency average = 19.5852
	minimum = 7
	maximum = 42
Slowest flit = 499771
Fragmentation average = 0
	minimum = 0
	maximum = 0
Injected packet rate average = 0.0483437
	minimum = 0.0435 (at node 1)
	maximum = 0.058 (at node 3)
Accepted packet rate average = 0.0476875
	minimum = 0.0425 (at node 3)
	maximum = 0.057 (at node 1)
Injected flit rate average = 0.0483437
	minimum = 0.0435 (at node 1)
	maximum = 0.058 (at node 3)
Accepted flit rate average= 0.0476875
	minimum = 0.0425 (at node 3)
	maximum = 0.057 (at node 1)
Injected packet length average = 1
Accepted packet length average = 1
Total in-flight flits = 21 (0 measured)
latency change    = 0.00616149
throughput change = 0.0157274
Class 0:
Packet latency average = 19.6832
	minimum = 7
	maximum = 42
Network latency average = 19.6832
	minimum = 7
	maximum = 42
Slowest packet = 500657
Flit latency average = 19.6832
	minimum = 7
	maximum = 42
Slowest flit = 500657
Fragmentation average = 0
	minimum = 0
	maximum = 0
Injected packet rate average = 0.0479375
	minimum = 0.035 (at node 1)
	maximum = 0.061 (at node 2)
Accepted packet rate average = 0.0479375
	minimum = 0.035 (at node 4)
	maximum = 0.064 (at node 8)
Injected flit rate average = 0.0479375
	minimum = 0.035 (at node 1)
	maximum = 0.061 (at node 2)
Accepted flit rate average= 0.0479375
	minimum = 0.035 (at node 4)
	maximum = 0.064 (at node 8)
Injected packet length average = 1
Accepted packet length average = 1
Total in-flight flits = 21 (0 measured)
latency change    = 0.00497842
throughput change = 0.00521512
Warmed up ...Time used is 3000 cycles
Class 0:
Packet latency average = 19.273
	minimum = 7
	maximum = 41
Network latency average = 19.273
	minimum = 7
	maximum = 41
Slowest packet = 501529
Flit latency average = 19.316
	minimum = 7
	maximum = 41
Slowest flit = 501529
Fragmentation average = 0
	minimum = 0
	maximum = 0
Injected packet rate average = 0.0466875
	minimum = 0.038 (at node 13)
	maximum = 0.062 (at node 4)
Accepted packet rate average = 0.046875
	minimum = 0.04 (at node 7)
	maximum = 0.061 (at node 1)
Injected flit rate average = 0.0466875
	minimum = 0.038 (at node 13)
	maximum = 0.062 (at node 4)
Accepted flit rate average= 0.046875
	minimum = 0.04 (at node 7)
	maximum = 0.061 (at node 1)
Injected packet length average = 1
Accepted packet length average = 1
Total in-flight flits = 18 (18 measured)
latency change    = 0.0212839
throughput change = 0.0226667
Class 0:
Packet latency average = 19.5924
	minimum = 7
	maximum = 46
Network latency average = 19.5924
	minimum = 7
	maximum = 46
Slowest packet = 502221
Flit latency average = 19.6086
	minimum = 7
	maximum = 46
Slowest flit = 502221
Fragmentation average = 0
	minimum = 0
	maximum = 0
Injected packet rate average = 0.0491562
	minimum = 0.0425 (at node 13)
	maximum = 0.0555 (at node 7)
Accepted packet rate average = 0.0491875
	minimum = 0.0435 (at node 7)
	maximum = 0.055 (at node 13)
Injected flit rate average = 0.0491562
	minimum = 0.0425 (at node 13)
	maximum = 0.0555 (at node 7)
Accepted flit rate average= 0.0491875
	minimum = 0.0435 (at node 7)
	maximum = 0.055 (at node 13)
Injected packet length average = 1
Accepted packet length average = 1
Total in-flight flits = 20 (20 measured)
latency change    = 0.0163035
throughput change = 0.047014
Class 0:
Packet latency average = 19.7059
	minimum = 7
	maximum = 46
Network latency average = 19.7054
	minimum = 7
	maximum = 46
Slowest packet = 502221
Flit latency average = 19.7153
	minimum = 7
	maximum = 46
Slowest flit = 502221
Fragmentation average = 0
	minimum = 0
	maximum = 0
Injected packet rate average = 0.0487083
	minimum = 0.0426667 (at node 0)
	maximum = 0.0536667 (at node 4)
Accepted packet rate average = 0.0488125
	minimum = 0.043 (at node 0)
	maximum = 0.053 (at node 1)
Injected flit rate average = 0.0487083
	minimum = 0.0426667 (at node 0)
	maximum = 0.0536667 (at node 4)
Accepted flit rate average= 0.0488125
	minimum = 0.043 (at node 0)
	maximum = 0.053 (at node 1)
Injected packet length average = 1
Accepted packet length average = 1
Total in-flight flits = 16 (16 measured)
latency change    = 0.00575744
throughput change = 0.00768246
Draining all recorded packets ...
Draining remaining packets ...
Time taken is 6068 cycles
Class 0:
Packet latency average = 19.551
	minimum = 7
	maximum = 42
Network latency average = 19.551
	minimum = 7
	maximum = 42
Slowest packet = 504023
Flit latency average = 19.551
	minimum = 7
	maximum = 42
Slowest flit = 504023
Fragmentation average = 0
	minimum = 0
	maximum = 0
Injected packet rate average = 0.0513125
	minimum = 0.041 (at node 11)
	maximum = 0.065 (at node 13)
Accepted packet rate average = 0.05025
	minimum = 0.04 (at node 6)
	maximum = 0.064 (at node 11)
Injected flit rate average = 0.0513125
	minimum = 0.041 (at node 11)
	maximum = 0.065 (at node 13)
Accepted flit rate average= 0.05025
	minimum = 0.04 (at node 6)
	maximum = 0.064 (at node 11)
Injected packet length average = 1
Accepted packet length average = 1
Total in-flight flits = 17 (0 measured)
latency change    = 1
throughput change = 1
Class 0:
Packet latency average = 19.9427
	minimum = 7
	maximum = 46
Network latency average = 19.9427
	minimum = 7
	maximum = 46
Slowest packet = 505171
Flit latency average = 19.9427
	minimum = 7
	maximum = 46
Slowest flit = 505171
Fragmentation average = 0
	minimum = 0
	maximum = 0
Injected packet rate average = 0.0507187
	minimum = 0.0405 (at node 11)
	maximum = 0.0625 (at node 13)
Accepted packet rate average = 0.0501875
	minimum = 0.0405 (at node 14)
	maximum = 0.061 (at node 7)
Injected flit rate average = 0.0507187
	minimum = 0.0405 (at node 11)
	maximum = 0.0625 (at node 13)
Accepted flit rate average= 0.0501875
	minimum = 0.0405 (at node 14)
	maximum = 0.061 (at node 7)
Injected packet length average = 1
Accepted packet length average = 1
Total in-flight flits = 17 (0 measured)
latency change    = 0.0196423
throughput change = 0.00124533
Class 0:
Packet latency average = 19.2101
	minimum = 7
	maximum = 43
Network latency average = 19.2101
	minimum = 7
	maximum = 43
Slowest packet = 505751
Flit latency average = 19.2101
	minimum = 7
	maximum = 43
Slowest flit = 505751
Fragmentation average = 0
	minimum = 0
	maximum = 0
Injected packet rate average = 0.0504375
	minimum = 0.039 (at node 2)
	maximum = 0.06 (at node 6)
Accepted packet rate average = 0.0505625
	minimum = 0.037 (at node 8)
	maximum = 0.061 (at node 9)
Injected flit rate average = 0.0504375
	minimum = 0.039 (at node 2)
	maximum = 0.06 (at node 6)
Accepted flit rate average= 0.0505625
	minimum = 0.037 (at node 8)
	maximum = 0.061 (at node 9)
Injected packet length average = 1
Accepted packet length average = 1
Total in-flight flits = 15 (0 measured)
latency change    = 0.038135
throughput change = 0.00741656
Warmed up ...Time used is 3000 cycles
Class 0:
Packet latency average = 19.4695
	minimum = 7
	maximum = 39
Network latency average = 19.4695
	minimum = 7
	maximum = 39
Slowest packet = 506695
Flit latency average = 19.5355
	minimum = 7
	maximum = 39
Slowest flit = 506695
Fragmentation average = 0
	minimum = 0
	maximum = 0
Injected packet rate average = 0.0503125
	minimum = 0.042 (at node 12)
	maximum = 0.058 (at node 8)
Accepted packet rate average = 0.0501875
	minimum = 0.04 (at node 3)
	maximum = 0.057 (at node 2)
Injected flit rate average = 0.0503125
	minimum = 0.042 (at node 12)
	maximum = 0.058 (at node 8)
Accepted flit rate average= 0.0501875
	minimum = 0.04 (at node 3)
	maximum = 0.057 (at node 2)
Injected packet length average = 1
Accepted packet length average = 1
Total in-flight flits = 17 (17 measured)
latency change    = 0.0133237
throughput change = 0.00747198
Class 0:
Packet latency average = 19.6438
	minimum = 7
	maximum = 42
Network latency average = 19.6438
	minimum = 7
	maximum = 42
Slowest packet = 507373
Flit latency average = 19.6749
	minimum = 7
	maximum = 42
Slowest flit = 507373
Fragmentation average = 0
	minimum = 0
	maximum = 0
Injected packet rate average = 0.0505312
	minimum = 0.046 (at node 4)
	maximum = 0.0555 (at node 3)
Accepted packet rate average = 0.0504687
	minimum = 0.0455 (at node 1)
	maximum = 0.055 (at node 6)
Injected flit rate average = 0.0505312
	minimum = 0.046 (at node 4)
	maximum = 0.0555 (at node 3)
Accepted flit rate average= 0.0504687
	minimum = 0.0455 (at node 1)
	maximum = 0.055 (at node 6)
Injected packet length average = 1
Accepted packet length average = 1
Total in-flight flits = 17 (17 measured)
latency change    = 0.00886831
throughput change = 0.00557276
Class 0:
Packet latency average = 19.5272
	minimum = 7
	maximum = 42
Network latency average = 19.5272
	minimum = 7
	maximum = 42
Slowest packet = 507373
Flit latency average = 19.5491
	minimum = 7
	maximum = 42
Slowest flit = 507373
Fragmentation average = 0
	minimum = 0
	maximum = 0
Injected packet rate average = 0.049625
	minimum = 0.0443333 (at node 4)
	maximum = 0.0536667 (at node 9)
Accepted packet rate average = 0.049625
	minimum = 0.0446667 (at node 1)
	maximum = 0.054 (at node 6)
Injected flit rate average = 0.049625
	minimum = 0.0443333 (at node 4)
	maximum = 0.0536667 (at node 9)
Accepted flit rate average= 0.049625
	minimum = 0.0446667 (at node 1)
	maximum = 0.054 (at node 6)
Injected packet length average = 1
Accepted packet length average = 1
Total in-flight flits = 15 (15 measured)
latency change    = 0.00596604
throughput change = 0.0170025
Draining all recorded packets ...
Draining remaining packets ...
Time taken is 6065 cycles
Class 0:
Packet latency average = 19.6899
	minimum = 7
	maximum = 46
Network latency average = 19.6899
	minimum = 7
	maximum = 46
Slowest packet = 508825
Flit latency average = 19.6899
	minimum = 7
	maximum = 46
Slowest flit = 508825
Fragmentation average = 0
	minimum = 0
	maximum = 0
Injected packet rate average = 0.0485
	minimum = 0.041 (at node 9)
	maximum = 0.058 (at node 3)
Accepted packet rate average = 0.0475625
	minimum = 0.04 (at node 13)
	maximum = 0.058 (at node 5)
Injected flit rate average = 0.0485
	minimum = 0.041 (at node 9)
	maximum = 0.058 (at node 3)
Accepted flit rate average= 0.0475625
	minimum = 0.04 (at node 13)
	maximum = 0.058 (at node 5)
Injected packet length average = 1
Accepted packet length average = 1
Total in-flight flits = 15 (0 measured)
latency change    = 1
throughput change = 1
Class 0:
Packet latency average = 19.614
	minimum = 7
	maximum = 46
Network latency average = 19.614
	minimum = 7
	maximum = 46
Slowest packet = 508825
Flit latency average = 19.614
	minimum = 7
	maximum = 46
Slowest flit = 508825
Fragmentation average = 0
	minimum = 0
	maximum = 0
Injected packet rate average = 0.0485937
	minimum = 0.0425 (at node 9)
	maximum = 0.0555 (at node 1)
Accepted packet rate average = 0.04825
	minimum = 0.042 (at node 6)
	maximum = 0.0555 (at node 4)
Injected flit rate average = 0.0485937
	minimum = 0.0425 (at node 9)
	maximum = 0.0555 (at node 1)
Accepted flit rate average= 0.04825
	minimum = 0.042 (at node 6)
	maximum = 0.0555 (at node 4)
Injected packet length average = 1
Accepted packet length average = 1
Total in-flight flits = 11 (0 measured)
latency change    = 0.00386928
throughput change = 0.0142487
Class 0:
Packet latency average = 19.7673
	minimum = 7
	maximum = 38
Network latency average = 19.7673
	minimum = 7
	maximum = 38
Slowest packet = 510482
Flit latency average = 19.7673
	minimum = 7
	maximum = 38
Slowest flit = 510482
Fragmentation average = 0
	minimum = 0
	maximum = 0
Injected packet rate average = 0.0516875
	minimum = 0.04 (at node 1)
	maximum = 0.063 (at node 10)
Accepted packet rate average = 0.0515625
	minimum = 0.04 (at node 4)
	maximum = 0.065 (at node 10)
Injected flit rate average = 0.0516875
	minimum = 0.04 (at node 1)
	maximum = 0.063 (at node 10)
Accepted flit rate average= 0.0515625
	minimum = 0.04 (at node 4)
	maximum = 0.065 (at node 10)
Injected packet length average = 1
Accepted packet length average = 1
Total in-flight flits = 13 (0 measured)
latency change    = 0.00775439
throughput change = 0.0642424
Warmed up ...Time used is 3000 cycles
Class 0:
Packet latency average = 18.9529
	minimum = 7
	maximum = 43
Network latency average = 18.9529
	minimum = 7
	maximum = 43
Slowest packet = 511569
Flit latency average = 19.0682
	minimum = 7
	maximum = 43
Slowest flit = 511569
Fragmentation average = 0
	minimum = 0
	maximum = 0
Injected packet rate average = 0.049125
	minimum = 0.037 (at node 13)
	maximum = 0.064 (at node 6)
Accepted packet rate average = 0.0485625
	minimum = 0.036 (at node 3)
	maximum = 0.063 (at node 9)
Injected flit rate average = 0.049125
	minimum = 0.037 (at node 13)
	maximum = 0.064 (at node 6)
Accepted flit rate average= 0.0485625
	minimum = 0.036 (at node 3)
	maximum = 0.063 (at node 9)
Injected packet length average = 1
Accepted packet length average = 1
Total in-flight flits = 22 (22 measured)
latency change    = 0.0429694
throughput change = 0.0617761
Class 0:
Packet latency average = 19.6943
	minimum = 7
	maximum = 43
Network latency average = 19.6943
	minimum = 7
	maximum = 43
Slowest packet = 511569
Flit latency average = 19.7444
	minimum = 7
	maximum = 43
Slowest flit = 511569
Fragmentation average = 0
	minimum = 0
	maximum = 0
Injected packet rate average = 0.049875
	minimum = 0.042 (at node 15)
	maximum = 0.06 (at node 6)
Accepted packet rate average = 0.049875
	minimum = 0.0415 (at node 15)
	maximum = 0.0605 (at node 9)
Injected flit rate average = 0.049875
	minimum = 0.042 (at node 15)
	maximum = 0.06 (at node 6)
Accepted flit rate average= 0.049875
	minimum = 0.0415 (at node 15)
	maximum = 0.0605 (at node 9)
Injected packet length average = 1
Accepted packet length average = 1
Total in-flight flits = 13 (13 measured)
latency change    = 0.0376441
throughput change = 0.0263158
Class 0:
Packet latency average = 19.6944
	minimum = 7
	maximum = 51
Network latency average = 19.6944
	minimum = 7
	maximum = 51
Slowest packet = 512738
Flit latency average = 19.7282
	minimum = 7
	maximum = 51
Slowest flit = 512738
Fragmentation average = 0
	minimum = 0
	maximum = 0
Injected packet rate average = 0.0493333
	minimum = 0.041 (at node 5)
	maximum = 0.0553333 (at node 6)
Accepted packet rate average = 0.0492917
	minimum = 0.0416667 (at node 5)
	maximum = 0.0556667 (at node 9)
Injected flit rate average = 0.0493333
	minimum = 0.041 (at node 5)
	maximum = 0.0553333 (at node 6)
Accepted flit rate average= 0.0492917
	minimum = 0.0416667 (at node 5)
	maximum = 0.0556667 (at node 9)
Injected packet length average = 1
Accepted packet length average = 1
Total in-flight flits = 15 (15 measured)
latency change    = 9.20148e-06
throughput change = 0.0118343
Class 0:
Packet latency average = 19.5124
	minimum = 7
	maximum = 51
Network latency average = 19.5124
	minimum = 7
	maximum = 51
Slowest packet = 512738
Flit latency average = 19.5388
	minimum = 7
	maximum = 51
Slowest flit = 512738
Fragmentation average = 0
	minimum = 0
	maximum = 0
Injected packet rate average = 0.0488281
	minimum = 0.04175 (at node 5)
	maximum = 0.0565 (at node 6)
Accepted packet rate average = 0.04875
	minimum = 0.04225 (at node 5)
	maximum = 0.05625 (at node 9)
Injected flit rate average = 0.0488281
	minimum = 0.04175 (at node 5)
	maximum = 0.0565 (at node 6)
Accepted flit rate average= 0.04875
	minimum = 0.04225 (at node 5)
	maximum = 0.05625 (at node 9)
Injected packet length average = 1
Accepted packet length average = 1
Total in-flight flits = 18 (18 measured)
latency change    = 0.00932952
throughput change = 0.0111111
Draining all recorded packets ...
Draining remaining packets ...
Time taken is 7070 cycles
====== Overall Traffic Statistics ======
====== Traffic class 0 ======
Packet latency average = 19.5989 (100 samples)
	minimum = 7 (100 samples)
	maximum = 44.67 (100 samples)
Network latency average = 19.5989 (100 samples)
	minimum = 7 (100 samples)
	maximum = 44.67 (100 samples)
Flit latency average = 19.63 (100 samples)
	minimum = 7 (100 samples)
	maximum = 44.71 (100 samples)
Fragmentation average = 0 (100 samples)
	minimum = 0 (100 samples)
	maximum = 0 (100 samples)
Injected packet rate average = 0.0500406 (100 samples)
	minimum = 0.0433612 (100 samples)
	maximum = 0.0571115 (100 samples)
Accepted packet rate average = 0.0500337 (100 samples)
	minimum = 0.0433793 (100 samples)
	maximum = 0.0571243 (100 samples)
Injected flit rate average = 0.0500406 (100 samples)
	minimum = 0.0433612 (100 samples)
	maximum = 0.0571115 (100 samples)
Accepted flit rate average = 0.0500337 (100 samples)
	minimum = 0.0433793 (100 samples)
	maximum = 0.0571243 (100 samples)
Injected packet size average = 1 (100 samples)
Accepted packet size average = 1 (100 samples)
Hops average = 3.50256 (100 samples)
Total run time 7.91665
