BEGIN Configuration File: /tmp/bs_1138183_941161.cfg
topology = mesh;
k = 4;
n = 2;
routing_function = adaptive_xy_yx;
num_vcs = 4;
vc_buf_size = 4;
wait_for_tail_credit = 1;
vc_allocator = islip;
sw_allocator = islip;
alloc_iters = 1;
credit_delay = 2;
routing_delay = 1;
vc_alloc_delay = 1;
sw_alloc_delay = 1;
input_speedup = 2;
output_speedup = 1;
internal_speedup = 1.0;
traffic = uniform;
packet_size = 1;
sim_type = latency;
injection_rate = 0.1;
warmup_periods = 3;
sample_period = 1000;
sim_count = 100;
seed = 2;

END Configuration File: /tmp/bs_1138183_941161.cfg
Class 0:
Packet latency average = 19.8125
	minimum = 7
	maximum = 52
Network latency average = 19.8119
	minimum = 7
	maximum = 52
Slowest packet = 374
Flit latency average = 19.8119
	minimum = 7
	maximum = 52
Slowest flit = 374
Fragmentation average = 0
	minimum = 0
	maximum = 0
Injected packet rate average = 0.097875
	minimum = 0.077 (at node 9)
	maximum = 0.116 (at node 6)
Accepted packet rate average = 0.0956875
	minimum = 0.085 (at node 0)
	maximum = 0.118 (at node 5)
Injected flit rate average = 0.097875
	minimum = 0.077 (at node 9)
	maximum = 0.116 (at node 6)
Accepted flit rate average= 0.0956875
	minimum = 0.085 (at node 0)
	maximum = 0.118 (at node 5)
Injected packet length average = 1
Accepted packet length average = 1
Total in-flight flits = 35 (0 measured)
latency change    = 1
throughput change = 1
Class 0:
Packet latency average = 19.815
	minimum = 7
	maximum = 56
Network latency average = 19.8141
	minimum = 7
	maximum = 56
Slowest packet = 2502
Flit latency average = 19.8141
	minimum = 7
	maximum = 56
Slowest flit = 2502
Fragmentation average = 0
	minimum = 0
	maximum = 0
Injected packet rate average = 0.0997187
	minimum = 0.084 (at node 1)
	maximum = 0.1205 (at node 10)
Accepted packet rate average = 0.0986563
	minimum = 0.088 (at node 14)
	maximum = 0.111 (at node 5)
Injected flit rate average = 0.0997187
	minimum = 0.084 (at node 1)
	maximum = 0.1205 (at node 10)
Accepted flit rate average= 0.0986563
	minimum = 0.088 (at node 14)
	maximum = 0.111 (at node 5)
Injected packet length average = 1
Accepted packet length average = 1
Total in-flight flits = 34 (0 measured)
latency change    = 0.000124826
throughput change = 0.0300919
Class 0:
Packet latency average = 20.1207
	minimum = 7
	maximum = 46
Network latency average = 20.1207
	minimum = 7
	maximum = 46
Slowest packet = 4395
Flit latency average = 20.1207
	minimum = 7
	maximum = 46
Slowest flit = 4395
Fragmentation average = 0
	minimum = 0
	maximum = 0
Injected packet rate average = 0.0983125
	minimum = 0.086 (at node 6)
	maximum = 0.119 (at node 10)
Accepted packet rate average = 0.097875
	minimum = 0.081 (at node 15)
	maximum = 0.125 (at node 10)
Injected flit rate average = 0.0983125
	minimum = 0.086 (at node 6)
	maximum = 0.119 (at node 10)
Accepted flit rate average= 0.097875
	minimum = 0.081 (at node 15)
	maximum = 0.125 (at node 10)
Injected packet length average = 1
Accepted packet length average = 1
Total in-flight flits = 41 (0 measured)
latency change    = 0.0151921
throughput change = 0.00798212
Warmed up ...Time used is 3000 cycles
Class 0:
Packet latency average = 20.0191
	minimum = 7
	maximum = 48
Network latency average = 20.0172
	minimum = 7
	maximum = 48
Slowest packet = 5453
Flit latency average = 20.0649
	minimum = 7
	maximum = 48
Slowest flit = 5453
Fragmentation average = 0
	minimum = 0
	maximum = 0
Injected packet rate average = 0.103875
	minimum = 0.085 (at node 1)
	maximum = 0.12 (at node 10)
Accepted packet rate average = 0.104063
	minimum = 0.095 (at node 11)
	maximum = 0.132 (at node 2)
Injected flit rate average = 0.103875
	minimum = 0.085 (at node 1)
	maximum = 0.12 (at node 10)
Accepted flit rate average= 0.104063
	minimum = 0.095 (at node 11)
	maximum = 0.132 (at node 2)
Injected packet length average = 1
Accepted packet length average = 1
Total in-flight flits = 38 (38 measured)
latency change    = 0.00507521
throughput change = 0.0594595
Class 0:
Packet latency average = 19.959
	minimum = 7
	maximum = 48
Network latency average = 19.9572
	minimum = 7
	maximum = 48
Slowest packet = 5453
Flit latency average = 19.9817
	minimum = 7
	maximum = 48
Slowest flit = 5453
Fragmentation average = 0
	minimum = 0
	maximum = 0
Injected packet rate average = 0.104219
	minimum = 0.094 (at node 2)
	maximum = 0.111 (at node 6)
Accepted packet rate average = 0.10425
	minimum = 0.0905 (at node 0)
	maximum = 0.1155 (at node 15)
Injected flit rate average = 0.104219
	minimum = 0.094 (at node 2)
	maximum = 0.111 (at node 6)
Accepted flit rate average= 0.10425
	minimum = 0.0905 (at node 0)
	maximum = 0.1155 (at node 15)
Injected packet length average = 1
Accepted packet length average = 1
Total in-flight flits = 40 (40 measured)
latency change    = 0.00300916
throughput change = 0.00179856
Class 0:
Packet latency average = 19.9333
	minimum = 7
	maximum = 49
Network latency average = 19.9306
	minimum = 7
	maximum = 49
Slowest packet = 9283
Flit latency average = 19.9474
	minimum = 7
	maximum = 49
Slowest flit = 9283
Fragmentation average = 0
	minimum = 0
	maximum = 0
Injected packet rate average = 0.102354
	minimum = 0.0963333 (at node 9)
	maximum = 0.109 (at node 7)
Accepted packet rate average = 0.102625
	minimum = 0.0936667 (at node 13)
	maximum = 0.110667 (at node 5)
Injected flit rate average = 0.102354
	minimum = 0.0963333 (at node 9)
	maximum = 0.109 (at node 7)
Accepted flit rate average= 0.102625
	minimum = 0.0936667 (at node 13)
	maximum = 0.110667 (at node 5)
Injected packet length average = 1
Accepted packet length average = 1
Total in-flight flits = 28 (28 measured)
latency change    = 0.0012925
throughput change = 0.0158343
Class 0:
Packet latency average = 19.9015
	minimum = 7
	maximum = 49
Network latency average = 19.8992
	minimum = 7
	maximum = 49
Slowest packet = 9283
Flit latency average = 19.9122
	minimum = 7
	maximum = 49
Slowest flit = 9283
Fragmentation average = 0
	minimum = 0
	maximum = 0
Injected packet rate average = 0.101219
	minimum = 0.095 (at node 12)
	maximum = 0.1075 (at node 7)
Accepted packet rate average = 0.101203
	minimum = 0.09525 (at node 8)
	maximum = 0.11 (at node 4)
Injected flit rate average = 0.101219
	minimum = 0.095 (at node 12)
	maximum = 0.1075 (at node 7)
Accepted flit rate average= 0.101203
	minimum = 0.09525 (at node 8)
	maximum = 0.11 (at node 4)
Injected packet length average = 1
Accepted packet length average = 1
Total in-flight flits = 42 (42 measured)
latency change    = 0.00159654
throughput change = 0.0140497
Draining all recorded packets ...
Draining remaining packets ...
Time taken is 7056 cycles
Class 0:
Packet latency average = 20.01
	minimum = 7
	maximum = 44
Network latency average = 20.0088
	minimum = 7
	maximum = 44
Slowest packet = 12631
Flit latency average = 20.0088
	minimum = 7
	maximum = 44
Slowest flit = 12631
Fragmentation average = 0
	minimum = 0
	maximum = 0
Injected packet rate average = 0.101813
	minimum = 0.086 (at node 9)
	maximum = 0.115 (at node 12)
Accepted packet rate average = 0.0996875
	minimum = 0.082 (at node 14)
	maximum = 0.118 (at node 2)
Injected flit rate average = 0.101813
	minimum = 0.086 (at node 9)
	maximum = 0.115 (at node 12)
Accepted flit rate average= 0.0996875
	minimum = 0.082 (at node 14)
	maximum = 0.118 (at node 2)
Injected packet length average = 1
Accepted packet length average = 1
Total in-flight flits = 34 (0 measured)
latency change    = 1
throughput change = 1
Class 0:
Packet latency average = 19.9582
	minimum = 7
	maximum = 45
Network latency average = 19.9572
	minimum = 7
	maximum = 45
Slowest packet = 13467
Flit latency average = 19.9572
	minimum = 7
	maximum = 45
Slowest flit = 13467
Fragmentation average = 0
	minimum = 0
	maximum = 0
Injected packet rate average = 0.0996875
	minimum = 0.0865 (at node 6)
	maximum = 0.1105 (at node 15)
Accepted packet rate average = 0.0985937
	minimum = 0.0885 (at node 14)
	maximum = 0.1125 (at node 4)
Injected flit rate average = 0.0996875
	minimum = 0.0865 (at node 6)
	maximum = 0.1105 (at node 15)
Accepted flit rate average= 0.0985937
	minimum = 0.0885 (at node 14)
	maximum = 0.1125 (at node 4)
Injected packet length average = 1
Accepted packet length average = 1
Total in-flight flits = 35 (0 measured)
latency change    = 0.00259892
throughput change = 0.0110935
Class 0:
Packet latency average = 20.0062
	minimum = 7
	maximum = 53
Network latency average = 20.0056
	minimum = 7
	maximum = 53
Slowest packet = 14454
Flit latency average = 20.0056
	minimum = 7
	maximum = 53
Slowest flit = 14454
Fragmentation average = 0
	minimum = 0
	maximum = 0
Injected packet rate average = 0.101062
	minimum = 0.089 (at node 13)
	maximum = 0.115 (at node 7)
Accepted packet rate average = 0.10125
	minimum = 0.084 (at node 3)
	maximum = 0.121 (at node 13)
Injected flit rate average = 0.101062
	minimum = 0.089 (at node 13)
	maximum = 0.115 (at node 7)
Accepted flit rate average= 0.10125
	minimum = 0.084 (at node 3)
	maximum = 0.121 (at node 13)
Injected packet length average = 1
Accepted packet length average = 1
Total in-flight flits = 32 (0 measured)
latency change    = 0.00239982
throughput change = 0.0262346
Warmed up ...Time used is 3000 cycles
Class 0:
Packet latency average = 19.7637
	minimum = 7
	maximum = 45
Network latency average = 19.7637
	minimum = 7
	maximum = 45
Slowest packet = 16967
Flit latency average = 19.819
	minimum = 7
	maximum = 45
Slowest flit = 16967
Fragmentation average = 0
	minimum = 0
	maximum = 0
Injected packet rate average = 0.101375
	minimum = 0.084 (at node 3)
	maximum = 0.119 (at node 12)
Accepted packet rate average = 0.101187
	minimum = 0.081 (at node 6)
	maximum = 0.116 (at node 11)
Injected flit rate average = 0.101375
	minimum = 0.084 (at node 3)
	maximum = 0.119 (at node 12)
Accepted flit rate average= 0.101187
	minimum = 0.081 (at node 6)
	maximum = 0.116 (at node 11)
Injected packet length average = 1
Accepted packet length average = 1
Total in-flight flits = 35 (35 measured)
latency change    = 0.0122683
throughput change = 0.000617665
Class 0:
Packet latency average = 19.8868
	minimum = 7
	maximum = 47
Network latency average = 19.8855
	minimum = 7
	maximum = 47
Slowest packet = 19275
Flit latency average = 19.9118
	minimum = 7
	maximum = 47
Slowest flit = 19275
Fragmentation average = 0
	minimum = 0
	maximum = 0
Injected packet rate average = 0.102031
	minimum = 0.0935 (at node 15)
	maximum = 0.113 (at node 12)
Accepted packet rate average = 0.102
	minimum = 0.0865 (at node 6)
	maximum = 0.116 (at node 8)
Injected flit rate average = 0.102031
	minimum = 0.0935 (at node 15)
	maximum = 0.113 (at node 12)
Accepted flit rate average= 0.102
	minimum = 0.0865 (at node 6)
	maximum = 0.116 (at node 8)
Injected packet length average = 1
Accepted packet length average = 1
Total in-flight flits = 33 (33 measured)
latency change    = 0.00618765
throughput change = 0.00796569
Class 0:
Packet latency average = 19.9406
	minimum = 7
	maximum = 47
Network latency average = 19.9396
	minimum = 7
	maximum = 47
Slowest packet = 19275
Flit latency average = 19.9569
	minimum = 7
	maximum = 47
Slowest flit = 19275
Fragmentation average = 0
	minimum = 0
	maximum = 0
Injected packet rate average = 0.100604
	minimum = 0.094 (at node 3)
	maximum = 0.108667 (at node 12)
Accepted packet rate average = 0.100625
	minimum = 0.0903333 (at node 6)
	maximum = 0.108 (at node 8)
Injected flit rate average = 0.100604
	minimum = 0.094 (at node 3)
	maximum = 0.108667 (at node 12)
Accepted flit rate average= 0.100625
	minimum = 0.0903333 (at node 6)
	maximum = 0.108 (at node 8)
Injected packet length average = 1
Accepted packet length average = 1
Total in-flight flits = 31 (31 measured)
latency change    = 0.00270016
throughput change = 0.0136646
Draining all recorded packets ...
Draining remaining packets ...
Time taken is 6062 cycles
Class 0:
Packet latency average = 19.8122
	minimum = 7
	maximum = 49
Network latency average = 19.8115
	minimum = 7
	maximum = 49
Slowest packet = 22159
Flit latency average = 19.8115
	minimum = 7
	maximum = 49
Slowest flit = 22159
Fragmentation average = 0
	minimum = 0
	maximum = 0
Injected packet rate average = 0.0988125
	minimum = 0.078 (at node 0)
	maximum = 0.12 (at node 14)
Accepted packet rate average = 0.0975
	minimum = 0.081 (at node 2)
	maximum = 0.118 (at node 6)
Injected flit rate average = 0.0988125
	minimum = 0.078 (at node 0)
	maximum = 0.12 (at node 14)
Accepted flit rate average= 0.0975
	minimum = 0.081 (at node 2)
	maximum = 0.118 (at node 6)
Injected packet length average = 1
Accepted packet length average = 1
Total in-flight flits = 21 (0 measured)
latency change    = 1
throughput change = 1
Class 0:
Packet latency average = 19.7984
	minimum = 7
	maximum = 49
Network latency average = 19.7978
	minimum = 7
	maximum = 49
Slowest packet = 22159
Flit latency average = 19.7978
	minimum = 7
	maximum = 49
Slowest flit = 22159
Fragmentation average = 0
	minimum = 0
	maximum = 0
Injected packet rate average = 0.0989063
	minimum = 0.091 (at node 3)
	maximum = 0.1075 (at node 10)
Accepted packet rate average = 0.0978125
	minimum = 0.082 (at node 2)
	maximum = 0.1045 (at node 0)
Injected flit rate average = 0.0989063
	minimum = 0.091 (at node 3)
	maximum = 0.1075 (at node 10)
Accepted flit rate average= 0.0978125
	minimum = 0.082 (at node 2)
	maximum = 0.1045 (at node 0)
Injected packet length average = 1
Accepted packet length average = 1
Total in-flight flits = 35 (0 measured)
latency change    = 0.000695861
throughput change = 0.00319489
Class 0:
Packet latency average = 20.156
	minimum = 7
	maximum = 48
Network latency average = 20.1554
	minimum = 7
	maximum = 48
Slowest packet = 24157
Flit latency average = 20.1554
	minimum = 7
	maximum = 48
Slowest flit = 24157
Fragmentation average = 0
	minimum = 0
	maximum = 0
Injected packet rate average = 0.105875
	minimum = 0.088 (at node 10)
	maximum = 0.125 (at node 1)
Accepted packet rate average = 0.105375
	minimum = 0.093 (at node 14)
	maximum = 0.128 (at node 0)
Injected flit rate average = 0.105875
	minimum = 0.088 (at node 10)
	maximum = 0.125 (at node 1)
Accepted flit rate average= 0.105375
	minimum = 0.093 (at node 14)
	maximum = 0.128 (at node 0)
Injected packet length average = 1
Accepted packet length average = 1
Total in-flight flits = 43 (0 measured)
latency change    = 0.017741
throughput change = 0.0717675
Warmed up ...Time used is 3000 cycles
Class 0:
Packet latency average = 19.717
	minimum = 7
	maximum = 46
Network latency average = 19.7118
	minimum = 7
	maximum = 46
Slowest packet = 26348
Flit latency average = 19.8214
	minimum = 7
	maximum = 46
Slowest flit = 26348
Fragmentation average = 0
	minimum = 0
	maximum = 0
Injected packet rate average = 0.0975
	minimum = 0.086 (at node 1)
	maximum = 0.115 (at node 8)
Accepted packet rate average = 0.0983125
	minimum = 0.086 (at node 2)
	maximum = 0.123 (at node 11)
Injected flit rate average = 0.0975
	minimum = 0.086 (at node 1)
	maximum = 0.115 (at node 8)
Accepted flit rate average= 0.0983125
	minimum = 0.086 (at node 2)
	maximum = 0.123 (at node 11)
Injected packet length average = 1
Accepted packet length average = 1
Total in-flight flits = 30 (30 measured)
latency change    = 0.0222649
throughput change = 0.0718373
Class 0:
Packet latency average = 19.7616
	minimum = 7
	maximum = 46
Network latency average = 19.7574
	minimum = 7
	maximum = 46
Slowest packet = 26348
Flit latency average = 19.8107
	minimum = 7
	maximum = 46
Slowest flit = 26348
Fragmentation average = 0
	minimum = 0
	maximum = 0
Injected packet rate average = 0.0997187
	minimum = 0.09 (at node 12)
	maximum = 0.1095 (at node 8)
Accepted packet rate average = 0.100031
	minimum = 0.081 (at node 2)
	maximum = 0.117 (at node 11)
Injected flit rate average = 0.0997187
	minimum = 0.09 (at node 12)
	maximum = 0.1095 (at node 8)
Accepted flit rate average= 0.100031
	minimum = 0.081 (at node 2)
	maximum = 0.117 (at node 11)
Injected packet length average = 1
Accepted packet length average = 1
Total in-flight flits = 33 (33 measured)
latency change    = 0.00225511
throughput change = 0.0171821
Class 0:
Packet latency average = 19.9351
	minimum = 7
	maximum = 46
Network latency average = 19.9324
	minimum = 7
	maximum = 46
Slowest packet = 26348
Flit latency average = 19.9666
	minimum = 7
	maximum = 46
Slowest flit = 26348
Fragmentation average = 0
	minimum = 0
	maximum = 0
Injected packet rate average = 0.0988333
	minimum = 0.0893333 (at node 3)
	maximum = 0.108 (at node 8)
Accepted packet rate average = 0.0991667
	minimum = 0.0856667 (at node 2)
	maximum = 0.109667 (at node 11)
Injected flit rate average = 0.0988333
	minimum = 0.0893333 (at node 3)
	maximum = 0.108 (at node 8)
Accepted flit rate average= 0.0991667
	minimum = 0.0856667 (at node 2)
	maximum = 0.109667 (at node 11)
Injected packet length average = 1
Accepted packet length average = 1
Total in-flight flits = 27 (27 measured)
latency change    = 0.00870676
throughput change = 0.00871849
Class 0:
Packet latency average = 19.9287
	minimum = 7
	maximum = 46
Network latency average = 19.9265
	minimum = 7
	maximum = 46
Slowest packet = 26348
Flit latency average = 19.9523
	minimum = 7
	maximum = 46
Slowest flit = 26348
Fragmentation average = 0
	minimum = 0
	maximum = 0
Injected packet rate average = 0.0984219
	minimum = 0.089 (at node 3)
	maximum = 0.10725 (at node 8)
Accepted packet rate average = 0.0986875
	minimum = 0.0875 (at node 2)
	maximum = 0.10825 (at node 11)
Injected flit rate average = 0.0984219
	minimum = 0.089 (at node 3)
	maximum = 0.10725 (at node 8)
Accepted flit rate average= 0.0986875
	minimum = 0.0875 (at node 2)
	maximum = 0.10825 (at node 11)
Injected packet length average = 1
Accepted packet length average = 1
Total in-flight flits = 26 (26 measured)
latency change    = 0.000320443
throughput change = 0.00485539
Draining all recorded packets ...
Draining remaining packets ...
Time taken is 7058 cycles
Class 0:
Packet latency average = 20.1298
	minimum = 7
	maximum = 42
Network latency average = 20.1278
	minimum = 7
	maximum = 42
Slowest packet = 33422
Flit latency average = 20.1278
	minimum = 7
	maximum = 42
Slowest flit = 33422
Fragmentation average = 0
	minimum = 0
	maximum = 0
Injected packet rate average = 0.0970625
	minimum = 0.081 (at node 13)
	maximum = 0.116 (at node 11)
Accepted packet rate average = 0.094875
	minimum = 0.077 (at node 10)
	maximum = 0.11 (at node 6)
Injected flit rate average = 0.0970625
	minimum = 0.081 (at node 13)
	maximum = 0.116 (at node 11)
Accepted flit rate average= 0.094875
	minimum = 0.077 (at node 10)
	maximum = 0.11 (at node 6)
Injected packet length average = 1
Accepted packet length average = 1
Total in-flight flits = 35 (0 measured)
latency change    = 1
throughput change = 1
Class 0:
Packet latency average = 19.9907
	minimum = 7
	maximum = 44
Network latency average = 19.9898
	minimum = 7
	maximum = 44
Slowest packet = 34139
Flit latency average = 19.9898
	minimum = 7
	maximum = 44
Slowest flit = 34139
Fragmentation average = 0
	minimum = 0
	maximum = 0
Injected packet rate average = 0.09875
	minimum = 0.0895 (at node 14)
	maximum = 0.1135 (at node 11)
Accepted packet rate average = 0.0979375
	minimum = 0.09 (at node 2)
	maximum = 0.108 (at node 3)
Injected flit rate average = 0.09875
	minimum = 0.0895 (at node 14)
	maximum = 0.1135 (at node 11)
Accepted flit rate average= 0.0979375
	minimum = 0.09 (at node 2)
	maximum = 0.108 (at node 3)
Injected packet length average = 1
Accepted packet length average = 1
Total in-flight flits = 26 (0 measured)
latency change    = 0.00695469
throughput change = 0.0312699
Class 0:
Packet latency average = 20.2406
	minimum = 7
	maximum = 52
Network latency average = 20.2381
	minimum = 7
	maximum = 52
Slowest packet = 35537
Flit latency average = 20.2381
	minimum = 7
	maximum = 52
Slowest flit = 35537
Fragmentation average = 0
	minimum = 0
	maximum = 0
Injected packet rate average = 0.10025
	minimum = 0.087 (at node 2)
	maximum = 0.116 (at node 1)
Accepted packet rate average = 0.09975
	minimum = 0.076 (at node 3)
	maximum = 0.117 (at node 0)
Injected flit rate average = 0.10025
	minimum = 0.087 (at node 2)
	maximum = 0.116 (at node 1)
Accepted flit rate average= 0.09975
	minimum = 0.076 (at node 3)
	maximum = 0.117 (at node 0)
Injected packet length average = 1
Accepted packet length average = 1
Total in-flight flits = 34 (0 measured)
latency change    = 0.0123442
throughput change = 0.0181704
Warmed up ...Time used is 3000 cycles
Class 0:
Packet latency average = 20.2414
	minimum = 7
	maximum = 42
Network latency average = 20.2414
	minimum = 7
	maximum = 42
Slowest packet = 37238
Flit latency average = 20.3027
	minimum = 7
	maximum = 42
Slowest flit = 37238
Fragmentation average = 0
	minimum = 0
	maximum = 0
Injected packet rate average = 0.100687
	minimum = 0.085 (at node 2)
	maximum = 0.119 (at node 12)
Accepted packet rate average = 0.10075
	minimum = 0.077 (at node 10)
	maximum = 0.117 (at node 14)
Injected flit rate average = 0.100687
	minimum = 0.085 (at node 2)
	maximum = 0.119 (at node 12)
Accepted flit rate average= 0.10075
	minimum = 0.077 (at node 10)
	maximum = 0.117 (at node 14)
Injected packet length average = 1
Accepted packet length average = 1
Total in-flight flits = 33 (33 measured)
latency change    = 4.16652e-05
throughput change = 0.00992556
Class 0:
Packet latency average = 20.1222
	minimum = 7
	maximum = 48
Network latency average = 20.1219
	minimum = 7
	maximum = 48
Slowest packet = 39762
Flit latency average = 20.1542
	minimum = 7
	maximum = 48
Slowest flit = 39762
Fragmentation average = 0
	minimum = 0
	maximum = 0
Injected packet rate average = 0.099375
	minimum = 0.085 (at node 5)
	maximum = 0.112 (at node 10)
Accepted packet rate average = 0.0995313
	minimum = 0.0845 (at node 10)
	maximum = 0.1155 (at node 14)
Injected flit rate average = 0.099375
	minimum = 0.085 (at node 5)
	maximum = 0.112 (at node 10)
Accepted flit rate average= 0.0995313
	minimum = 0.0845 (at node 10)
	maximum = 0.1155 (at node 14)
Injected packet length average = 1
Accepted packet length average = 1
Total in-flight flits = 29 (29 measured)
latency change    = 0.00592686
throughput change = 0.0122449
Class 0:
Packet latency average = 20.051
	minimum = 7
	maximum = 49
Network latency average = 20.0508
	minimum = 7
	maximum = 49
Slowest packet = 41532
Flit latency average = 20.073
	minimum = 7
	maximum = 49
Slowest flit = 41532
Fragmentation average = 0
	minimum = 0
	maximum = 0
Injected packet rate average = 0.0989167
	minimum = 0.0873333 (at node 5)
	maximum = 0.110667 (at node 6)
Accepted packet rate average = 0.0990625
	minimum = 0.0873333 (at node 1)
	maximum = 0.110333 (at node 14)
Injected flit rate average = 0.0989167
	minimum = 0.0873333 (at node 5)
	maximum = 0.110667 (at node 6)
Accepted flit rate average= 0.0990625
	minimum = 0.0873333 (at node 1)
	maximum = 0.110333 (at node 14)
Injected packet length average = 1
Accepted packet length average = 1
Total in-flight flits = 27 (27 measured)
latency change    = 0.00354769
throughput change = 0.00473186
Draining all recorded packets ...
Draining remaining packets ...
Time taken is 6053 cycles
Class 0:
Packet latency average = 20.063
	minimum = 7
	maximum = 44
Network latency average = 20.0623
	minimum = 7
	maximum = 44
Slowest packet = 42269
Flit latency average = 20.0623
	minimum = 7
	maximum = 44
Slowest flit = 42269
Fragmentation average = 0
	minimum = 0
	maximum = 0
Injected packet rate average = 0.0993125
	minimum = 0.079 (at node 9)
	maximum = 0.114 (at node 7)
Accepted packet rate average = 0.09725
	minimum = 0.082 (at node 2)
	maximum = 0.111 (at node 13)
Injected flit rate average = 0.0993125
	minimum = 0.079 (at node 9)
	maximum = 0.114 (at node 7)
Accepted flit rate average= 0.09725
	minimum = 0.082 (at node 2)
	maximum = 0.111 (at node 13)
Injected packet length average = 1
Accepted packet length average = 1
Total in-flight flits = 33 (0 measured)
latency change    = 1
throughput change = 1
Class 0:
Packet latency average = 19.9586
	minimum = 7
	maximum = 47
Network latency average = 19.9583
	minimum = 7
	maximum = 47
Slowest packet = 44467
Flit latency average = 19.9583
	minimum = 7
	maximum = 47
Slowest flit = 44467
Fragmentation average = 0
	minimum = 0
	maximum = 0
Injected packet rate average = 0.100219
	minimum = 0.083 (at node 3)
	maximum = 0.1115 (at node 14)
Accepted packet rate average = 0.0996563
	minimum = 0.086 (at node 6)
	maximum = 0.113 (at node 3)
Injected flit rate average = 0.100219
	minimum = 0.083 (at node 3)
	maximum = 0.1115 (at node 14)
Accepted flit rate average= 0.0996563
	minimum = 0.086 (at node 6)
	maximum = 0.113 (at node 3)
Injected packet length average = 1
Accepted packet length average = 1
Total in-flight flits = 18 (0 measured)
latency change    = 0.00522954
throughput change = 0.0241455
Class 0:
Packet latency average = 19.9179
	minimum = 7
	maximum = 42
Network latency average = 19.9173
	minimum = 7
	maximum = 42
Slowest packet = 46437
Flit latency average = 19.9173
	minimum = 7
	maximum = 42
Slowest flit = 46437
Fragmentation average = 0
	minimum = 0
	maximum = 0
Injected packet rate average = 0.10275
	minimum = 0.082 (at node 6)
	maximum = 0.123 (at node 15)
Accepted packet rate average = 0.102063
	minimum = 0.079 (at node 7)
	maximum = 0.119 (at node 15)
Injected flit rate average = 0.10275
	minimum = 0.082 (at node 6)
	maximum = 0.123 (at node 15)
Accepted flit rate average= 0.102063
	minimum = 0.079 (at node 7)
	maximum = 0.119 (at node 15)
Injected packet length average = 1
Accepted packet length average = 1
Total in-flight flits = 29 (0 measured)
latency change    = 0.00204164
throughput change = 0.0235762
Warmed up ...Time used is 3000 cycles
Class 0:
Packet latency average = 20.2448
	minimum = 7
	maximum = 46
Network latency average = 20.2417
	minimum = 7
	maximum = 46
Slowest packet = 46703
Flit latency average = 20.3178
	minimum = 7
	maximum = 46
Slowest flit = 46703
Fragmentation average = 0
	minimum = 0
	maximum = 0
Injected packet rate average = 0.102125
	minimum = 0.087 (at node 10)
	maximum = 0.118 (at node 12)
Accepted packet rate average = 0.101875
	minimum = 0.076 (at node 9)
	maximum = 0.125 (at node 10)
Injected flit rate average = 0.102125
	minimum = 0.087 (at node 10)
	maximum = 0.118 (at node 12)
Accepted flit rate average= 0.101875
	minimum = 0.076 (at node 9)
	maximum = 0.125 (at node 10)
Injected packet length average = 1
Accepted packet length average = 1
Total in-flight flits = 33 (33 measured)
latency change    = 0.0161475
throughput change = 0.00184049
Class 0:
Packet latency average = 20.0753
	minimum = 7
	maximum = 46
Network latency average = 20.0734
	minimum = 7
	maximum = 46
Slowest packet = 46703
Flit latency average = 20.113
	minimum = 7
	maximum = 46
Slowest flit = 46703
Fragmentation average = 0
	minimum = 0
	maximum = 0
Injected packet rate average = 0.101875
	minimum = 0.09 (at node 6)
	maximum = 0.1165 (at node 12)
Accepted packet rate average = 0.101813
	minimum = 0.093 (at node 1)
	maximum = 0.1195 (at node 4)
Injected flit rate average = 0.101875
	minimum = 0.09 (at node 6)
	maximum = 0.1165 (at node 12)
Accepted flit rate average= 0.101813
	minimum = 0.093 (at node 1)
	maximum = 0.1195 (at node 4)
Injected packet length average = 1
Accepted packet length average = 1
Total in-flight flits = 31 (31 measured)
latency change    = 0.00844779
throughput change = 0.000613874
Class 0:
Packet latency average = 20.0376
	minimum = 7
	maximum = 46
Network latency average = 20.0363
	minimum = 7
	maximum = 46
Slowest packet = 46703
Flit latency average = 20.063
	minimum = 7
	maximum = 46
Slowest flit = 46703
Fragmentation average = 0
	minimum = 0
	maximum = 0
Injected packet rate average = 0.101417
	minimum = 0.0903333 (at node 6)
	maximum = 0.118333 (at node 4)
Accepted packet rate average = 0.101479
	minimum = 0.094 (at node 6)
	maximum = 0.112667 (at node 4)
Injected flit rate average = 0.101417
	minimum = 0.0903333 (at node 6)
	maximum = 0.118333 (at node 4)
Accepted flit rate average= 0.101479
	minimum = 0.094 (at node 6)
	maximum = 0.112667 (at node 4)
Injected packet length average = 1
Accepted packet length average = 1
Total in-flight flits = 26 (26 measured)
latency change    = 0.00187985
throughput change = 0.00328475
Draining all recorded packets ...
Draining remaining packets ...
Time taken is 6067 cycles
Class 0:
Packet latency average = 19.9325
	minimum = 7
	maximum = 44
Network latency average = 19.93
	minimum = 7
	maximum = 43
Slowest packet = 51957
Flit latency average = 19.93
	minimum = 7
	maximum = 43
Slowest flit = 51957
Fragmentation average = 0
	minimum = 0
	maximum = 0
Injected packet rate average = 0.101875
	minimum = 0.076 (at node 4)
	maximum = 0.116 (at node 13)
Accepted packet rate average = 0.100062
	minimum = 0.088 (at node 13)
	maximum = 0.117 (at node 6)
Injected flit rate average = 0.101875
	minimum = 0.076 (at node 4)
	maximum = 0.116 (at node 13)
Accepted flit rate average= 0.100062
	minimum = 0.088 (at node 13)
	maximum = 0.117 (at node 6)
Injected packet length average = 1
Accepted packet length average = 1
Total in-flight flits = 29 (0 measured)
latency change    = 1
throughput change = 1
Class 0:
Packet latency average = 19.9543
	minimum = 7
	maximum = 52
Network latency average = 19.9528
	minimum = 7
	maximum = 52
Slowest packet = 54389
Flit latency average = 19.9528
	minimum = 7
	maximum = 52
Slowest flit = 54389
Fragmentation average = 0
	minimum = 0
	maximum = 0
Injected packet rate average = 0.102219
	minimum = 0.0855 (at node 4)
	maximum = 0.111 (at node 9)
Accepted packet rate average = 0.101219
	minimum = 0.085 (at node 2)
	maximum = 0.1115 (at node 6)
Injected flit rate average = 0.102219
	minimum = 0.0855 (at node 4)
	maximum = 0.111 (at node 9)
Accepted flit rate average= 0.101219
	minimum = 0.085 (at node 2)
	maximum = 0.1115 (at node 6)
Injected packet length average = 1
Accepted packet length average = 1
Total in-flight flits = 32 (0 measured)
latency change    = 0.00109073
throughput change = 0.0114233
Class 0:
Packet latency average = 19.9401
	minimum = 7
	maximum = 44
Network latency average = 19.9394
	minimum = 7
	maximum = 44
Slowest packet = 56263
Flit latency average = 19.9394
	minimum = 7
	maximum = 44
Slowest flit = 56263
Fragmentation average = 0
	minimum = 0
	maximum = 0
Injected packet rate average = 0.102
	minimum = 0.08 (at node 5)
	maximum = 0.116 (at node 9)
Accepted packet rate average = 0.102188
	minimum = 0.077 (at node 11)
	maximum = 0.119 (at node 3)
Injected flit rate average = 0.102
	minimum = 0.08 (at node 5)
	maximum = 0.116 (at node 9)
Accepted flit rate average= 0.102188
	minimum = 0.077 (at node 11)
	maximum = 0.119 (at node 3)
Injected packet length average = 1
Accepted packet length average = 1
Total in-flight flits = 29 (0 measured)
latency change    = 0.000714427
throughput change = 0.00948012
Warmed up ...Time used is 3000 cycles
Class 0:
Packet latency average = 19.7873
	minimum = 7
	maximum = 43
Network latency average = 19.7834
	minimum = 7
	maximum = 43
Slowest packet = 57397
Flit latency average = 19.8111
	minimum = 7
	maximum = 43
Slowest flit = 57397
Fragmentation average = 0
	minimum = 0
	maximum = 0
Injected packet rate average = 0.100125
	minimum = 0.086 (at node 11)
	maximum = 0.112 (at node 3)
Accepted packet rate average = 0.0999375
	minimum = 0.085 (at node 14)
	maximum = 0.114 (at node 4)
Injected flit rate average = 0.100125
	minimum = 0.086 (at node 11)
	maximum = 0.112 (at node 3)
Accepted flit rate average= 0.0999375
	minimum = 0.085 (at node 14)
	maximum = 0.114 (at node 4)
Injected packet length average = 1
Accepted packet length average = 1
Total in-flight flits = 32 (32 measured)
latency change    = 0.00772214
throughput change = 0.0225141
Class 0:
Packet latency average = 19.9534
	minimum = 7
	maximum = 45
Network latency average = 19.9516
	minimum = 7
	maximum = 45
Slowest packet = 58189
Flit latency average = 19.9638
	minimum = 7
	maximum = 45
Slowest flit = 58189
Fragmentation average = 0
	minimum = 0
	maximum = 0
Injected packet rate average = 0.100937
	minimum = 0.0915 (at node 0)
	maximum = 0.1105 (at node 3)
Accepted packet rate average = 0.100906
	minimum = 0.088 (at node 1)
	maximum = 0.108 (at node 12)
Injected flit rate average = 0.100937
	minimum = 0.0915 (at node 0)
	maximum = 0.1105 (at node 3)
Accepted flit rate average= 0.100906
	minimum = 0.088 (at node 1)
	maximum = 0.108 (at node 12)
Injected packet length average = 1
Accepted packet length average = 1
Total in-flight flits = 30 (30 measured)
latency change    = 0.00832821
throughput change = 0.0096005
Class 0:
Packet latency average = 19.921
	minimum = 7
	maximum = 45
Network latency average = 19.9197
	minimum = 7
	maximum = 45
Slowest packet = 58189
Flit latency average = 19.9281
	minimum = 7
	maximum = 45
Slowest flit = 58189
Fragmentation average = 0
	minimum = 0
	maximum = 0
Injected packet rate average = 0.100187
	minimum = 0.0916667 (at node 6)
	maximum = 0.108 (at node 10)
Accepted packet rate average = 0.100292
	minimum = 0.0916667 (at node 11)
	maximum = 0.111333 (at node 7)
Injected flit rate average = 0.100187
	minimum = 0.0916667 (at node 6)
	maximum = 0.108 (at node 10)
Accepted flit rate average= 0.100292
	minimum = 0.0916667 (at node 11)
	maximum = 0.111333 (at node 7)
Injected packet length average = 1
Accepted packet length average = 1
Total in-flight flits = 24 (24 measured)
latency change    = 0.00162815
throughput change = 0.00612796
Draining all recorded packets ...
Draining remaining packets ...
Time taken is 6053 cycles
Class 0:
Packet latency average = 20.0261
	minimum = 7
	maximum = 49
Network latency average = 20.0254
	minimum = 7
	maximum = 49
Slowest packet = 61656
Flit latency average = 20.0254
	minimum = 7
	maximum = 49
Slowest flit = 61656
Fragmentation average = 0
	minimum = 0
	maximum = 0
Injected packet rate average = 0.0931875
	minimum = 0.069 (at node 10)
	maximum = 0.12 (at node 8)
Accepted packet rate average = 0.091125
	minimum = 0.08 (at node 7)
	maximum = 0.106 (at node 8)
Injected flit rate average = 0.0931875
	minimum = 0.069 (at node 10)
	maximum = 0.12 (at node 8)
Accepted flit rate average= 0.091125
	minimum = 0.08 (at node 7)
	maximum = 0.106 (at node 8)
Injected packet length average = 1
Accepted packet length average = 1
Total in-flight flits = 33 (0 measured)
latency change    = 1
throughput change = 1
Class 0:
Packet latency average = 19.8585
	minimum = 7
	maximum = 49
Network latency average = 19.8581
	minimum = 7
	maximum = 49
Slowest packet = 61656
Flit latency average = 19.8581
	minimum = 7
	maximum = 49
Slowest flit = 61656
Fragmentation average = 0
	minimum = 0
	maximum = 0
Injected packet rate average = 0.0960625
	minimum = 0.0845 (at node 14)
	maximum = 0.112 (at node 8)
Accepted packet rate average = 0.095375
	minimum = 0.084 (at node 7)
	maximum = 0.1055 (at node 8)
Injected flit rate average = 0.0960625
	minimum = 0.0845 (at node 14)
	maximum = 0.112 (at node 8)
Accepted flit rate average= 0.095375
	minimum = 0.084 (at node 7)
	maximum = 0.1055 (at node 8)
Injected packet length average = 1
Accepted packet length average = 1
Total in-flight flits = 22 (0 measured)
latency change    = 0.00844022
throughput change = 0.0445609
Class 0:
Packet latency average = 19.9969
	minimum = 7
	maximum = 43
Network latency average = 19.9963
	minimum = 7
	maximum = 43
Slowest packet = 65172
Flit latency average = 19.9963
	minimum = 7
	maximum = 43
Slowest flit = 65172
Fragmentation average = 0
	minimum = 0
	maximum = 0
Injected packet rate average = 0.100625
	minimum = 0.085 (at node 11)
	maximum = 0.12 (at node 5)
Accepted packet rate average = 0.100375
	minimum = 0.081 (at node 15)
	maximum = 0.121 (at node 0)
Injected flit rate average = 0.100625
	minimum = 0.085 (at node 11)
	maximum = 0.12 (at node 5)
Accepted flit rate average= 0.100375
	minimum = 0.081 (at node 15)
	maximum = 0.121 (at node 0)
Injected packet length average = 1
Accepted packet length average = 1
Total in-flight flits = 26 (0 measured)
latency change    = 0.00692274
throughput change = 0.0498132
Warmed up ...Time used is 3000 cycles
Class 0:
Packet latency average = 19.7032
	minimum = 7
	maximum = 44
Network latency average = 19.7026
	minimum = 7
	maximum = 44
Slowest packet = 66222
Flit latency average = 19.7346
	minimum = 7
	maximum = 44
Slowest flit = 66222
Fragmentation average = 0
	minimum = 0
	maximum = 0
Injected packet rate average = 0.098875
	minimum = 0.088 (at node 2)
	maximum = 0.111 (at node 8)
Accepted packet rate average = 0.099125
	minimum = 0.083 (at node 7)
	maximum = 0.114 (at node 3)
Injected flit rate average = 0.098875
	minimum = 0.088 (at node 2)
	maximum = 0.111 (at node 8)
Accepted flit rate average= 0.099125
	minimum = 0.083 (at node 7)
	maximum = 0.114 (at node 3)
Injected packet length average = 1
Accepted packet length average = 1
Total in-flight flits = 22 (22 measured)
latency change    = 0.0149053
throughput change = 0.0126103
Class 0:
Packet latency average = 19.838
	minimum = 7
	maximum = 45
Network latency average = 19.8377
	minimum = 7
	maximum = 45
Slowest packet = 68021
Flit latency average = 19.8528
	minimum = 7
	maximum = 45
Slowest flit = 68021
Fragmentation average = 0
	minimum = 0
	maximum = 0
Injected packet rate average = 0.0975
	minimum = 0.087 (at node 7)
	maximum = 0.108 (at node 6)
Accepted packet rate average = 0.0974688
	minimum = 0.079 (at node 7)
	maximum = 0.111 (at node 1)
Injected flit rate average = 0.0975
	minimum = 0.087 (at node 7)
	maximum = 0.108 (at node 6)
Accepted flit rate average= 0.0974688
	minimum = 0.079 (at node 7)
	maximum = 0.111 (at node 1)
Injected packet length average = 1
Accepted packet length average = 1
Total in-flight flits = 27 (27 measured)
latency change    = 0.00679585
throughput change = 0.0169926
Class 0:
Packet latency average = 19.7728
	minimum = 7
	maximum = 45
Network latency average = 19.7726
	minimum = 7
	maximum = 45
Slowest packet = 68021
Flit latency average = 19.7829
	minimum = 7
	maximum = 45
Slowest flit = 68021
Fragmentation average = 0
	minimum = 0
	maximum = 0
Injected packet rate average = 0.0995
	minimum = 0.091 (at node 2)
	maximum = 0.111333 (at node 10)
Accepted packet rate average = 0.0993125
	minimum = 0.088 (at node 7)
	maximum = 0.107667 (at node 3)
Injected flit rate average = 0.0995
	minimum = 0.091 (at node 2)
	maximum = 0.111333 (at node 10)
Accepted flit rate average= 0.0993125
	minimum = 0.088 (at node 7)
	maximum = 0.107667 (at node 3)
Injected packet length average = 1
Accepted packet length average = 1
Total in-flight flits = 35 (35 measured)
latency change    = 0.00329688
throughput change = 0.0185651
Draining all recorded packets ...
Draining remaining packets ...
Time taken is 6063 cycles
Class 0:
Packet latency average = 20.0982
	minimum = 7
	maximum = 44
Network latency average = 20.0982
	minimum = 7
	maximum = 44
Slowest packet = 71274
Flit latency average = 20.0982
	minimum = 7
	maximum = 44
Slowest flit = 71274
Fragmentation average = 0
	minimum = 0
	maximum = 0
Injected packet rate average = 0.101938
	minimum = 0.082 (at node 8)
	maximum = 0.121 (at node 7)
Accepted packet rate average = 0.0999375
	minimum = 0.074 (at node 6)
	maximum = 0.126 (at node 4)
Injected flit rate average = 0.101938
	minimum = 0.082 (at node 8)
	maximum = 0.121 (at node 7)
Accepted flit rate average= 0.0999375
	minimum = 0.074 (at node 6)
	maximum = 0.126 (at node 4)
Injected packet length average = 1
Accepted packet length average = 1
Total in-flight flits = 32 (0 measured)
latency change    = 1
throughput change = 1
Class 0:
Packet latency average = 19.9601
	minimum = 7
	maximum = 45
Network latency average = 19.9601
	minimum = 7
	maximum = 45
Slowest packet = 73436
Flit latency average = 19.9601
	minimum = 7
	maximum = 45
Slowest flit = 73436
Fragmentation average = 0
	minimum = 0
	maximum = 0
Injected packet rate average = 0.100344
	minimum = 0.09 (at node 8)
	maximum = 0.109 (at node 7)
Accepted packet rate average = 0.099375
	minimum = 0.0835 (at node 6)
	maximum = 0.113 (at node 2)
Injected flit rate average = 0.100344
	minimum = 0.09 (at node 8)
	maximum = 0.109 (at node 7)
Accepted flit rate average= 0.099375
	minimum = 0.0835 (at node 6)
	maximum = 0.113 (at node 2)
Injected packet length average = 1
Accepted packet length average = 1
Total in-flight flits = 31 (0 measured)
latency change    = 0.00691999
throughput change = 0.00566038
Class 0:
Packet latency average = 20.0283
	minimum = 7
	maximum = 45
Network latency average = 20.0265
	minimum = 7
	maximum = 45
Slowest packet = 75058
Flit latency average = 20.0265
	minimum = 7
	maximum = 45
Slowest flit = 75058
Fragmentation average = 0
	minimum = 0
	maximum = 0
Injected packet rate average = 0.103813
	minimum = 0.092 (at node 2)
	maximum = 0.126 (at node 5)
Accepted packet rate average = 0.103625
	minimum = 0.088 (at node 13)
	maximum = 0.124 (at node 1)
Injected flit rate average = 0.103813
	minimum = 0.092 (at node 2)
	maximum = 0.126 (at node 5)
Accepted flit rate average= 0.103625
	minimum = 0.088 (at node 13)
	maximum = 0.124 (at node 1)
Injected packet length average = 1
Accepted packet length average = 1
Total in-flight flits = 34 (0 measured)
latency change    = 0.00340939
throughput change = 0.0410133
Warmed up ...Time used is 3000 cycles
Class 0:
Packet latency average = 19.7242
	minimum = 7
	maximum = 45
Network latency average = 19.7236
	minimum = 7
	maximum = 45
Slowest packet = 76552
Flit latency average = 19.8227
	minimum = 7
	maximum = 45
Slowest flit = 76552
Fragmentation average = 0
	minimum = 0
	maximum = 0
Injected packet rate average = 0.0985625
	minimum = 0.085 (at node 7)
	maximum = 0.116 (at node 9)
Accepted packet rate average = 0.0973125
	minimum = 0.079 (at node 4)
	maximum = 0.115 (at node 2)
Injected flit rate average = 0.0985625
	minimum = 0.085 (at node 7)
	maximum = 0.116 (at node 9)
Accepted flit rate average= 0.0973125
	minimum = 0.079 (at node 4)
	maximum = 0.115 (at node 2)
Injected packet length average = 1
Accepted packet length average = 1
Total in-flight flits = 54 (54 measured)
latency change    = 0.0154185
throughput change = 0.0648683
Class 0:
Packet latency average = 20.0721
	minimum = 7
	maximum = 45
Network latency average = 20.0715
	minimum = 7
	maximum = 45
Slowest packet = 76552
Flit latency average = 20.1168
	minimum = 7
	maximum = 45
Slowest flit = 76552
Fragmentation average = 0
	minimum = 0
	maximum = 0
Injected packet rate average = 0.0984687
	minimum = 0.091 (at node 4)
	maximum = 0.108 (at node 6)
Accepted packet rate average = 0.0981563
	minimum = 0.081 (at node 6)
	maximum = 0.112 (at node 2)
Injected flit rate average = 0.0984687
	minimum = 0.091 (at node 4)
	maximum = 0.108 (at node 6)
Accepted flit rate average= 0.0981563
	minimum = 0.081 (at node 6)
	maximum = 0.112 (at node 2)
Injected packet length average = 1
Accepted packet length average = 1
Total in-flight flits = 44 (44 measured)
latency change    = 0.0173309
throughput change = 0.00859599
Class 0:
Packet latency average = 20.1523
	minimum = 7
	maximum = 50
Network latency average = 20.151
	minimum = 7
	maximum = 50
Slowest packet = 80240
Flit latency average = 20.1801
	minimum = 7
	maximum = 50
Slowest flit = 80240
Fragmentation average = 0
	minimum = 0
	maximum = 0
Injected packet rate average = 0.100292
	minimum = 0.093 (at node 12)
	maximum = 0.108333 (at node 2)
Accepted packet rate average = 0.100312
	minimum = 0.0893333 (at node 6)
	maximum = 0.11 (at node 2)
Injected flit rate average = 0.100292
	minimum = 0.093 (at node 12)
	maximum = 0.108333 (at node 2)
Accepted flit rate average= 0.100312
	minimum = 0.0893333 (at node 6)
	maximum = 0.11 (at node 2)
Injected packet length average = 1
Accepted packet length average = 1
Total in-flight flits = 33 (33 measured)
latency change    = 0.00397842
throughput change = 0.0214953
Class 0:
Packet latency average = 20.1417
	minimum = 7
	maximum = 50
Network latency average = 20.1402
	minimum = 7
	maximum = 50
Slowest packet = 80240
Flit latency average = 20.1621
	minimum = 7
	maximum = 50
Slowest flit = 80240
Fragmentation average = 0
	minimum = 0
	maximum = 0
Injected packet rate average = 0.099875
	minimum = 0.09125 (at node 12)
	maximum = 0.1085 (at node 3)
Accepted packet rate average = 0.0999687
	minimum = 0.086 (at node 4)
	maximum = 0.106 (at node 1)
Injected flit rate average = 0.099875
	minimum = 0.09125 (at node 12)
	maximum = 0.1085 (at node 3)
Accepted flit rate average= 0.0999687
	minimum = 0.086 (at node 4)
	maximum = 0.106 (at node 1)
Injected packet length average = 1
Accepted packet length average = 1
Total in-flight flits = 28 (28 measured)
latency change    = 0.000523026
throughput change = 0.00343857
Draining all recorded packets ...
Draining remaining packets ...
Time taken is 7063 cycles
Class 0:
Packet latency average = 19.885
	minimum = 7
	maximum = 43
Network latency average = 19.8837
	minimum = 7
	maximum = 43
Slowest packet = 83407
Flit latency average = 19.8837
	minimum = 7
	maximum = 43
Slowest flit = 83407
Fragmentation average = 0
	minimum = 0
	maximum = 0
Injected packet rate average = 0.100437
	minimum = 0.085 (at node 0)
	maximum = 0.125 (at node 11)
Accepted packet rate average = 0.098375
	minimum = 0.089 (at node 7)
	maximum = 0.111 (at node 9)
Injected flit rate average = 0.100437
	minimum = 0.085 (at node 0)
	maximum = 0.125 (at node 11)
Accepted flit rate average= 0.098375
	minimum = 0.089 (at node 7)
	maximum = 0.111 (at node 9)
Injected packet length average = 1
Accepted packet length average = 1
Total in-flight flits = 33 (0 measured)
latency change    = 1
throughput change = 1
Class 0:
Packet latency average = 19.8801
	minimum = 7
	maximum = 51
Network latency average = 19.8795
	minimum = 7
	maximum = 51
Slowest packet = 84477
Flit latency average = 19.8795
	minimum = 7
	maximum = 51
Slowest flit = 84477
Fragmentation average = 0
	minimum = 0
	maximum = 0
Injected packet rate average = 0.1
	minimum = 0.089 (at node 14)
	maximum = 0.114 (at node 11)
Accepted packet rate average = 0.0988125
	minimum = 0.0915 (at node 0)
	maximum = 0.1065 (at node 9)
Injected flit rate average = 0.1
	minimum = 0.089 (at node 14)
	maximum = 0.114 (at node 11)
Accepted flit rate average= 0.0988125
	minimum = 0.0915 (at node 0)
	maximum = 0.1065 (at node 9)
Injected packet length average = 1
Accepted packet length average = 1
Total in-flight flits = 38 (0 measured)
latency change    = 0.000244827
throughput change = 0.00442758
Class 0:
Packet latency average = 20.1766
	minimum = 7
	maximum = 51
Network latency average = 20.1753
	minimum = 7
	maximum = 51
Slowest packet = 85141
Flit latency average = 20.1753
	minimum = 7
	maximum = 51
Slowest flit = 85141
Fragmentation average = 0
	minimum = 0
	maximum = 0
Injected packet rate average = 0.0938125
	minimum = 0.077 (at node 1)
	maximum = 0.109 (at node 6)
Accepted packet rate average = 0.0945
	minimum = 0.078 (at node 9)
	maximum = 0.115 (at node 1)
Injected flit rate average = 0.0938125
	minimum = 0.077 (at node 1)
	maximum = 0.109 (at node 6)
Accepted flit rate average= 0.0945
	minimum = 0.078 (at node 9)
	maximum = 0.115 (at node 1)
Injected packet length average = 1
Accepted packet length average = 1
Total in-flight flits = 27 (0 measured)
latency change    = 0.0146927
throughput change = 0.0456349
Warmed up ...Time used is 3000 cycles
Class 0:
Packet latency average = 20.0833
	minimum = 7
	maximum = 48
Network latency average = 20.0833
	minimum = 7
	maximum = 48
Slowest packet = 87372
Flit latency average = 20.1092
	minimum = 7
	maximum = 48
Slowest flit = 87372
Fragmentation average = 0
	minimum = 0
	maximum = 0
Injected packet rate average = 0.101062
	minimum = 0.08 (at node 14)
	maximum = 0.121 (at node 1)
Accepted packet rate average = 0.10075
	minimum = 0.077 (at node 5)
	maximum = 0.115 (at node 4)
Injected flit rate average = 0.101062
	minimum = 0.08 (at node 14)
	maximum = 0.121 (at node 1)
Accepted flit rate average= 0.10075
	minimum = 0.077 (at node 5)
	maximum = 0.115 (at node 4)
Injected packet length average = 1
Accepted packet length average = 1
Total in-flight flits = 32 (32 measured)
latency change    = 0.00464598
throughput change = 0.0620347
Class 0:
Packet latency average = 20.0292
	minimum = 7
	maximum = 48
Network latency average = 20.0289
	minimum = 7
	maximum = 48
Slowest packet = 87372
Flit latency average = 20.0424
	minimum = 7
	maximum = 48
Slowest flit = 87372
Fragmentation average = 0
	minimum = 0
	maximum = 0
Injected packet rate average = 0.100312
	minimum = 0.0915 (at node 10)
	maximum = 0.1175 (at node 1)
Accepted packet rate average = 0.100312
	minimum = 0.092 (at node 7)
	maximum = 0.1105 (at node 15)
Injected flit rate average = 0.100312
	minimum = 0.0915 (at node 10)
	maximum = 0.1175 (at node 1)
Accepted flit rate average= 0.100312
	minimum = 0.092 (at node 7)
	maximum = 0.1105 (at node 15)
Injected packet length average = 1
Accepted packet length average = 1
Total in-flight flits = 27 (27 measured)
latency change    = 0.00269921
throughput change = 0.00436137
Class 0:
Packet latency average = 20.0856
	minimum = 7
	maximum = 50
Network latency average = 20.0851
	minimum = 7
	maximum = 50
Slowest packet = 90778
Flit latency average = 20.0938
	minimum = 7
	maximum = 50
Slowest flit = 90778
Fragmentation average = 0
	minimum = 0
	maximum = 0
Injected packet rate average = 0.100417
	minimum = 0.0896667 (at node 12)
	maximum = 0.115 (at node 0)
Accepted packet rate average = 0.100396
	minimum = 0.0916667 (at node 8)
	maximum = 0.108667 (at node 4)
Injected flit rate average = 0.100417
	minimum = 0.0896667 (at node 12)
	maximum = 0.115 (at node 0)
Accepted flit rate average= 0.100396
	minimum = 0.0916667 (at node 8)
	maximum = 0.108667 (at node 4)
Injected packet length average = 1
Accepted packet length average = 1
Total in-flight flits = 28 (28 measured)
latency change    = 0.00280508
throughput change = 0.000830048
Class 0:
Packet latency average = 20.0585
	minimum = 7
	maximum = 50
Network latency average = 20.058
	minimum = 7
	maximum = 50
Slowest packet = 90778
Flit latency average = 20.0646
	minimum = 7
	maximum = 50
Slowest flit = 90778
Fragmentation average = 0
	minimum = 0
	maximum = 0
Injected packet rate average = 0.100703
	minimum = 0.09075 (at node 13)
	maximum = 0.11075 (at node 1)
Accepted packet rate average = 0.100594
	minimum = 0.09175 (at node 8)
	maximum = 0.1085 (at node 15)
Injected flit rate average = 0.100703
	minimum = 0.09075 (at node 13)
	maximum = 0.11075 (at node 1)
Accepted flit rate average= 0.100594
	minimum = 0.09175 (at node 8)
	maximum = 0.1085 (at node 15)
Injected packet length average = 1
Accepted packet length average = 1
Total in-flight flits = 34 (34 measured)
latency change    = 0.00134936
throughput change = 0.00196748
Draining all recorded packets ...
Draining remaining packets ...
Time taken is 7060 cycles
Class 0:
Packet latency average = 19.9988
	minimum = 7
	maximum = 54
Network latency average = 19.9947
	minimum = 7
	maximum = 54
Slowest packet = 93769
Flit latency average = 19.9947
	minimum = 7
	maximum = 54
Slowest flit = 93769
Fragmentation average = 0
	minimum = 0
	maximum = 0
Injected packet rate average = 0.108188
	minimum = 0.084 (at node 12)
	maximum = 0.121 (at node 7)
Accepted packet rate average = 0.106375
	minimum = 0.084 (at node 9)
	maximum = 0.124 (at node 1)
Injected flit rate average = 0.108188
	minimum = 0.084 (at node 12)
	maximum = 0.121 (at node 7)
Accepted flit rate average= 0.106375
	minimum = 0.084 (at node 9)
	maximum = 0.124 (at node 1)
Injected packet length average = 1
Accepted packet length average = 1
Total in-flight flits = 29 (0 measured)
latency change    = 1
throughput change = 1
Class 0:
Packet latency average = 20.0534
	minimum = 7
	maximum = 54
Network latency average = 20.0506
	minimum = 7
	maximum = 54
Slowest packet = 93769
Flit latency average = 20.0506
	minimum = 7
	maximum = 54
Slowest flit = 93769
Fragmentation average = 0
	minimum = 0
	maximum = 0
Injected packet rate average = 0.1035
	minimum = 0.0925 (at node 4)
	maximum = 0.121 (at node 0)
Accepted packet rate average = 0.1025
	minimum = 0.0865 (at node 6)
	maximum = 0.123 (at node 1)
Injected flit rate average = 0.1035
	minimum = 0.0925 (at node 4)
	maximum = 0.121 (at node 0)
Accepted flit rate average= 0.1025
	minimum = 0.0865 (at node 6)
	maximum = 0.123 (at node 1)
Injected packet length average = 1
Accepted packet length average = 1
Total in-flight flits = 32 (0 measured)
latency change    = 0.00271918
throughput change = 0.0378049
Class 0:
Packet latency average = 20.045
	minimum = 7
	maximum = 49
Network latency average = 20.045
	minimum = 7
	maximum = 49
Slowest packet = 97715
Flit latency average = 20.045
	minimum = 7
	maximum = 49
Slowest flit = 97715
Fragmentation average = 0
	minimum = 0
	maximum = 0
Injected packet rate average = 0.105438
	minimum = 0.09 (at node 14)
	maximum = 0.119 (at node 7)
Accepted packet rate average = 0.105625
	minimum = 0.093 (at node 15)
	maximum = 0.125 (at node 4)
Injected flit rate average = 0.105438
	minimum = 0.09 (at node 14)
	maximum = 0.119 (at node 7)
Accepted flit rate average= 0.105625
	minimum = 0.093 (at node 15)
	maximum = 0.125 (at node 4)
Injected packet length average = 1
Accepted packet length average = 1
Total in-flight flits = 29 (0 measured)
latency change    = 0.000418222
throughput change = 0.0295858
Warmed up ...Time used is 3000 cycles
Class 0:
Packet latency average = 19.7091
	minimum = 7
	maximum = 50
Network latency average = 19.7091
	minimum = 7
	maximum = 50
Slowest packet = 98824
Flit latency average = 19.764
	minimum = 7
	maximum = 50
Slowest flit = 98824
Fragmentation average = 0
	minimum = 0
	maximum = 0
Injected packet rate average = 0.0986875
	minimum = 0.082 (at node 0)
	maximum = 0.117 (at node 13)
Accepted packet rate average = 0.0985
	minimum = 0.081 (at node 7)
	maximum = 0.118 (at node 14)
Injected flit rate average = 0.0986875
	minimum = 0.082 (at node 0)
	maximum = 0.117 (at node 13)
Accepted flit rate average= 0.0985
	minimum = 0.081 (at node 7)
	maximum = 0.118 (at node 14)
Injected packet length average = 1
Accepted packet length average = 1
Total in-flight flits = 32 (32 measured)
latency change    = 0.0170406
throughput change = 0.072335
Class 0:
Packet latency average = 19.7013
	minimum = 7
	maximum = 50
Network latency average = 19.7013
	minimum = 7
	maximum = 50
Slowest packet = 98824
Flit latency average = 19.729
	minimum = 7
	maximum = 50
Slowest flit = 98824
Fragmentation average = 0
	minimum = 0
	maximum = 0
Injected packet rate average = 0.097625
	minimum = 0.0855 (at node 11)
	maximum = 0.11 (at node 2)
Accepted packet rate average = 0.0975625
	minimum = 0.081 (at node 4)
	maximum = 0.109 (at node 14)
Injected flit rate average = 0.097625
	minimum = 0.0855 (at node 11)
	maximum = 0.11 (at node 2)
Accepted flit rate average= 0.0975625
	minimum = 0.081 (at node 4)
	maximum = 0.109 (at node 14)
Injected packet length average = 1
Accepted packet length average = 1
Total in-flight flits = 31 (31 measured)
latency change    = 0.000398629
throughput change = 0.00960922
Class 0:
Packet latency average = 19.7969
	minimum = 7
	maximum = 50
Network latency average = 19.7963
	minimum = 7
	maximum = 50
Slowest packet = 98824
Flit latency average = 19.814
	minimum = 7
	maximum = 50
Slowest flit = 98824
Fragmentation average = 0
	minimum = 0
	maximum = 0
Injected packet rate average = 0.0985625
	minimum = 0.0843333 (at node 12)
	maximum = 0.109333 (at node 13)
Accepted packet rate average = 0.0985833
	minimum = 0.088 (at node 4)
	maximum = 0.105 (at node 7)
Injected flit rate average = 0.0985625
	minimum = 0.0843333 (at node 12)
	maximum = 0.109333 (at node 13)
Accepted flit rate average= 0.0985833
	minimum = 0.088 (at node 4)
	maximum = 0.105 (at node 7)
Injected packet length average = 1
Accepted packet length average = 1
Total in-flight flits = 28 (28 measured)
latency change    = 0.00483293
throughput change = 0.010355
Class 0:
Packet latency average = 19.7741
	minimum = 7
	maximum = 50
Network latency average = 19.7735
	minimum = 7
	maximum = 50
Slowest packet = 98824
Flit latency average = 19.7869
	minimum = 7
	maximum = 50
Slowest flit = 98824
Fragmentation average = 0
	minimum = 0
	maximum = 0
Injected packet rate average = 0.09875
	minimum = 0.08875 (at node 12)
	maximum = 0.10475 (at node 4)
Accepted packet rate average = 0.0986875
	minimum = 0.09 (at node 0)
	maximum = 0.10675 (at node 7)
Injected flit rate average = 0.09875
	minimum = 0.08875 (at node 12)
	maximum = 0.10475 (at node 4)
Accepted flit rate average= 0.0986875
	minimum = 0.09 (at node 0)
	maximum = 0.10675 (at node 7)
Injected packet length average = 1
Accepted packet length average = 1
Total in-flight flits = 33 (33 measured)
latency change    = 0.00115307
throughput change = 0.00105552
Draining all recorded packets ...
Draining remaining packets ...
Time taken is 7060 cycles
Class 0:
Packet latency average = 19.5794
	minimum = 7
	maximum = 47
Network latency average = 19.5794
	minimum = 7
	maximum = 47
Slowest packet = 104826
Flit latency average = 19.5794
	minimum = 7
	maximum = 47
Slowest flit = 104826
Fragmentation average = 0
	minimum = 0
	maximum = 0
Injected packet rate average = 0.0965625
	minimum = 0.075 (at node 4)
	maximum = 0.128 (at node 8)
Accepted packet rate average = 0.0948125
	minimum = 0.081 (at node 12)
	maximum = 0.106 (at node 8)
Injected flit rate average = 0.0965625
	minimum = 0.075 (at node 4)
	maximum = 0.128 (at node 8)
Accepted flit rate average= 0.0948125
	minimum = 0.081 (at node 12)
	maximum = 0.106 (at node 8)
Injected packet length average = 1
Accepted packet length average = 1
Total in-flight flits = 28 (0 measured)
latency change    = 1
throughput change = 1
Class 0:
Packet latency average = 19.9011
	minimum = 7
	maximum = 47
Network latency average = 19.9002
	minimum = 7
	maximum = 47
Slowest packet = 104826
Flit latency average = 19.9002
	minimum = 7
	maximum = 47
Slowest flit = 104826
Fragmentation average = 0
	minimum = 0
	maximum = 0
Injected packet rate average = 0.0990313
	minimum = 0.081 (at node 4)
	maximum = 0.1165 (at node 8)
Accepted packet rate average = 0.0976562
	minimum = 0.086 (at node 12)
	maximum = 0.1125 (at node 6)
Injected flit rate average = 0.0990313
	minimum = 0.081 (at node 4)
	maximum = 0.1165 (at node 8)
Accepted flit rate average= 0.0976562
	minimum = 0.086 (at node 12)
	maximum = 0.1125 (at node 6)
Injected packet length average = 1
Accepted packet length average = 1
Total in-flight flits = 44 (0 measured)
latency change    = 0.0161643
throughput change = 0.02912
Class 0:
Packet latency average = 19.9543
	minimum = 7
	maximum = 44
Network latency average = 19.9543
	minimum = 7
	maximum = 44
Slowest packet = 107876
Flit latency average = 19.9543
	minimum = 7
	maximum = 44
Slowest flit = 107876
Fragmentation average = 0
	minimum = 0
	maximum = 0
Injected packet rate average = 0.0986875
	minimum = 0.089 (at node 2)
	maximum = 0.127 (at node 6)
Accepted packet rate average = 0.099875
	minimum = 0.089 (at node 5)
	maximum = 0.124 (at node 10)
Injected flit rate average = 0.0986875
	minimum = 0.089 (at node 2)
	maximum = 0.127 (at node 6)
Accepted flit rate average= 0.099875
	minimum = 0.089 (at node 5)
	maximum = 0.124 (at node 10)
Injected packet length average = 1
Accepted packet length average = 1
Total in-flight flits = 25 (0 measured)
latency change    = 0.00266598
throughput change = 0.0222153
Warmed up ...Time used is 3000 cycles
Class 0:
Packet latency average = 20.2866
	minimum = 7
	maximum = 51
Network latency average = 20.2859
	minimum = 7
	maximum = 51
Slowest packet = 109718
Flit latency average = 20.3064
	minimum = 7
	maximum = 51
Slowest flit = 109718
Fragmentation average = 0
	minimum = 0
	maximum = 0
Injected packet rate average = 0.097625
	minimum = 0.083 (at node 3)
	maximum = 0.114 (at node 0)
Accepted packet rate average = 0.0973125
	minimum = 0.083 (at node 7)
	maximum = 0.113 (at node 4)
Injected flit rate average = 0.097625
	minimum = 0.083 (at node 3)
	maximum = 0.114 (at node 0)
Accepted flit rate average= 0.0973125
	minimum = 0.083 (at node 7)
	maximum = 0.113 (at node 4)
Injected packet length average = 1
Accepted packet length average = 1
Total in-flight flits = 30 (30 measured)
latency change    = 0.0163771
throughput change = 0.0263327
Class 0:
Packet latency average = 20.2419
	minimum = 7
	maximum = 51
Network latency average = 20.2394
	minimum = 7
	maximum = 51
Slowest packet = 109718
Flit latency average = 20.2498
	minimum = 7
	maximum = 51
Slowest flit = 109718
Fragmentation average = 0
	minimum = 0
	maximum = 0
Injected packet rate average = 0.09975
	minimum = 0.0905 (at node 5)
	maximum = 0.1115 (at node 4)
Accepted packet rate average = 0.0997187
	minimum = 0.0895 (at node 5)
	maximum = 0.112 (at node 12)
Injected flit rate average = 0.09975
	minimum = 0.0905 (at node 5)
	maximum = 0.1115 (at node 4)
Accepted flit rate average= 0.0997187
	minimum = 0.0895 (at node 5)
	maximum = 0.112 (at node 12)
Injected packet length average = 1
Accepted packet length average = 1
Total in-flight flits = 26 (26 measured)
latency change    = 0.00220373
throughput change = 0.0241304
Class 0:
Packet latency average = 20.1441
	minimum = 7
	maximum = 51
Network latency average = 20.1415
	minimum = 7
	maximum = 51
Slowest packet = 109718
Flit latency average = 20.149
	minimum = 7
	maximum = 51
Slowest flit = 109718
Fragmentation average = 0
	minimum = 0
	maximum = 0
Injected packet rate average = 0.0986667
	minimum = 0.091 (at node 10)
	maximum = 0.11 (at node 0)
Accepted packet rate average = 0.0985625
	minimum = 0.09 (at node 7)
	maximum = 0.107 (at node 9)
Injected flit rate average = 0.0986667
	minimum = 0.091 (at node 10)
	maximum = 0.11 (at node 0)
Accepted flit rate average= 0.0985625
	minimum = 0.09 (at node 7)
	maximum = 0.107 (at node 9)
Injected packet length average = 1
Accepted packet length average = 1
Total in-flight flits = 30 (30 measured)
latency change    = 0.00485871
throughput change = 0.0117311
Draining all recorded packets ...
Draining remaining packets ...
Time taken is 6064 cycles
Class 0:
Packet latency average = 20.1137
	minimum = 7
	maximum = 45
Network latency average = 20.1117
	minimum = 7
	maximum = 45
Slowest packet = 115331
Flit latency average = 20.1117
	minimum = 7
	maximum = 45
Slowest flit = 115331
Fragmentation average = 0
	minimum = 0
	maximum = 0
Injected packet rate average = 0.100562
	minimum = 0.088 (at node 9)
	maximum = 0.114 (at node 0)
Accepted packet rate average = 0.0984375
	minimum = 0.074 (at node 15)
	maximum = 0.113 (at node 1)
Injected flit rate average = 0.100562
	minimum = 0.088 (at node 9)
	maximum = 0.114 (at node 0)
Accepted flit rate average= 0.0984375
	minimum = 0.074 (at node 15)
	maximum = 0.113 (at node 1)
Injected packet length average = 1
Accepted packet length average = 1
Total in-flight flits = 34 (0 measured)
latency change    = 1
throughput change = 1
Class 0:
Packet latency average = 20.1986
	minimum = 7
	maximum = 45
Network latency average = 20.197
	minimum = 7
	maximum = 45
Slowest packet = 115331
Flit latency average = 20.197
	minimum = 7
	maximum = 45
Slowest flit = 115331
Fragmentation average = 0
	minimum = 0
	maximum = 0
Injected packet rate average = 0.100187
	minimum = 0.0905 (at node 9)
	maximum = 0.1105 (at node 3)
Accepted packet rate average = 0.0991563
	minimum = 0.0815 (at node 15)
	maximum = 0.1105 (at node 1)
Injected flit rate average = 0.100187
	minimum = 0.0905 (at node 9)
	maximum = 0.1105 (at node 3)
Accepted flit rate average= 0.0991563
	minimum = 0.0815 (at node 15)
	maximum = 0.1105 (at node 1)
Injected packet length average = 1
Accepted packet length average = 1
Total in-flight flits = 33 (0 measured)
latency change    = 0.00420325
throughput change = 0.00724866
Class 0:
Packet latency average = 20.0718
	minimum = 7
	maximum = 57
Network latency average = 20.0712
	minimum = 7
	maximum = 57
Slowest packet = 118252
Flit latency average = 20.0712
	minimum = 7
	maximum = 57
Slowest flit = 118252
Fragmentation average = 0
	minimum = 0
	maximum = 0
Injected packet rate average = 0.101125
	minimum = 0.084 (at node 15)
	maximum = 0.115 (at node 9)
Accepted packet rate average = 0.101
	minimum = 0.089 (at node 3)
	maximum = 0.116 (at node 12)
Injected flit rate average = 0.101125
	minimum = 0.084 (at node 15)
	maximum = 0.115 (at node 9)
Accepted flit rate average= 0.101
	minimum = 0.089 (at node 3)
	maximum = 0.116 (at node 12)
Injected packet length average = 1
Accepted packet length average = 1
Total in-flight flits = 35 (0 measured)
latency change    = 0.00631574
throughput change = 0.018255
Warmed up ...Time used is 3000 cycles
Class 0:
Packet latency average = 19.8159
	minimum = 7
	maximum = 45
Network latency average = 19.8153
	minimum = 7
	maximum = 45
Slowest packet = 119426
Flit latency average = 19.8614
	minimum = 7
	maximum = 45
Slowest flit = 119426
Fragmentation average = 0
	minimum = 0
	maximum = 0
Injected packet rate average = 0.100937
	minimum = 0.084 (at node 14)
	maximum = 0.121 (at node 7)
Accepted packet rate average = 0.101
	minimum = 0.083 (at node 12)
	maximum = 0.115 (at node 4)
Injected flit rate average = 0.100937
	minimum = 0.084 (at node 14)
	maximum = 0.121 (at node 7)
Accepted flit rate average= 0.101
	minimum = 0.083 (at node 12)
	maximum = 0.115 (at node 4)
Injected packet length average = 1
Accepted packet length average = 1
Total in-flight flits = 34 (34 measured)
latency change    = 0.012911
throughput change = 0
Class 0:
Packet latency average = 19.9004
	minimum = 7
	maximum = 55
Network latency average = 19.8997
	minimum = 7
	maximum = 55
Slowest packet = 120744
Flit latency average = 19.9222
	minimum = 7
	maximum = 55
Slowest flit = 120744
Fragmentation average = 0
	minimum = 0
	maximum = 0
Injected packet rate average = 0.0993437
	minimum = 0.0895 (at node 14)
	maximum = 0.1115 (at node 11)
Accepted packet rate average = 0.09925
	minimum = 0.0885 (at node 0)
	maximum = 0.1095 (at node 4)
Injected flit rate average = 0.0993437
	minimum = 0.0895 (at node 14)
	maximum = 0.1115 (at node 11)
Accepted flit rate average= 0.09925
	minimum = 0.0885 (at node 0)
	maximum = 0.1095 (at node 4)
Injected packet length average = 1
Accepted packet length average = 1
Total in-flight flits = 38 (38 measured)
latency change    = 0.00424168
throughput change = 0.0176322
Class 0:
Packet latency average = 19.9547
	minimum = 7
	maximum = 55
Network latency average = 19.9532
	minimum = 7
	maximum = 55
Slowest packet = 120744
Flit latency average = 19.9677
	minimum = 7
	maximum = 55
Slowest flit = 120744
Fragmentation average = 0
	minimum = 0
	maximum = 0
Injected packet rate average = 0.100417
	minimum = 0.0923333 (at node 4)
	maximum = 0.110667 (at node 11)
Accepted packet rate average = 0.100479
	minimum = 0.0896667 (at node 0)
	maximum = 0.116667 (at node 4)
Injected flit rate average = 0.100417
	minimum = 0.0923333 (at node 4)
	maximum = 0.110667 (at node 11)
Accepted flit rate average= 0.100479
	minimum = 0.0896667 (at node 0)
	maximum = 0.116667 (at node 4)
Injected packet length average = 1
Accepted packet length average = 1
Total in-flight flits = 32 (32 measured)
latency change    = 0.00272258
throughput change = 0.012233
Draining all recorded packets ...
Draining remaining packets ...
Time taken is 6065 cycles
Class 0:
Packet latency average = 19.8371
	minimum = 7
	maximum = 41
Network latency average = 19.8364
	minimum = 7
	maximum = 41
Slowest packet = 124025
Flit latency average = 19.8364
	minimum = 7
	maximum = 41
Slowest flit = 124025
Fragmentation average = 0
	minimum = 0
	maximum = 0
Injected packet rate average = 0.0995
	minimum = 0.082 (at node 10)
	maximum = 0.108 (at node 7)
Accepted packet rate average = 0.0978125
	minimum = 0.085 (at node 3)
	maximum = 0.112 (at node 6)
Injected flit rate average = 0.0995
	minimum = 0.082 (at node 10)
	maximum = 0.108 (at node 7)
Accepted flit rate average= 0.0978125
	minimum = 0.085 (at node 3)
	maximum = 0.112 (at node 6)
Injected packet length average = 1
Accepted packet length average = 1
Total in-flight flits = 27 (0 measured)
latency change    = 1
throughput change = 1
Class 0:
Packet latency average = 19.9256
	minimum = 7
	maximum = 49
Network latency average = 19.925
	minimum = 7
	maximum = 49
Slowest packet = 125539
Flit latency average = 19.925
	minimum = 7
	maximum = 49
Slowest flit = 125539
Fragmentation average = 0
	minimum = 0
	maximum = 0
Injected packet rate average = 0.101406
	minimum = 0.086 (at node 10)
	maximum = 0.1115 (at node 8)
Accepted packet rate average = 0.100375
	minimum = 0.0855 (at node 12)
	maximum = 0.1125 (at node 6)
Injected flit rate average = 0.101406
	minimum = 0.086 (at node 10)
	maximum = 0.1115 (at node 8)
Accepted flit rate average= 0.100375
	minimum = 0.0855 (at node 12)
	maximum = 0.1125 (at node 6)
Injected packet length average = 1
Accepted packet length average = 1
Total in-flight flits = 33 (0 measured)
latency change    = 0.00444307
throughput change = 0.0255293
Class 0:
Packet latency average = 20.3946
	minimum = 7
	maximum = 48
Network latency average = 20.394
	minimum = 7
	maximum = 48
Slowest packet = 127326
Flit latency average = 20.394
	minimum = 7
	maximum = 48
Slowest flit = 127326
Fragmentation average = 0
	minimum = 0
	maximum = 0
Injected packet rate average = 0.102563
	minimum = 0.092 (at node 1)
	maximum = 0.13 (at node 15)
Accepted packet rate average = 0.102313
	minimum = 0.084 (at node 3)
	maximum = 0.114 (at node 2)
Injected flit rate average = 0.102563
	minimum = 0.092 (at node 1)
	maximum = 0.13 (at node 15)
Accepted flit rate average= 0.102313
	minimum = 0.084 (at node 3)
	maximum = 0.114 (at node 2)
Injected packet length average = 1
Accepted packet length average = 1
Total in-flight flits = 37 (0 measured)
latency change    = 0.0229979
throughput change = 0.0189371
Warmed up ...Time used is 3000 cycles
Class 0:
Packet latency average = 20.0025
	minimum = 7
	maximum = 47
Network latency average = 20.0025
	minimum = 7
	maximum = 47
Slowest packet = 128774
Flit latency average = 20.0223
	minimum = 7
	maximum = 47
Slowest flit = 128774
Fragmentation average = 0
	minimum = 0
	maximum = 0
Injected packet rate average = 0.104438
	minimum = 0.088 (at node 5)
	maximum = 0.123 (at node 13)
Accepted packet rate average = 0.103875
	minimum = 0.082 (at node 5)
	maximum = 0.126 (at node 15)
Injected flit rate average = 0.104438
	minimum = 0.088 (at node 5)
	maximum = 0.123 (at node 13)
Accepted flit rate average= 0.103875
	minimum = 0.082 (at node 5)
	maximum = 0.126 (at node 15)
Injected packet length average = 1
Accepted packet length average = 1
Total in-flight flits = 46 (46 measured)
latency change    = 0.0196057
throughput change = 0.0150421
Class 0:
Packet latency average = 20.1062
	minimum = 7
	maximum = 47
Network latency average = 20.1059
	minimum = 7
	maximum = 47
Slowest packet = 128774
Flit latency average = 20.1148
	minimum = 7
	maximum = 47
Slowest flit = 128774
Fragmentation average = 0
	minimum = 0
	maximum = 0
Injected packet rate average = 0.101688
	minimum = 0.093 (at node 9)
	maximum = 0.115 (at node 1)
Accepted packet rate average = 0.102094
	minimum = 0.094 (at node 6)
	maximum = 0.1135 (at node 0)
Injected flit rate average = 0.101688
	minimum = 0.093 (at node 9)
	maximum = 0.115 (at node 1)
Accepted flit rate average= 0.102094
	minimum = 0.094 (at node 6)
	maximum = 0.1135 (at node 0)
Injected packet length average = 1
Accepted packet length average = 1
Total in-flight flits = 24 (24 measured)
latency change    = 0.00515913
throughput change = 0.0174472
Class 0:
Packet latency average = 20.1015
	minimum = 7
	maximum = 47
Network latency average = 20.1011
	minimum = 7
	maximum = 47
Slowest packet = 128774
Flit latency average = 20.1071
	minimum = 7
	maximum = 47
Slowest flit = 128774
Fragmentation average = 0
	minimum = 0
	maximum = 0
Injected packet rate average = 0.101437
	minimum = 0.0933333 (at node 3)
	maximum = 0.111333 (at node 5)
Accepted packet rate average = 0.101521
	minimum = 0.096 (at node 12)
	maximum = 0.108333 (at node 8)
Injected flit rate average = 0.101437
	minimum = 0.0933333 (at node 3)
	maximum = 0.111333 (at node 5)
Accepted flit rate average= 0.101521
	minimum = 0.096 (at node 12)
	maximum = 0.108333 (at node 8)
Injected packet length average = 1
Accepted packet length average = 1
Total in-flight flits = 33 (33 measured)
latency change    = 0.000231911
throughput change = 0.00564334
Draining all recorded packets ...
Draining remaining packets ...
Time taken is 6070 cycles
Class 0:
Packet latency average = 20.0339
	minimum = 7
	maximum = 43
Network latency average = 20.0339
	minimum = 7
	maximum = 43
Slowest packet = 133945
Flit latency average = 20.0339
	minimum = 7
	maximum = 43
Slowest flit = 133945
Fragmentation average = 0
	minimum = 0
	maximum = 0
Injected packet rate average = 0.0975
	minimum = 0.085 (at node 14)
	maximum = 0.11 (at node 0)
Accepted packet rate average = 0.09575
	minimum = 0.079 (at node 7)
	maximum = 0.113 (at node 1)
Injected flit rate average = 0.0975
	minimum = 0.085 (at node 14)
	maximum = 0.11 (at node 0)
Accepted flit rate average= 0.09575
	minimum = 0.079 (at node 7)
	maximum = 0.113 (at node 1)
Injected packet length average = 1
Accepted packet length average = 1
Total in-flight flits = 28 (0 measured)
latency change    = 1
throughput change = 1
Class 0:
Packet latency average = 20.12
	minimum = 7
	maximum = 46
Network latency average = 20.1194
	minimum = 7
	maximum = 46
Slowest packet = 136688
Flit latency average = 20.1194
	minimum = 7
	maximum = 46
Slowest flit = 136688
Fragmentation average = 0
	minimum = 0
	maximum = 0
Injected packet rate average = 0.0984687
	minimum = 0.087 (at node 9)
	maximum = 0.114 (at node 7)
Accepted packet rate average = 0.097375
	minimum = 0.0865 (at node 11)
	maximum = 0.109 (at node 15)
Injected flit rate average = 0.0984687
	minimum = 0.087 (at node 9)
	maximum = 0.114 (at node 7)
Accepted flit rate average= 0.097375
	minimum = 0.0865 (at node 11)
	maximum = 0.109 (at node 15)
Injected packet length average = 1
Accepted packet length average = 1
Total in-flight flits = 35 (0 measured)
latency change    = 0.00427848
throughput change = 0.0166881
Class 0:
Packet latency average = 20.3812
	minimum = 7
	maximum = 45
Network latency average = 20.3812
	minimum = 7
	maximum = 45
Slowest packet = 137499
Flit latency average = 20.3812
	minimum = 7
	maximum = 45
Slowest flit = 137499
Fragmentation average = 0
	minimum = 0
	maximum = 0
Injected packet rate average = 0.096375
	minimum = 0.086 (at node 2)
	maximum = 0.106 (at node 14)
Accepted packet rate average = 0.0965625
	minimum = 0.07 (at node 9)
	maximum = 0.113 (at node 3)
Injected flit rate average = 0.096375
	minimum = 0.086 (at node 2)
	maximum = 0.106 (at node 14)
Accepted flit rate average= 0.0965625
	minimum = 0.07 (at node 9)
	maximum = 0.113 (at node 3)
Injected packet length average = 1
Accepted packet length average = 1
Total in-flight flits = 32 (0 measured)
latency change    = 0.0128159
throughput change = 0.00841424
Warmed up ...Time used is 3000 cycles
Class 0:
Packet latency average = 19.8039
	minimum = 7
	maximum = 44
Network latency average = 19.8039
	minimum = 7
	maximum = 44
Slowest packet = 139868
Flit latency average = 19.8782
	minimum = 7
	maximum = 44
Slowest flit = 139868
Fragmentation average = 0
	minimum = 0
	maximum = 0
Injected packet rate average = 0.10375
	minimum = 0.085 (at node 3)
	maximum = 0.119 (at node 10)
Accepted packet rate average = 0.103688
	minimum = 0.091 (at node 14)
	maximum = 0.126 (at node 13)
Injected flit rate average = 0.10375
	minimum = 0.085 (at node 3)
	maximum = 0.119 (at node 10)
Accepted flit rate average= 0.103688
	minimum = 0.091 (at node 14)
	maximum = 0.126 (at node 13)
Injected packet length average = 1
Accepted packet length average = 1
Total in-flight flits = 33 (33 measured)
latency change    = 0.0291506
throughput change = 0.0687161
Class 0:
Packet latency average = 19.7812
	minimum = 7
	maximum = 47
Network latency average = 19.7809
	minimum = 7
	maximum = 47
Slowest packet = 141207
Flit latency average = 19.8193
	minimum = 7
	maximum = 47
Slowest flit = 141207
Fragmentation average = 0
	minimum = 0
	maximum = 0
Injected packet rate average = 0.100719
	minimum = 0.087 (at node 3)
	maximum = 0.1135 (at node 10)
Accepted packet rate average = 0.101
	minimum = 0.088 (at node 3)
	maximum = 0.1145 (at node 10)
Injected flit rate average = 0.100719
	minimum = 0.087 (at node 3)
	maximum = 0.1135 (at node 10)
Accepted flit rate average= 0.101
	minimum = 0.088 (at node 3)
	maximum = 0.1145 (at node 10)
Injected packet length average = 1
Accepted packet length average = 1
Total in-flight flits = 23 (23 measured)
latency change    = 0.00114672
throughput change = 0.0266089
Class 0:
Packet latency average = 19.929
	minimum = 7
	maximum = 47
Network latency average = 19.9288
	minimum = 7
	maximum = 47
Slowest packet = 141207
Flit latency average = 19.9536
	minimum = 7
	maximum = 47
Slowest flit = 141207
Fragmentation average = 0
	minimum = 0
	maximum = 0
Injected packet rate average = 0.100042
	minimum = 0.0923333 (at node 7)
	maximum = 0.109667 (at node 12)
Accepted packet rate average = 0.100167
	minimum = 0.0893333 (at node 4)
	maximum = 0.109 (at node 10)
Injected flit rate average = 0.100042
	minimum = 0.0923333 (at node 7)
	maximum = 0.109667 (at node 12)
Accepted flit rate average= 0.100167
	minimum = 0.0893333 (at node 4)
	maximum = 0.109 (at node 10)
Injected packet length average = 1
Accepted packet length average = 1
Total in-flight flits = 26 (26 measured)
latency change    = 0.00741482
throughput change = 0.00831947
Class 0:
Packet latency average = 19.9666
	minimum = 7
	maximum = 54
Network latency average = 19.9664
	minimum = 7
	maximum = 54
Slowest packet = 143284
Flit latency average = 19.9849
	minimum = 7
	maximum = 54
Slowest flit = 143284
Fragmentation average = 0
	minimum = 0
	maximum = 0
Injected packet rate average = 0.0999687
	minimum = 0.09 (at node 7)
	maximum = 0.1065 (at node 10)
Accepted packet rate average = 0.100094
	minimum = 0.0935 (at node 11)
	maximum = 0.10675 (at node 13)
Injected flit rate average = 0.0999687
	minimum = 0.09 (at node 7)
	maximum = 0.1065 (at node 10)
Accepted flit rate average= 0.100094
	minimum = 0.0935 (at node 11)
	maximum = 0.10675 (at node 13)
Injected packet length average = 1
Accepted packet length average = 1
Total in-flight flits = 24 (24 measured)
latency change    = 0.00188129
throughput change = 0.000728484
Draining all recorded packets ...
Draining remaining packets ...
Time taken is 7063 cycles
Class 0:
Packet latency average = 20.09
	minimum = 7
	maximum = 43
Network latency average = 20.09
	minimum = 7
	maximum = 43
Slowest packet = 145358
Flit latency average = 20.09
	minimum = 7
	maximum = 43
Slowest flit = 145358
Fragmentation average = 0
	minimum = 0
	maximum = 0
Injected packet rate average = 0.101813
	minimum = 0.084 (at node 12)
	maximum = 0.116 (at node 10)
Accepted packet rate average = 0.1
	minimum = 0.078 (at node 1)
	maximum = 0.115 (at node 11)
Injected flit rate average = 0.101813
	minimum = 0.084 (at node 12)
	maximum = 0.116 (at node 10)
Accepted flit rate average= 0.1
	minimum = 0.078 (at node 1)
	maximum = 0.115 (at node 11)
Injected packet length average = 1
Accepted packet length average = 1
Total in-flight flits = 29 (0 measured)
latency change    = 1
throughput change = 1
Class 0:
Packet latency average = 20.1143
	minimum = 7
	maximum = 51
Network latency average = 20.114
	minimum = 7
	maximum = 51
Slowest packet = 147042
Flit latency average = 20.114
	minimum = 7
	maximum = 51
Slowest flit = 147042
Fragmentation average = 0
	minimum = 0
	maximum = 0
Injected packet rate average = 0.100531
	minimum = 0.089 (at node 5)
	maximum = 0.1105 (at node 1)
Accepted packet rate average = 0.0995313
	minimum = 0.0795 (at node 1)
	maximum = 0.1085 (at node 11)
Injected flit rate average = 0.100531
	minimum = 0.089 (at node 5)
	maximum = 0.1105 (at node 1)
[...]
	minimum = 0.084 (at node 8)
	maximum = 0.117 (at node 15)
Accepted packet rate average = 0.097875
	minimum = 0.089 (at node 1)
	maximum = 0.116 (at node 10)
Injected flit rate average = 0.0983125
	minimum = 0.084 (at node 8)
	maximum = 0.117 (at node 15)
Accepted flit rate average= 0.097875
	minimum = 0.089 (at node 1)
	maximum = 0.116 (at node 10)
Injected packet length average = 1
Accepted packet length average = 1
Total in-flight flits = 36 (36 measured)
latency change    = 0.0100836
throughput change = 0.0274585
Class 0:
Packet latency average = 20.2056
	minimum = 7
	maximum = 45
Network latency average = 20.2056
	minimum = 7
	maximum = 45
Slowest packet = 967580
Flit latency average = 20.2203
	minimum = 7
	maximum = 45
Slowest flit = 967580
Fragmentation average = 0
	minimum = 0
	maximum = 0
Injected packet rate average = 0.097625
	minimum = 0.086 (at node 8)
	maximum = 0.1085 (at node 11)
Accepted packet rate average = 0.0977187
	minimum = 0.0865 (at node 15)
	maximum = 0.1075 (at node 9)
Injected flit rate average = 0.097625
	minimum = 0.086 (at node 8)
	maximum = 0.1085 (at node 11)
Accepted flit rate average= 0.0977187
	minimum = 0.0865 (at node 15)
	maximum = 0.1075 (at node 9)
Injected packet length average = 1
Accepted packet length average = 1
Total in-flight flits = 26 (26 measured)
latency change    = 0.00264144
throughput change = 0.00159898
Class 0:
Packet latency average = 20.1636
	minimum = 7
	maximum = 47
Network latency average = 20.1634
	minimum = 7
	maximum = 47
Slowest packet = 971045
Flit latency average = 20.1735
	minimum = 7
	maximum = 47
Slowest flit = 971045
Fragmentation average = 0
	minimum = 0
	maximum = 0
Injected packet rate average = 0.0981042
	minimum = 0.0906667 (at node 1)
	maximum = 0.107333 (at node 0)
Accepted packet rate average = 0.098
	minimum = 0.09 (at node 15)
	maximum = 0.104333 (at node 9)
Injected flit rate average = 0.0981042
	minimum = 0.0906667 (at node 1)
	maximum = 0.107333 (at node 0)
Accepted flit rate average= 0.098
	minimum = 0.09 (at node 15)
	maximum = 0.104333 (at node 9)
Injected packet length average = 1
Accepted packet length average = 1
Total in-flight flits = 34 (34 measured)
latency change    = 0.00208197
throughput change = 0.0028699
Draining all recorded packets ...
Draining remaining packets ...
Time taken is 6061 cycles
Class 0:
Packet latency average = 20.1209
	minimum = 7
	maximum = 49
Network latency average = 20.1203
	minimum = 7
	maximum = 49
Slowest packet = 972825
Flit latency average = 20.1203
	minimum = 7
	maximum = 49
Slowest flit = 972825
Fragmentation average = 0
	minimum = 0
	maximum = 0
Injected packet rate average = 0.104875
	minimum = 0.081 (at node 6)
	maximum = 0.117 (at node 2)
Accepted packet rate average = 0.102375
	minimum = 0.085 (at node 7)
	maximum = 0.118 (at node 11)
Injected flit rate average = 0.104875
	minimum = 0.081 (at node 6)
	maximum = 0.117 (at node 2)
Accepted flit rate average= 0.102375
	minimum = 0.085 (at node 7)
	maximum = 0.118 (at node 11)
Injected packet length average = 1
Accepted packet length average = 1
Total in-flight flits = 40 (0 measured)
latency change    = 1
throughput change = 1
Class 0:
Packet latency average = 20.0178
	minimum = 7
	maximum = 49
Network latency average = 20.0175
	minimum = 7
	maximum = 49
Slowest packet = 972825
Flit latency average = 20.0175
	minimum = 7
	maximum = 49
Slowest flit = 972825
Fragmentation average = 0
	minimum = 0
	maximum = 0
Injected packet rate average = 0.102531
	minimum = 0.089 (at node 6)
	maximum = 0.113 (at node 4)
Accepted packet rate average = 0.101562
	minimum = 0.082 (at node 7)
	maximum = 0.11 (at node 11)
Injected flit rate average = 0.102531
	minimum = 0.089 (at node 6)
	maximum = 0.113 (at node 4)
Accepted flit rate average= 0.101562
	minimum = 0.082 (at node 7)
	maximum = 0.11 (at node 11)
Injected packet length average = 1
Accepted packet length average = 1
Total in-flight flits = 31 (0 measured)
latency change    = 0.00514706
throughput change = 0.008
Class 0:
Packet latency average = 20.5721
	minimum = 7
	maximum = 44
Network latency average = 20.5715
	minimum = 7
	maximum = 44
Slowest packet = 975526
Flit latency average = 20.5715
	minimum = 7
	maximum = 44
Slowest flit = 975526
Fragmentation average = 0
	minimum = 0
	maximum = 0
Injected packet rate average = 0.099125
	minimum = 0.086 (at node 9)
	maximum = 0.113 (at node 11)
Accepted packet rate average = 0.0991875
	minimum = 0.082 (at node 11)
	maximum = 0.113 (at node 7)
Injected flit rate average = 0.099125
	minimum = 0.086 (at node 9)
	maximum = 0.113 (at node 11)
Accepted flit rate average= 0.0991875
	minimum = 0.082 (at node 11)
	maximum = 0.113 (at node 7)
Injected packet length average = 1
Accepted packet length average = 1
Total in-flight flits = 30 (0 measured)
latency change    = 0.0269443
throughput change = 0.0239445
Warmed up ...Time used is 3000 cycles
Class 0:
Packet latency average = 19.5924
	minimum = 7
	maximum = 44
Network latency average = 19.5917
	minimum = 7
	maximum = 44
Slowest packet = 977213
Flit latency average = 19.6669
	minimum = 7
	maximum = 44
Slowest flit = 977213
Fragmentation average = 0
	minimum = 0
	maximum = 0
Injected packet rate average = 0.100187
	minimum = 0.076 (at node 15)
	maximum = 0.119 (at node 4)
Accepted packet rate average = 0.1
	minimum = 0.086 (at node 11)
	maximum = 0.116 (at node 4)
Injected flit rate average = 0.100187
	minimum = 0.076 (at node 15)
	maximum = 0.119 (at node 4)
Accepted flit rate average= 0.1
	minimum = 0.086 (at node 11)
	maximum = 0.116 (at node 4)
Injected packet length average = 1
Accepted packet length average = 1
Total in-flight flits = 33 (33 measured)
latency change    = 0.0500089
throughput change = 0.008125
Class 0:
Packet latency average = 19.7964
	minimum = 7
	maximum = 44
Network latency average = 19.7961
	minimum = 7
	maximum = 44
Slowest packet = 977213
Flit latency average = 19.8323
	minimum = 7
	maximum = 44
Slowest flit = 977213
Fragmentation average = 0
	minimum = 0
	maximum = 0
Injected packet rate average = 0.0988437
	minimum = 0.0815 (at node 15)
	maximum = 0.1075 (at node 4)
Accepted packet rate average = 0.0985625
	minimum = 0.0875 (at node 11)
	maximum = 0.1175 (at node 6)
Injected flit rate average = 0.0988437
	minimum = 0.0815 (at node 15)
	maximum = 0.1075 (at node 4)
Accepted flit rate average= 0.0985625
	minimum = 0.0875 (at node 11)
	maximum = 0.1175 (at node 6)
Injected packet length average = 1
Accepted packet length average = 1
Total in-flight flits = 39 (39 measured)
latency change    = 0.0103078
throughput change = 0.0145847
Class 0:
Packet latency average = 19.9296
	minimum = 7
	maximum = 44
Network latency average = 19.9294
	minimum = 7
	maximum = 44
Slowest packet = 977213
Flit latency average = 19.9524
	minimum = 7
	maximum = 44
Slowest flit = 977213
Fragmentation average = 0
	minimum = 0
	maximum = 0
Injected packet rate average = 0.0994375
	minimum = 0.0923333 (at node 15)
	maximum = 0.106333 (at node 14)
Accepted packet rate average = 0.0994375
	minimum = 0.0903333 (at node 11)
	maximum = 0.113 (at node 6)
Injected flit rate average = 0.0994375
	minimum = 0.0923333 (at node 15)
	maximum = 0.106333 (at node 14)
Accepted flit rate average= 0.0994375
	minimum = 0.0903333 (at node 11)
	maximum = 0.113 (at node 6)
Injected packet length average = 1
Accepted packet length average = 1
Total in-flight flits = 30 (30 measured)
latency change    = 0.00668181
throughput change = 0.0087995
Class 0:
Packet latency average = 19.944
	minimum = 7
	maximum = 45
Network latency average = 19.9439
	minimum = 7
	maximum = 45
Slowest packet = 981914
Flit latency average = 19.9611
	minimum = 7
	maximum = 45
Slowest flit = 981914
Fragmentation average = 0
	minimum = 0
	maximum = 0
Injected packet rate average = 0.0991875
	minimum = 0.09325 (at node 15)
	maximum = 0.104 (at node 9)
Accepted packet rate average = 0.0992656
	minimum = 0.09125 (at node 11)
	maximum = 0.10675 (at node 4)
Injected flit rate average = 0.0991875
	minimum = 0.09325 (at node 15)
	maximum = 0.104 (at node 9)
Accepted flit rate average= 0.0992656
	minimum = 0.09125 (at node 11)
	maximum = 0.10675 (at node 4)
Injected packet length average = 1
Accepted packet length average = 1
Total in-flight flits = 25 (25 measured)
latency change    = 0.0007237
throughput change = 0.00173147
Draining all recorded packets ...
Draining remaining packets ...
Time taken is 7066 cycles
Class 0:
Packet latency average = 20.0783
	minimum = 7
	maximum = 47
Network latency average = 20.0776
	minimum = 7
	maximum = 47
Slowest packet = 984433
Flit latency average = 20.0776
	minimum = 7
	maximum = 47
Slowest flit = 984433
Fragmentation average = 0
	minimum = 0
	maximum = 0
Injected packet rate average = 0.0955625
	minimum = 0.081 (at node 4)
	maximum = 0.113 (at node 9)
Accepted packet rate average = 0.0934375
	minimum = 0.075 (at node 11)
	maximum = 0.106 (at node 10)
Injected flit rate average = 0.0955625
	minimum = 0.081 (at node 4)
	maximum = 0.113 (at node 9)
Accepted flit rate average= 0.0934375
	minimum = 0.075 (at node 11)
	maximum = 0.106 (at node 10)
Injected packet length average = 1
Accepted packet length average = 1
Total in-flight flits = 34 (0 measured)
latency change    = 1
throughput change = 1
Class 0:
Packet latency average = 20.1573
	minimum = 7
	maximum = 52
Network latency average = 20.1566
	minimum = 7
	maximum = 52
Slowest packet = 986161
Flit latency average = 20.1566
	minimum = 7
	maximum = 52
Slowest flit = 986161
Fragmentation average = 0
	minimum = 0
	maximum = 0
Injected packet rate average = 0.0966562
	minimum = 0.089 (at node 4)
	maximum = 0.108 (at node 7)
Accepted packet rate average = 0.0957812
	minimum = 0.0845 (at node 11)
	maximum = 0.108 (at node 0)
Injected flit rate average = 0.0966562
	minimum = 0.089 (at node 4)
	maximum = 0.108 (at node 7)
Accepted flit rate average= 0.0957812
	minimum = 0.0845 (at node 11)
	maximum = 0.108 (at node 0)
Injected packet length average = 1
Accepted packet length average = 1
Total in-flight flits = 28 (0 measured)
latency change    = 0.00391911
throughput change = 0.0244698
Class 0:
Packet latency average = 20.1628
	minimum = 7
	maximum = 45
Network latency average = 20.1621
	minimum = 7
	maximum = 45
Slowest packet = 986948
Flit latency average = 20.1621
	minimum = 7
	maximum = 45
Slowest flit = 986948
Fragmentation average = 0
	minimum = 0
	maximum = 0
Injected packet rate average = 0.099125
	minimum = 0.087 (at node 5)
	maximum = 0.123 (at node 13)
Accepted packet rate average = 0.0990625
	minimum = 0.083 (at node 5)
	maximum = 0.127 (at node 14)
Injected flit rate average = 0.099125
	minimum = 0.087 (at node 5)
	maximum = 0.123 (at node 13)
Accepted flit rate average= 0.0990625
	minimum = 0.083 (at node 5)
	maximum = 0.127 (at node 14)
Injected packet length average = 1
Accepted packet length average = 1
Total in-flight flits = 29 (0 measured)
latency change    = 0.000273605
throughput change = 0.033123
Warmed up ...Time used is 3000 cycles
Class 0:
Packet latency average = 20.1743
	minimum = 7
	maximum = 51
Network latency average = 20.1737
	minimum = 7
	maximum = 51
Slowest packet = 989454
Flit latency average = 20.1801
	minimum = 7
	maximum = 51
Slowest flit = 989454
Fragmentation average = 0
	minimum = 0
	maximum = 0
Injected packet rate average = 0.0969375
	minimum = 0.08 (at node 6)
	maximum = 0.109 (at node 9)
Accepted packet rate average = 0.0968125
	minimum = 0.085 (at node 15)
	maximum = 0.111 (at node 0)
Injected flit rate average = 0.0969375
	minimum = 0.08 (at node 6)
	maximum = 0.109 (at node 9)
Accepted flit rate average= 0.0968125
	minimum = 0.085 (at node 15)
	maximum = 0.111 (at node 0)
Injected packet length average = 1
Accepted packet length average = 1
Total in-flight flits = 31 (31 measured)
latency change    = 0.000573306
throughput change = 0.0232408
Class 0:
Packet latency average = 20.0471
	minimum = 7
	maximum = 51
Network latency average = 20.0462
	minimum = 7
	maximum = 51
Slowest packet = 989454
Flit latency average = 20.0505
	minimum = 7
	maximum = 51
Slowest flit = 989454
Fragmentation average = 0
	minimum = 0
	maximum = 0
Injected packet rate average = 0.0991875
	minimum = 0.085 (at node 6)
	maximum = 0.11 (at node 4)
Accepted packet rate average = 0.099
	minimum = 0.09 (at node 2)
	maximum = 0.11 (at node 0)
Injected flit rate average = 0.0991875
	minimum = 0.085 (at node 6)
	maximum = 0.11 (at node 4)
Accepted flit rate average= 0.099
	minimum = 0.09 (at node 2)
	maximum = 0.11 (at node 0)
Injected packet length average = 1
Accepted packet length average = 1
Total in-flight flits = 35 (35 measured)
latency change    = 0.00634471
throughput change = 0.022096
Class 0:
Packet latency average = 20.0242
	minimum = 7
	maximum = 51
Network latency average = 20.0231
	minimum = 7
	maximum = 51
Slowest packet = 989454
Flit latency average = 20.0261
	minimum = 7
	maximum = 51
Slowest flit = 989454
Fragmentation average = 0
	minimum = 0
	maximum = 0
Injected packet rate average = 0.100542
	minimum = 0.0936667 (at node 6)
	maximum = 0.109 (at node 7)
Accepted packet rate average = 0.100604
	minimum = 0.093 (at node 2)
	maximum = 0.113 (at node 10)
Injected flit rate average = 0.100542
	minimum = 0.0936667 (at node 6)
	maximum = 0.109 (at node 7)
Accepted flit rate average= 0.100604
	minimum = 0.093 (at node 2)
	maximum = 0.113 (at node 10)
Injected packet length average = 1
Accepted packet length average = 1
Total in-flight flits = 26 (26 measured)
latency change    = 0.00114772
throughput change = 0.0159453
Draining all recorded packets ...
Draining remaining packets ...
Time taken is 6085 cycles
Class 0:
Packet latency average = 19.9649
	minimum = 7
	maximum = 46
Network latency average = 19.9643
	minimum = 7
	maximum = 46
Slowest packet = 993657
Flit latency average = 19.9643
	minimum = 7
	maximum = 46
Slowest flit = 993657
Fragmentation average = 0
	minimum = 0
	maximum = 0
Injected packet rate average = 0.0958125
	minimum = 0.079 (at node 10)
	maximum = 0.112 (at node 1)
Accepted packet rate average = 0.0944375
	minimum = 0.078 (at node 2)
	maximum = 0.115 (at node 12)
Injected flit rate average = 0.0958125
	minimum = 0.079 (at node 10)
	maximum = 0.112 (at node 1)
Accepted flit rate average= 0.0944375
	minimum = 0.078 (at node 2)
	maximum = 0.115 (at node 12)
Injected packet length average = 1
Accepted packet length average = 1
Total in-flight flits = 22 (0 measured)
latency change    = 1
throughput change = 1
Class 0:
Packet latency average = 19.7716
	minimum = 7
	maximum = 46
Network latency average = 19.7706
	minimum = 7
	maximum = 46
Slowest packet = 993657
Flit latency average = 19.7706
	minimum = 7
	maximum = 46
Slowest flit = 993657
Fragmentation average = 0
	minimum = 0
	maximum = 0
Injected packet rate average = 0.0992813
	minimum = 0.0915 (at node 2)
	maximum = 0.11 (at node 6)
Accepted packet rate average = 0.098375
	minimum = 0.085 (at node 3)
	maximum = 0.114 (at node 12)
Injected flit rate average = 0.0992813
	minimum = 0.0915 (at node 2)
	maximum = 0.11 (at node 6)
Accepted flit rate average= 0.098375
	minimum = 0.085 (at node 3)
	maximum = 0.114 (at node 12)
Injected packet length average = 1
Accepted packet length average = 1
Total in-flight flits = 29 (0 measured)
latency change    = 0.00977781
throughput change = 0.0400254
Class 0:
Packet latency average = 19.964
	minimum = 7
	maximum = 56
Network latency average = 19.9621
	minimum = 7
	maximum = 56
Slowest packet = 996483
Flit latency average = 19.9621
	minimum = 7
	maximum = 56
Slowest flit = 996483
Fragmentation average = 0
	minimum = 0
	maximum = 0
Injected packet rate average = 0.09725
	minimum = 0.085 (at node 8)
	maximum = 0.115 (at node 6)
Accepted packet rate average = 0.0973125
	minimum = 0.082 (at node 11)
	maximum = 0.125 (at node 10)
Injected flit rate average = 0.09725
	minimum = 0.085 (at node 8)
	maximum = 0.115 (at node 6)
Accepted flit rate average= 0.0973125
	minimum = 0.082 (at node 11)
	maximum = 0.125 (at node 10)
Injected packet length average = 1
Accepted packet length average = 1
Total in-flight flits = 28 (0 measured)
latency change    = 0.00963895
throughput change = 0.0109184
Warmed up ...Time used is 3000 cycles
Class 0:
Packet latency average = 19.3624
	minimum = 7
	maximum = 41
Network latency average = 19.3618
	minimum = 7
	maximum = 41
Slowest packet = 999165
Flit latency average = 19.4479
	minimum = 7
	maximum = 45
Slowest flit = 997634
Fragmentation average = 0
	minimum = 0
	maximum = 0
Injected packet rate average = 0.10175
	minimum = 0.081 (at node 3)
	maximum = 0.121 (at node 1)
Accepted packet rate average = 0.101437
	minimum = 0.087 (at node 14)
	maximum = 0.126 (at node 10)
Injected flit rate average = 0.10175
	minimum = 0.081 (at node 3)
	maximum = 0.121 (at node 1)
Accepted flit rate average= 0.101437
	minimum = 0.087 (at node 14)
	maximum = 0.126 (at node 10)
Injected packet length average = 1
Accepted packet length average = 1
Total in-flight flits = 33 (33 measured)
latency change    = 0.0310732
throughput change = 0.0406654
Class 0:
Packet latency average = 19.5397
	minimum = 7
	maximum = 45
Network latency average = 19.539
	minimum = 7
	maximum = 45
Slowest packet = 999389
Flit latency average = 19.5813
	minimum = 7
	maximum = 45
Slowest flit = 997634
Fragmentation average = 0
	minimum = 0
	maximum = 0
Injected packet rate average = 0.0999687
	minimum = 0.0845 (at node 3)
	maximum = 0.1125 (at node 8)
Accepted packet rate average = 0.0997187
	minimum = 0.0835 (at node 9)
	maximum = 0.115 (at node 10)
Injected flit rate average = 0.0999687
	minimum = 0.0845 (at node 3)
	maximum = 0.1125 (at node 8)
Accepted flit rate average= 0.0997187
	minimum = 0.0835 (at node 9)
	maximum = 0.115 (at node 10)
Injected packet length average = 1
Accepted packet length average = 1
Total in-flight flits = 36 (36 measured)
latency change    = 0.00907359
throughput change = 0.017236
Class 0:
Packet latency average = 19.753
	minimum = 7
	maximum = 45
Network latency average = 19.7524
	minimum = 7
	maximum = 45
Slowest packet = 999389
Flit latency average = 19.7793
	minimum = 7
	maximum = 45
Slowest flit = 997634
Fragmentation average = 0
	minimum = 0
	maximum = 0
Injected packet rate average = 0.0996667
	minimum = 0.0856667 (at node 3)
	maximum = 0.11 (at node 8)
Accepted packet rate average = 0.0996042
	minimum = 0.0843333 (at node 9)
	maximum = 0.111667 (at node 5)
Injected flit rate average = 0.0996667
	minimum = 0.0856667 (at node 3)
	maximum = 0.11 (at node 8)
Accepted flit rate average= 0.0996042
	minimum = 0.0843333 (at node 9)
	maximum = 0.111667 (at node 5)
Injected packet length average = 1
Accepted packet length average = 1
Total in-flight flits = 31 (31 measured)
latency change    = 0.0107994
throughput change = 0.00115039
Draining all recorded packets ...
Draining remaining packets ...
Time taken is 6060 cycles
====== Overall Traffic Statistics ======
====== Traffic class 0 ======
Packet latency average = 20.0302 (100 samples)
	minimum = 7 (100 samples)
	maximum = 50.36 (100 samples)
Network latency average = 20.0292 (100 samples)
	minimum = 7 (100 samples)
	maximum = 50.36 (100 samples)
Flit latency average = 20.0445 (100 samples)
	minimum = 7 (100 samples)
	maximum = 50.36 (100 samples)
Fragmentation average = 0 (100 samples)
	minimum = 0 (100 samples)
	maximum = 0 (100 samples)
Injected packet rate average = 0.100057 (100 samples)
	minimum = 0.090835 (100 samples)
	maximum = 0.109592 (100 samples)
Accepted packet rate average = 0.10008 (100 samples)
	minimum = 0.0903933 (100 samples)
	maximum = 0.110182 (100 samples)
Injected flit rate average = 0.100057 (100 samples)
	minimum = 0.090835 (100 samples)
	maximum = 0.109592 (100 samples)
Accepted flit rate average = 0.10008 (100 samples)
	minimum = 0.0903933 (100 samples)
	maximum = 0.110182 (100 samples)
Injected packet size average = 1 (100 samples)
Accepted packet size average = 1 (100 samples)
Hops average = 3.50088 (100 samples)
Total run time 10.1433
