BEGIN Configuration File: /tmp/tmpqe6n5xcj.cfg
topology = mesh;
k = 8; n = 2;
routing_function = planar_adapt;
num_vcs = 4; vc_buf_size = 4;
wait_for_tail_credit = 1;
vc_allocator = islip; sw_allocator = islip;
alloc_iters = 1;
credit_delay = 2; routing_delay = 1;
vc_alloc_delay = 1; sw_alloc_delay = 1;
input_speedup = 2; output_speedup = 1; internal_speedup = 1.0;
traffic = transpose;
packet_size = 1; sim_type = latency;
injection_rate = 0.01;
warmup_periods = 3; sample_period = 1000; sim_count = 100;
seed = 2;

END Configuration File: /tmp/tmpqe6n5xcj.cfg
Class 0:
Packet latency average = 32.2092
	minimum = 7
	maximum = 81
Network latency average = 32.2092
	minimum = 7
	maximum = 81
Slowest packet = 224
Flit latency average = 32.2092
	minimum = 7
	maximum = 81
Slowest flit = 224
Fragmentation average = 0
	minimum = 0
	maximum = 0
Injected packet rate average = 0.00982813
	minimum = 0.003 (at node 2)
	maximum = 0.017 (at node 0)
Accepted packet rate average = 0.00948437
	minimum = 0.003 (at node 5)
	maximum = 0.017 (at node 0)
Injected flit rate average = 0.00982813
	minimum = 0.003 (at node 2)
	maximum = 0.017 (at node 0)
Accepted flit rate average= 0.00948437
	minimum = 0.003 (at node 5)
	maximum = 0.017 (at node 0)
Injected packet length average = 1
Accepted packet length average = 1
Total in-flight flits = 22 (0 measured)
latency change    = 1
throughput change = 1
Class 0:
Packet latency average = 33.4663
	minimum = 7
	maximum = 86
Network latency average = 33.4663
	minimum = 7
	maximum = 86
Slowest packet = 1213
Flit latency average = 33.4663
	minimum = 7
	maximum = 86
Slowest flit = 1213
Fragmentation average = 0
	minimum = 0
	maximum = 0
Injected packet rate average = 0.0100078
	minimum = 0.0045 (at node 40)
	maximum = 0.015 (at node 3)
Accepted packet rate average = 0.00986719
	minimum = 0.004 (at node 5)
	maximum = 0.0145 (at node 24)
Injected flit rate average = 0.0100078
	minimum = 0.0045 (at node 40)
	maximum = 0.015 (at node 3)
Accepted flit rate average= 0.00986719
	minimum = 0.004 (at node 5)
	maximum = 0.0145 (at node 24)
Injected packet length average = 1
Accepted packet length average = 1
Total in-flight flits = 18 (0 measured)
latency change    = 0.0375638
throughput change = 0.0387965
Class 0:
Packet latency average = 33.6905
	minimum = 7
	maximum = 77
Network latency average = 33.6905
	minimum = 7
	maximum = 77
Slowest packet = 1265
Flit latency average = 33.6905
	minimum = 7
	maximum = 77
Slowest flit = 1265
Fragmentation average = 0
	minimum = 0
	maximum = 0
Injected packet rate average = 0.0110312
	minimum = 0.002 (at node 41)
	maximum = 0.018 (at node 32)
Accepted packet rate average = 0.0109062
	minimum = 0.002 (at node 13)
	maximum = 0.018 (at node 4)
Injected flit rate average = 0.0110312
	minimum = 0.002 (at node 41)
	maximum = 0.018 (at node 32)
Accepted flit rate average= 0.0109062
	minimum = 0.002 (at node 13)
	maximum = 0.018 (at node 4)
Injected packet length average = 1
Accepted packet length average = 1
Total in-flight flits = 26 (0 measured)
latency change    = 0.00665452
throughput change = 0.0952722
Warmed up ...Time used is 3000 cycles
Class 0:
Packet latency average = 33.41
	minimum = 7
	maximum = 84
Network latency average = 33.41
	minimum = 7
	maximum = 84
Slowest packet = 2350
Flit latency average = 33.6867
	minimum = 7
	maximum = 84
Slowest flit = 2350
Fragmentation average = 0
	minimum = 0
	maximum = 0
Injected packet rate average = 0.0100625
	minimum = 0.002 (at node 38)
	maximum = 0.019 (at node 5)
Accepted packet rate average = 0.010125
	minimum = 0.002 (at node 52)
	maximum = 0.02 (at node 40)
Injected flit rate average = 0.0100625
	minimum = 0.002 (at node 38)
	maximum = 0.019 (at node 5)
Accepted flit rate average= 0.010125
	minimum = 0.002 (at node 52)
	maximum = 0.02 (at node 40)
Injected packet length average = 1
Accepted packet length average = 1
Total in-flight flits = 22 (22 measured)
latency change    = 0.00839799
throughput change = 0.0771605
Class 0:
Packet latency average = 33.1178
	minimum = 7
	maximum = 91
Network latency average = 33.1178
	minimum = 7
	maximum = 91
Slowest packet = 3016
Flit latency average = 33.2697
	minimum = 7
	maximum = 91
Slowest flit = 3016
Fragmentation average = 0
	minimum = 0
	maximum = 0
Injected packet rate average = 0.00961719
	minimum = 0.0035 (at node 38)
	maximum = 0.0145 (at node 6)
Accepted packet rate average = 0.00961719
	minimum = 0.0035 (at node 52)
	maximum = 0.0145 (at node 48)
Injected flit rate average = 0.00961719
	minimum = 0.0035 (at node 38)
	maximum = 0.0145 (at node 6)
Accepted flit rate average= 0.00961719
	minimum = 0.0035 (at node 52)
	maximum = 0.0145 (at node 48)
Injected packet length average = 1
Accepted packet length average = 1
Total in-flight flits = 26 (26 measured)
latency change    = 0.00882079
throughput change = 0.0528026
Class 0:
Packet latency average = 33.504
	minimum = 7
	maximum = 91
Network latency average = 33.504
	minimum = 7
	maximum = 91
Slowest packet = 3016
Flit latency average = 33.5976
	minimum = 7
	maximum = 91
Slowest flit = 3016
Fragmentation average = 0
	minimum = 0
	maximum = 0
Injected packet rate average = 0.0098125
	minimum = 0.00533333 (at node 38)
	maximum = 0.0146667 (at node 44)
Accepted packet rate average = 0.00984896
	minimum = 0.00533333 (at node 52)
	maximum = 0.0146667 (at node 37)
Injected flit rate average = 0.0098125
	minimum = 0.00533333 (at node 38)
	maximum = 0.0146667 (at node 44)
Accepted flit rate average= 0.00984896
	minimum = 0.00533333 (at node 52)
	maximum = 0.0146667 (at node 37)
Injected packet length average = 1
Accepted packet length average = 1
Total in-flight flits = 19 (19 measured)
latency change    = 0.0115264
throughput change = 0.0235325
Class 0:
Packet latency average = 33.4627
	minimum = 7
	maximum = 91
Network latency average = 33.4627
	minimum = 7
	maximum = 91
Slowest packet = 3016
Flit latency average = 33.5329
	minimum = 7
	maximum = 91
Slowest flit = 3016
Fragmentation average = 0
	minimum = 0
	maximum = 0
Injected packet rate average = 0.00988672
	minimum = 0.00625 (at node 38)
	maximum = 0.014 (at node 61)
Accepted packet rate average = 0.00990234
	minimum = 0.00625 (at node 52)
	maximum = 0.014 (at node 47)
Injected flit rate average = 0.00988672
	minimum = 0.00625 (at node 38)
	maximum = 0.014 (at node 61)
Accepted flit rate average= 0.00990234
	minimum = 0.00625 (at node 52)
	maximum = 0.014 (at node 47)
Injected packet length average = 1
Accepted packet length average = 1
Total in-flight flits = 22 (22 measured)
latency change    = 0.00123383
throughput change = 0.00539119
Class 0:
Packet latency average = 33.606
	minimum = 7
	maximum = 91
Network latency average = 33.606
	minimum = 7
	maximum = 91
Slowest packet = 3016
Flit latency average = 33.6607
	minimum = 7
	maximum = 91
Slowest flit = 3016
Fragmentation average = 0
	minimum = 0
	maximum = 0
Injected packet rate average = 0.00992812
	minimum = 0.0064 (at node 38)
	maximum = 0.0134 (at node 61)
Accepted packet rate average = 0.00994688
	minimum = 0.0064 (at node 52)
	maximum = 0.013 (at node 36)
Injected flit rate average = 0.00992812
	minimum = 0.0064 (at node 38)
	maximum = 0.0134 (at node 61)
Accepted flit rate average= 0.00994688
	minimum = 0.0064 (at node 52)
	maximum = 0.013 (at node 36)
Injected packet length average = 1
Accepted packet length average = 1
Total in-flight flits = 20 (20 measured)
latency change    = 0.00426177
throughput change = 0.00447691
Draining all recorded packets ...
Draining remaining packets ...
Time taken is 8149 cycles
Class 0:
Packet latency average = 32.2113
	minimum = 7
	maximum = 81
Network latency average = 32.2113
	minimum = 7
	maximum = 81
Slowest packet = 5480
Flit latency average = 32.2113
	minimum = 7
	maximum = 81
Slowest flit = 5480
Fragmentation average = 0
	minimum = 0
	maximum = 0
Injected packet rate average = 0.00965625
	minimum = 0.004 (at node 15)
	maximum = 0.02 (at node 55)
Accepted packet rate average = 0.00939062
	minimum = 0.003 (at node 57)
	maximum = 0.02 (at node 62)
Injected flit rate average = 0.00965625
	minimum = 0.004 (at node 15)
	maximum = 0.02 (at node 55)
Accepted flit rate average= 0.00939062
	minimum = 0.003 (at node 57)
	maximum = 0.02 (at node 62)
Injected packet length average = 1
Accepted packet length average = 1
Total in-flight flits = 17 (0 measured)
latency change    = 1
throughput change = 1
Class 0:
Packet latency average = 32.6292
	minimum = 7
	maximum = 86
Network latency average = 32.6292
	minimum = 7
	maximum = 86
Slowest packet = 6146
Flit latency average = 32.6292
	minimum = 7
	maximum = 86
Slowest flit = 6146
Fragmentation average = 0
	minimum = 0
	maximum = 0
Injected packet rate average = 0.00958594
	minimum = 0.0055 (at node 15)
	maximum = 0.0195 (at node 55)
Accepted packet rate average = 0.00946094
	minimum = 0.0055 (at node 46)
	maximum = 0.019 (at node 62)
Injected flit rate average = 0.00958594
	minimum = 0.0055 (at node 15)
	maximum = 0.0195 (at node 55)
Accepted flit rate average= 0.00946094
	minimum = 0.0055 (at node 46)
	maximum = 0.019 (at node 62)
Injected packet length average = 1
Accepted packet length average = 1
Total in-flight flits = 16 (0 measured)
latency change    = 0.0128081
throughput change = 0.00743187
Class 0:
Packet latency average = 33.8687
	minimum = 7
	maximum = 87
Network latency average = 33.8687
	minimum = 7
	maximum = 87
Slowest packet = 6938
Flit latency average = 33.8687
	minimum = 7
	maximum = 87
Slowest flit = 6938
Fragmentation average = 0
	minimum = 0
	maximum = 0
Injected packet rate average = 0.0098125
	minimum = 0.003 (at node 43)
	maximum = 0.021 (at node 4)
Accepted packet rate average = 0.00964062
	minimum = 0.003 (at node 14)
	maximum = 0.022 (at node 32)
Injected flit rate average = 0.0098125
	minimum = 0.003 (at node 43)
	maximum = 0.021 (at node 4)
Accepted flit rate average= 0.00964062
	minimum = 0.003 (at node 14)
	maximum = 0.022 (at node 32)
Injected packet length average = 1
Accepted packet length average = 1
Total in-flight flits = 27 (0 measured)
latency change    = 0.0365968
throughput change = 0.0186386
Warmed up ...Time used is 3000 cycles
Class 0:
Packet latency average = 32.609
	minimum = 7
	maximum = 81
Network latency average = 32.609
	minimum = 7
	maximum = 81
Slowest packet = 7651
Flit latency average = 33.3175
	minimum = 7
	maximum = 86
Slowest flit = 7073
Fragmentation average = 0
	minimum = 0
	maximum = 0
Injected packet rate average = 0.0104688
	minimum = 0.004 (at node 56)
	maximum = 0.018 (at node 35)
Accepted packet rate average = 0.0105313
	minimum = 0.006 (at node 7)
	maximum = 0.017 (at node 38)
Injected flit rate average = 0.0104688
	minimum = 0.004 (at node 56)
	maximum = 0.018 (at node 35)
Accepted flit rate average= 0.0105313
	minimum = 0.006 (at node 7)
	maximum = 0.017 (at node 38)
Injected packet length average = 1
Accepted packet length average = 1
Total in-flight flits = 23 (23 measured)
latency change    = 0.0386322
throughput change = 0.0845697
Class 0:
Packet latency average = 32.9559
	minimum = 7
	maximum = 82
Network latency average = 32.9559
	minimum = 7
	maximum = 82
Slowest packet = 7784
Flit latency average = 33.3106
	minimum = 7
	maximum = 86
Slowest flit = 7073
Fragmentation average = 0
	minimum = 0
	maximum = 0
Injected packet rate average = 0.0102578
	minimum = 0.005 (at node 25)
	maximum = 0.0145 (at node 1)
Accepted packet rate average = 0.0103125
	minimum = 0.005 (at node 11)
	maximum = 0.014 (at node 4)
Injected flit rate average = 0.0102578
	minimum = 0.005 (at node 25)
	maximum = 0.0145 (at node 1)
Accepted flit rate average= 0.0103125
	minimum = 0.005 (at node 11)
	maximum = 0.014 (at node 4)
Injected packet length average = 1
Accepted packet length average = 1
Total in-flight flits = 20 (20 measured)
latency change    = 0.0105278
throughput change = 0.0212121
Class 0:
Packet latency average = 33.2623
	minimum = 7
	maximum = 87
Network latency average = 33.2623
	minimum = 7
	maximum = 87
Slowest packet = 8479
Flit latency average = 33.4969
	minimum = 7
	maximum = 87
Slowest flit = 8479
Fragmentation average = 0
	minimum = 0
	maximum = 0
Injected packet rate average = 0.0101458
	minimum = 0.005 (at node 25)
	maximum = 0.0143333 (at node 24)
Accepted packet rate average = 0.0102083
	minimum = 0.005 (at node 11)
	maximum = 0.014 (at node 3)
Injected flit rate average = 0.0101458
	minimum = 0.005 (at node 25)
	maximum = 0.0143333 (at node 24)
Accepted flit rate average= 0.0102083
	minimum = 0.005 (at node 11)
	maximum = 0.014 (at node 3)
Injected packet length average = 1
Accepted packet length average = 1
Total in-flight flits = 15 (15 measured)
latency change    = 0.00921074
throughput change = 0.0102041
Class 0:
Packet latency average = 33.44
	minimum = 7
	maximum = 91
Network latency average = 33.44
	minimum = 7
	maximum = 91
Slowest packet = 9131
Flit latency average = 33.6132
	minimum = 7
	maximum = 91
Slowest flit = 9131
Fragmentation average = 0
	minimum = 0
	maximum = 0
Injected packet rate average = 0.010207
	minimum = 0.007 (at node 23)
	maximum = 0.0145 (at node 24)
Accepted packet rate average = 0.0102695
	minimum = 0.00675 (at node 58)
	maximum = 0.0145 (at node 3)
Injected flit rate average = 0.010207
	minimum = 0.007 (at node 23)
	maximum = 0.0145 (at node 24)
Accepted flit rate average= 0.0102695
	minimum = 0.00675 (at node 58)
	maximum = 0.0145 (at node 3)
Injected packet length average = 1
Accepted packet length average = 1
Total in-flight flits = 11 (11 measured)
latency change    = 0.00531577
throughput change = 0.00595917
Draining all recorded packets ...
Draining remaining packets ...
Time taken is 7118 cycles
Class 0:
Packet latency average = 33.9952
	minimum = 7
	maximum = 91
Network latency average = 33.9952
	minimum = 7
	maximum = 91
Slowest packet = 9949
Flit latency average = 33.9952
	minimum = 7
	maximum = 91
Slowest flit = 9949
Fragmentation average = 0
	minimum = 0
	maximum = 0
Injected packet rate average = 0.00996875
	minimum = 0.003 (at node 32)
	maximum = 0.017 (at node 8)
Accepted packet rate average = 0.00970312
	minimum = 0.003 (at node 4)
	maximum = 0.017 (at node 1)
Injected flit rate average = 0.00996875
	minimum = 0.003 (at node 32)
	maximum = 0.017 (at node 8)
Accepted flit rate average= 0.00970312
	minimum = 0.003 (at node 4)
	maximum = 0.017 (at node 1)
Injected packet length average = 1
Accepted packet length average = 1
Total in-flight flits = 17 (0 measured)
latency change    = 1
throughput change = 1
Class 0:
Packet latency average = 33.658
	minimum = 7
	maximum = 91
Network latency average = 33.658
	minimum = 7
	maximum = 91
Slowest packet = 9949
Flit latency average = 33.658
	minimum = 7
	maximum = 91
Slowest flit = 9949
Fragmentation average = 0
	minimum = 0
	maximum = 0
Injected packet rate average = 0.0101719
	minimum = 0.0055 (at node 28)
	maximum = 0.015 (at node 27)
Accepted packet rate average = 0.00996094
	minimum = 0.0055 (at node 5)
	maximum = 0.015 (at node 27)
Injected flit rate average = 0.0101719
	minimum = 0.0055 (at node 28)
	maximum = 0.015 (at node 27)
Accepted flit rate average= 0.00996094
	minimum = 0.0055 (at node 5)
	maximum = 0.015 (at node 27)
Injected packet length average = 1
Accepted packet length average = 1
Total in-flight flits = 27 (0 measured)
latency change    = 0.0100163
throughput change = 0.0258824
Class 0:
Packet latency average = 33.4345
	minimum = 7
	maximum = 89
Network latency average = 33.4345
	minimum = 7
	maximum = 89
Slowest packet = 11349
Flit latency average = 33.4345
	minimum = 7
	maximum = 89
Slowest flit = 11349
Fragmentation average = 0
	minimum = 0
	maximum = 0
Injected packet rate average = 0.0100469
	minimum = 0.003 (at node 44)
	maximum = 0.019 (at node 52)
Accepted packet rate average = 0.0101406
	minimum = 0.003 (at node 37)
	maximum = 0.018 (at node 1)
Injected flit rate average = 0.0100469
	minimum = 0.003 (at node 44)
	maximum = 0.019 (at node 52)
Accepted flit rate average= 0.0101406
	minimum = 0.003 (at node 37)
	maximum = 0.018 (at node 1)
Injected packet length average = 1
Accepted packet length average = 1
Total in-flight flits = 21 (0 measured)
latency change    = 0.00668544
throughput change = 0.0177196
Warmed up ...Time used is 3000 cycles
Class 0:
Packet latency average = 33.7399
	minimum = 7
	maximum = 84
Network latency average = 33.7399
	minimum = 7
	maximum = 84
Slowest packet = 12195
Flit latency average = 33.9703
	minimum = 7
	maximum = 84
Slowest flit = 12195
Fragmentation average = 0
	minimum = 0
	maximum = 0
Injected packet rate average = 0.0100781
	minimum = 0.003 (at node 9)
	maximum = 0.016 (at node 0)
Accepted packet rate average = 0.01
	minimum = 0.003 (at node 9)
	maximum = 0.016 (at node 0)
Injected flit rate average = 0.0100781
	minimum = 0.003 (at node 9)
	maximum = 0.016 (at node 0)
Accepted flit rate average= 0.01
	minimum = 0.003 (at node 9)
	maximum = 0.016 (at node 0)
Injected packet length average = 1
Accepted packet length average = 1
Total in-flight flits = 26 (26 measured)
latency change    = 0.00905125
throughput change = 0.0140625
Class 0:
Packet latency average = 33.6632
	minimum = 7
	maximum = 87
Network latency average = 33.6632
	minimum = 7
	maximum = 87
Slowest packet = 12278
Flit latency average = 33.7797
	minimum = 7
	maximum = 87
Slowest flit = 12278
Fragmentation average = 0
	minimum = 0
	maximum = 0
Injected packet rate average = 0.0100313
	minimum = 0.005 (at node 9)
	maximum = 0.0155 (at node 50)
Accepted packet rate average = 0.01
	minimum = 0.005 (at node 9)
	maximum = 0.0155 (at node 22)
Injected flit rate average = 0.0100313
	minimum = 0.005 (at node 9)
	maximum = 0.0155 (at node 50)
Accepted flit rate average= 0.01
	minimum = 0.005 (at node 9)
	maximum = 0.0155 (at node 22)
Injected packet length average = 1
Accepted packet length average = 1
Total in-flight flits = 25 (25 measured)
latency change    = 0.00227781
throughput change = 0
Class 0:
Packet latency average = 33.8346
	minimum = 7
	maximum = 87
Network latency average = 33.8346
	minimum = 7
	maximum = 87
Slowest packet = 12278
Flit latency average = 33.9104
	minimum = 7
	maximum = 87
Slowest flit = 12278
Fragmentation average = 0
	minimum = 0
	maximum = 0
Injected packet rate average = 0.00998958
	minimum = 0.00666667 (at node 47)
	maximum = 0.0146667 (at node 17)
Accepted packet rate average = 0.01
	minimum = 0.00666667 (at node 61)
	maximum = 0.0146667 (at node 10)
Injected flit rate average = 0.00998958
	minimum = 0.00666667 (at node 47)
	maximum = 0.0146667 (at node 17)
Accepted flit rate average= 0.01
	minimum = 0.00666667 (at node 61)
	maximum = 0.0146667 (at node 10)
Injected packet length average = 1
Accepted packet length average = 1
Total in-flight flits = 19 (19 measured)
latency change    = 0.00506655
throughput change = 0
Draining all recorded packets ...
Draining remaining packets ...
Time taken is 6144 cycles
Class 0:
Packet latency average = 33.3552
	minimum = 7
	maximum = 90
Network latency average = 33.3552
	minimum = 7
	maximum = 90
Slowest packet = 13983
Flit latency average = 33.3552
	minimum = 7
	maximum = 90
Slowest flit = 13983
Fragmentation average = 0
	minimum = 0
	maximum = 0
Injected packet rate average = 0.0100156
	minimum = 0.004 (at node 10)
	maximum = 0.019 (at node 5)
Accepted packet rate average = 0.00976562
	minimum = 0.004 (at node 17)
	maximum = 0.018 (at node 40)
Injected flit rate average = 0.0100156
	minimum = 0.004 (at node 10)
	maximum = 0.019 (at node 5)
Accepted flit rate average= 0.00976562
	minimum = 0.004 (at node 17)
	maximum = 0.018 (at node 40)
Injected packet length average = 1
Accepted packet length average = 1
Total in-flight flits = 16 (0 measured)
latency change    = 1
throughput change = 1
Class 0:
Packet latency average = 33.1082
	minimum = 7
	maximum = 90
Network latency average = 33.1082
	minimum = 7
	maximum = 90
Slowest packet = 13983
Flit latency average = 33.1082
	minimum = 7
	maximum = 90
Slowest flit = 13983
Fragmentation average = 0
	minimum = 0
	maximum = 0
Injected packet rate average = 0.00991406
	minimum = 0.005 (at node 2)
	maximum = 0.0155 (at node 5)
Accepted packet rate average = 0.00975
	minimum = 0.0045 (at node 16)
	maximum = 0.0155 (at node 43)
Injected flit rate average = 0.00991406
	minimum = 0.005 (at node 2)
	maximum = 0.0155 (at node 5)
Accepted flit rate average= 0.00975
	minimum = 0.0045 (at node 16)
	maximum = 0.0155 (at node 43)
Injected packet length average = 1
Accepted packet length average = 1
Total in-flight flits = 21 (0 measured)
latency change    = 0.00746121
throughput change = 0.00160256
Class 0:
Packet latency average = 35.0903
	minimum = 7
	maximum = 82
Network latency average = 35.0903
	minimum = 7
	maximum = 82
Slowest packet = 15108
Flit latency average = 35.0903
	minimum = 7
	maximum = 82
Slowest flit = 15108
Fragmentation average = 0
	minimum = 0
	maximum = 0
Injected packet rate average = 0.00982813
	minimum = 0.003 (at node 60)
	maximum = 0.019 (at node 40)
Accepted packet rate average = 0.00985938
	minimum = 0.004 (at node 39)
	maximum = 0.018 (at node 5)
Injected flit rate average = 0.00982813
	minimum = 0.003 (at node 60)
	maximum = 0.019 (at node 40)
Accepted flit rate average= 0.00985938
	minimum = 0.004 (at node 39)
	maximum = 0.018 (at node 5)
Injected packet length average = 1
Accepted packet length average = 1
Total in-flight flits = 19 (0 measured)
latency change    = 0.0564873
throughput change = 0.0110935
Warmed up ...Time used is 3000 cycles
Class 0:
Packet latency average = 32.8308
	minimum = 7
	maximum = 85
Network latency average = 32.8308
	minimum = 7
	maximum = 85
Slowest packet = 15866
Flit latency average = 33.4277
	minimum = 7
	maximum = 85
Slowest flit = 15866
Fragmentation average = 0
	minimum = 0
	maximum = 0
Injected packet rate average = 0.00965625
	minimum = 0.004 (at node 47)
	maximum = 0.019 (at node 50)
Accepted packet rate average = 0.00971875
	minimum = 0.004 (at node 61)
	maximum = 0.019 (at node 22)
Injected flit rate average = 0.00965625
	minimum = 0.004 (at node 47)
	maximum = 0.019 (at node 50)
Accepted flit rate average= 0.00971875
	minimum = 0.004 (at node 61)
	maximum = 0.019 (at node 22)
Injected packet length average = 1
Accepted packet length average = 1
Total in-flight flits = 15 (15 measured)
latency change    = 0.0688221
throughput change = 0.0144695
Class 0:
Packet latency average = 33.0959
	minimum = 7
	maximum = 85
Network latency average = 33.0959
	minimum = 7
	maximum = 85
Slowest packet = 15866
Flit latency average = 33.3941
	minimum = 7
	maximum = 85
Slowest flit = 15866
Fragmentation average = 0
	minimum = 0
	maximum = 0
Injected packet rate average = 0.00966406
	minimum = 0.0045 (at node 47)
	maximum = 0.0145 (at node 12)
Accepted packet rate average = 0.00959375
	minimum = 0.0045 (at node 61)
	maximum = 0.0135 (at node 29)
Injected flit rate average = 0.00966406
	minimum = 0.0045 (at node 47)
	maximum = 0.0145 (at node 12)
Accepted flit rate average= 0.00959375
	minimum = 0.0045 (at node 61)
	maximum = 0.0135 (at node 29)
Injected packet length average = 1
Accepted packet length average = 1
Total in-flight flits = 28 (28 measured)
latency change    = 0.00801008
throughput change = 0.0130293
Class 0:
Packet latency average = 33.4422
	minimum = 7
	maximum = 86
Network latency average = 33.4422
	minimum = 7
	maximum = 86
Slowest packet = 17032
Flit latency average = 33.6346
	minimum = 7
	maximum = 86
Slowest flit = 17032
Fragmentation average = 0
	minimum = 0
	maximum = 0
Injected packet rate average = 0.00977083
	minimum = 0.00666667 (at node 54)
	maximum = 0.0133333 (at node 12)
Accepted packet rate average = 0.00973437
	minimum = 0.00666667 (at node 54)
	maximum = 0.0133333 (at node 33)
Injected flit rate average = 0.00977083
	minimum = 0.00666667 (at node 54)
	maximum = 0.0133333 (at node 12)
Accepted flit rate average= 0.00973437
	minimum = 0.00666667 (at node 54)
	maximum = 0.0133333 (at node 33)
Injected packet length average = 1
Accepted packet length average = 1
Total in-flight flits = 26 (26 measured)
latency change    = 0.0103527
throughput change = 0.0144462
Class 0:
Packet latency average = 32.9781
	minimum = 7
	maximum = 86
Network latency average = 32.9781
	minimum = 7
	maximum = 86
Slowest packet = 17032
Flit latency average = 33.1262
	minimum = 7
	maximum = 86
Slowest flit = 17032
Fragmentation average = 0
	minimum = 0
	maximum = 0
Injected packet rate average = 0.00971094
	minimum = 0.007 (at node 23)
	maximum = 0.01525 (at node 26)
Accepted packet rate average = 0.00972266
	minimum = 0.00725 (at node 21)
	maximum = 0.015 (at node 19)
Injected flit rate average = 0.00971094
	minimum = 0.007 (at node 23)
	maximum = 0.01525 (at node 26)
Accepted flit rate average= 0.00972266
	minimum = 0.00725 (at node 21)
	maximum = 0.015 (at node 19)
Injected packet length average = 1
Accepted packet length average = 1
Total in-flight flits = 16 (16 measured)
latency change    = 0.0140707
throughput change = 0.0012053
Draining all recorded packets ...
Draining remaining packets ...
Time taken is 7109 cycles
Class 0:
Packet latency average = 32.775
	minimum = 7
	maximum = 84
Network latency average = 32.775
	minimum = 7
	maximum = 84
Slowest packet = 18596
Flit latency average = 32.775
	minimum = 7
	maximum = 84
Slowest flit = 18596
Fragmentation average = 0
	minimum = 0
	maximum = 0
Injected packet rate average = 0.0103281
	minimum = 0.005 (at node 4)
	maximum = 0.017 (at node 8)
Accepted packet rate average = 0.0101406
	minimum = 0.005 (at node 27)
	maximum = 0.017 (at node 1)
Injected flit rate average = 0.0103281
	minimum = 0.005 (at node 4)
	maximum = 0.017 (at node 8)
Accepted flit rate average= 0.0101406
	minimum = 0.005 (at node 27)
	maximum = 0.017 (at node 1)
Injected packet length average = 1
Accepted packet length average = 1
Total in-flight flits = 12 (0 measured)
latency change    = 1
throughput change = 1
Class 0:
Packet latency average = 32.8452
	minimum = 7
	maximum = 84
Network latency average = 32.8452
	minimum = 7
	maximum = 84
Slowest packet = 18596
Flit latency average = 32.8452
	minimum = 7
	maximum = 84
Slowest flit = 18596
Fragmentation average = 0
	minimum = 0
	maximum = 0
Injected packet rate average = 0.00997656
	minimum = 0.005 (at node 62)
	maximum = 0.0135 (at node 1)
Accepted packet rate average = 0.00978906
	minimum = 0.005 (at node 27)
	maximum = 0.0135 (at node 22)
Injected flit rate average = 0.00997656
	minimum = 0.005 (at node 62)
	maximum = 0.0135 (at node 1)
Accepted flit rate average= 0.00978906
	minimum = 0.005 (at node 27)
	maximum = 0.0135 (at node 22)
Injected packet length average = 1
Accepted packet length average = 1
Total in-flight flits = 24 (0 measured)
latency change    = 0.00213526
throughput change = 0.0359138
Class 0:
Packet latency average = 33.6318
	minimum = 7
	maximum = 78
Network latency average = 33.6318
	minimum = 7
	maximum = 78
Slowest packet = 19416
Flit latency average = 33.6318
	minimum = 7
	maximum = 78
Slowest flit = 19416
Fragmentation average = 0
	minimum = 0
	maximum = 0
Injected packet rate average = 0.00970312
	minimum = 0.004 (at node 11)
	maximum = 0.019 (at node 46)
Accepted packet rate average = 0.00971875
	minimum = 0.004 (at node 4)
	maximum = 0.019 (at node 53)
Injected flit rate average = 0.00970312
	minimum = 0.004 (at node 11)
	maximum = 0.019 (at node 46)
Accepted flit rate average= 0.00971875
	minimum = 0.004 (at node 4)
	maximum = 0.019 (at node 53)
Injected packet length average = 1
Accepted packet length average = 1
Total in-flight flits = 23 (0 measured)
latency change    = 0.0233904
throughput change = 0.00723473
Warmed up ...Time used is 3000 cycles
Class 0:
Packet latency average = 33.2133
	minimum = 7
	maximum = 96
Network latency average = 33.2133
	minimum = 7
	maximum = 96
Slowest packet = 20114
Flit latency average = 33.7782
	minimum = 7
	maximum = 96
Slowest flit = 20114
Fragmentation average = 0
	minimum = 0
	maximum = 0
Injected packet rate average = 0.00923437
	minimum = 0.003 (at node 41)
	maximum = 0.016 (at node 2)
Accepted packet rate average = 0.00929687
	minimum = 0.004 (at node 13)
	maximum = 0.016 (at node 14)
Injected flit rate average = 0.00923437
	minimum = 0.003 (at node 41)
	maximum = 0.016 (at node 2)
Accepted flit rate average= 0.00929687
	minimum = 0.004 (at node 13)
	maximum = 0.016 (at node 14)
Injected packet length average = 1
Accepted packet length average = 1
Total in-flight flits = 19 (19 measured)
latency change    = 0.0126018
throughput change = 0.0453782
Class 0:
Packet latency average = 33.0665
	minimum = 7
	maximum = 96
Network latency average = 33.0665
	minimum = 7
	maximum = 96
Slowest packet = 20114
Flit latency average = 33.3336
	minimum = 7
	maximum = 96
Slowest flit = 20114
Fragmentation average = 0
	minimum = 0
	maximum = 0
Injected packet rate average = 0.00995313
	minimum = 0.0035 (at node 57)
	maximum = 0.0155 (at node 50)
Accepted packet rate average = 0.00992969
	minimum = 0.0045 (at node 15)
	maximum = 0.016 (at node 22)
Injected flit rate average = 0.00995313
	minimum = 0.0035 (at node 57)
	maximum = 0.0155 (at node 50)
Accepted flit rate average= 0.00992969
	minimum = 0.0045 (at node 15)
	maximum = 0.016 (at node 22)
Injected packet length average = 1
Accepted packet length average = 1
Total in-flight flits = 26 (26 measured)
latency change    = 0.00443894
throughput change = 0.0637293
Class 0:
Packet latency average = 33.1014
	minimum = 7
	maximum = 96
Network latency average = 33.1014
	minimum = 7
	maximum = 96
Slowest packet = 20114
Flit latency average = 33.2782
	minimum = 7
	maximum = 96
Slowest flit = 20114
Fragmentation average = 0
	minimum = 0
	maximum = 0
Injected packet rate average = 0.00998958
	minimum = 0.005 (at node 57)
	maximum = 0.0136667 (at node 26)
Accepted packet rate average = 0.00997917
	minimum = 0.00533333 (at node 28)
	maximum = 0.0143333 (at node 22)
Injected flit rate average = 0.00998958
	minimum = 0.005 (at node 57)
	maximum = 0.0136667 (at node 26)
Accepted flit rate average= 0.00997917
	minimum = 0.00533333 (at node 28)
	maximum = 0.0143333 (at node 22)
Injected packet length average = 1
Accepted packet length average = 1
Total in-flight flits = 25 (25 measured)
latency change    = 0.00105494
throughput change = 0.00495825
Class 0:
Packet latency average = 33.3791
	minimum = 7
	maximum = 96
Network latency average = 33.3791
	minimum = 7
	maximum = 96
Slowest packet = 20114
Flit latency average = 33.5079
	minimum = 7
	maximum = 96
Slowest flit = 20114
Fragmentation average = 0
	minimum = 0
	maximum = 0
Injected packet rate average = 0.0100625
	minimum = 0.00725 (at node 37)
	maximum = 0.01375 (at node 15)
Accepted packet rate average = 0.0100742
	minimum = 0.00725 (at node 44)
	maximum = 0.01375 (at node 57)
Injected flit rate average = 0.0100625
	minimum = 0.00725 (at node 37)
	maximum = 0.01375 (at node 15)
Accepted flit rate average= 0.0100742
	minimum = 0.00725 (at node 44)
	maximum = 0.01375 (at node 57)
Injected packet length average = 1
Accepted packet length average = 1
Total in-flight flits = 20 (20 measured)
latency change    = 0.00831903
throughput change = 0.00943518
Class 0:
Packet latency average = 33.6474
	minimum = 7
	maximum = 96
Network latency average = 33.6474
	minimum = 7
	maximum = 96
Slowest packet = 20114
Flit latency average = 33.7488
	minimum = 7
	maximum = 96
Slowest flit = 20114
Fragmentation average = 0
	minimum = 0
	maximum = 0
Injected packet rate average = 0.0100438
	minimum = 0.0076 (at node 43)
	maximum = 0.0128 (at node 28)
Accepted packet rate average = 0.01005
	minimum = 0.0074 (at node 29)
	maximum = 0.013 (at node 35)
Injected flit rate average = 0.0100438
	minimum = 0.0076 (at node 43)
	maximum = 0.0128 (at node 28)
Accepted flit rate average= 0.01005
	minimum = 0.0074 (at node 29)
	maximum = 0.013 (at node 35)
Injected packet length average = 1
Accepted packet length average = 1
Total in-flight flits = 21 (21 measured)
latency change    = 0.00797226
throughput change = 0.00240983
Draining all recorded packets ...
Draining remaining packets ...
Time taken is 8132 cycles
Class 0:
Packet latency average = 32.8313
	minimum = 7
	maximum = 95
Network latency average = 32.8313
	minimum = 7
	maximum = 95
Slowest packet = 23215
Flit latency average = 32.8313
	minimum = 7
	maximum = 95
Slowest flit = 23215
Fragmentation average = 0
	minimum = 0
	maximum = 0
Injected packet rate average = 0.0105313
	minimum = 0.003 (at node 19)
	maximum = 0.018 (at node 2)
Accepted packet rate average = 0.0101875
	minimum = 0.001 (at node 26)
	maximum = 0.017 (at node 16)
Injected flit rate average = 0.0105313
	minimum = 0.003 (at node 19)
	maximum = 0.018 (at node 2)
Accepted flit rate average= 0.0101875
	minimum = 0.001 (at node 26)
	maximum = 0.017 (at node 16)
Injected packet length average = 1
Accepted packet length average = 1
Total in-flight flits = 22 (0 measured)
latency change    = 1
throughput change = 1
Class 0:
Packet latency average = 32.8827
	minimum = 7
	maximum = 95
Network latency average = 32.8827
	minimum = 7
	maximum = 95
Slowest packet = 23215
Flit latency average = 32.8827
	minimum = 7
	maximum = 95
Slowest flit = 23215
Fragmentation average = 0
	minimum = 0
	maximum = 0
Injected packet rate average = 0.0100938
	minimum = 0.006 (at node 19)
	maximum = 0.0165 (at node 20)
Accepted packet rate average = 0.00992188
	minimum = 0.006 (at node 26)
	maximum = 0.016 (at node 34)
Injected flit rate average = 0.0100938
	minimum = 0.006 (at node 19)
	maximum = 0.0165 (at node 20)
Accepted flit rate average= 0.00992188
	minimum = 0.006 (at node 26)
	maximum = 0.016 (at node 34)
Injected packet length average = 1
Accepted packet length average = 1
Total in-flight flits = 22 (0 measured)
latency change    = 0.00156279
throughput change = 0.0267717
Class 0:
Packet latency average = 33.1548
	minimum = 7
	maximum = 80
Network latency average = 33.1548
	minimum = 7
	maximum = 80
Slowest packet = 24600
Flit latency average = 33.1548
	minimum = 7
	maximum = 80
Slowest flit = 24600
Fragmentation average = 0
	minimum = 0
	maximum = 0
Injected packet rate average = 0.0103594
	minimum = 0.005 (at node 3)
	maximum = 0.016 (at node 33)
Accepted packet rate average = 0.0102969
	minimum = 0.005 (at node 13)
	maximum = 0.016 (at node 12)
Injected flit rate average = 0.0103594
	minimum = 0.005 (at node 3)
	maximum = 0.016 (at node 33)
Accepted flit rate average= 0.0102969
	minimum = 0.005 (at node 13)
	maximum = 0.016 (at node 12)
Injected packet length average = 1
Accepted packet length average = 1
Total in-flight flits = 26 (0 measured)
latency change    = 0.00820705
throughput change = 0.0364188
Warmed up ...Time used is 3000 cycles
Class 0:
Packet latency average = 33.8271
	minimum = 7
	maximum = 90
Network latency average = 33.8271
	minimum = 7
	maximum = 90
Slowest packet = 25504
Flit latency average = 34.2062
	minimum = 7
	maximum = 90
Slowest flit = 25504
Fragmentation average = 0
	minimum = 0
	maximum = 0
Injected packet rate average = 0.0100469
	minimum = 0.004 (at node 54)
	maximum = 0.018 (at node 23)
Accepted packet rate average = 0.0100781
	minimum = 0.004 (at node 32)
	maximum = 0.018 (at node 58)
Injected flit rate average = 0.0100469
	minimum = 0.004 (at node 54)
	maximum = 0.018 (at node 23)
Accepted flit rate average= 0.0100781
	minimum = 0.004 (at node 32)
	maximum = 0.018 (at node 58)
Injected packet length average = 1
Accepted packet length average = 1
Total in-flight flits = 24 (24 measured)
latency change    = 0.0198764
throughput change = 0.0217054
Class 0:
Packet latency average = 33.4496
	minimum = 7
	maximum = 90
Network latency average = 33.4496
	minimum = 7
	maximum = 90
Slowest packet = 25504
Flit latency average = 33.6506
	minimum = 7
	maximum = 90
Slowest flit = 25504
Fragmentation average = 0
	minimum = 0
	maximum = 0
Injected packet rate average = 0.00992188
	minimum = 0.005 (at node 8)
	maximum = 0.015 (at node 58)
Accepted packet rate average = 0.00988281
	minimum = 0.005 (at node 1)
	maximum = 0.0145 (at node 23)
Injected flit rate average = 0.00992188
	minimum = 0.005 (at node 8)
	maximum = 0.015 (at node 58)
Accepted flit rate average= 0.00988281
	minimum = 0.005 (at node 1)
	maximum = 0.0145 (at node 23)
Injected packet length average = 1
Accepted packet length average = 1
Total in-flight flits = 31 (31 measured)
latency change    = 0.0112882
throughput change = 0.0197628
Class 0:
Packet latency average = 33.9168
	minimum = 7
	maximum = 90
Network latency average = 33.9168
	minimum = 7
	maximum = 90
Slowest packet = 25504
Flit latency average = 34.0418
	minimum = 7
	maximum = 90
Slowest flit = 25504
Fragmentation average = 0
	minimum = 0
	maximum = 0
Injected packet rate average = 0.0100833
	minimum = 0.00466667 (at node 10)
	maximum = 0.0136667 (at node 16)
Accepted packet rate average = 0.0100938
	minimum = 0.00433333 (at node 17)
	maximum = 0.014 (at node 2)
Injected flit rate average = 0.0100833
	minimum = 0.00466667 (at node 10)
	maximum = 0.0136667 (at node 16)
Accepted flit rate average= 0.0100938
	minimum = 0.00433333 (at node 17)
	maximum = 0.014 (at node 2)
Injected packet length average = 1
Accepted packet length average = 1
Total in-flight flits = 24 (24 measured)
latency change    = 0.0137774
throughput change = 0.0208978
Draining all recorded packets ...
Draining remaining packets ...
Time taken is 6149 cycles
Class 0:
Packet latency average = 34.3782
	minimum = 7
	maximum = 86
Network latency average = 34.3782
	minimum = 7
	maximum = 86
Slowest packet = 27528
Flit latency average = 34.3782
	minimum = 7
	maximum = 86
Slowest flit = 27528
Fragmentation average = 0
	minimum = 0
	maximum = 0
Injected packet rate average = 0.00973437
	minimum = 0.004 (at node 9)
	maximum = 0.02 (at node 24)
Accepted packet rate average = 0.00929687
	minimum = 0.004 (at node 9)
	maximum = 0.019 (at node 3)
Injected flit rate average = 0.00973437
	minimum = 0.004 (at node 9)
	maximum = 0.02 (at node 24)
Accepted flit rate average= 0.00929687
	minimum = 0.004 (at node 9)
	maximum = 0.019 (at node 3)
Injected packet length average = 1
Accepted packet length average = 1
Total in-flight flits = 28 (0 measured)
latency change    = 1
throughput change = 1
Class 0:
Packet latency average = 33.6495
	minimum = 7
	maximum = 88
Network latency average = 33.6495
	minimum = 7
	maximum = 88
Slowest packet = 28016
Flit latency average = 33.6495
	minimum = 7
	maximum = 88
Slowest flit = 28016
Fragmentation average = 0
	minimum = 0
	maximum = 0
Injected packet rate average = 0.00944531
	minimum = 0.0055 (at node 9)
	maximum = 0.0155 (at node 24)
Accepted packet rate average = 0.00927344
	minimum = 0.0055 (at node 7)
	maximum = 0.0155 (at node 3)
Injected flit rate average = 0.00944531
	minimum = 0.0055 (at node 9)
	maximum = 0.0155 (at node 24)
Accepted flit rate average= 0.00927344
	minimum = 0.0055 (at node 7)
	maximum = 0.0155 (at node 3)
Injected packet length average = 1
Accepted packet length average = 1
Total in-flight flits = 22 (0 measured)
latency change    = 0.021653
throughput change = 0.00252738
Class 0:
Packet latency average = 34.975
	minimum = 7
	maximum = 119
Network latency average = 34.975
	minimum = 7
	maximum = 119
Slowest packet = 28851
Flit latency average = 34.975
	minimum = 7
	maximum = 119
Slowest flit = 28851
Fragmentation average = 0
	minimum = 0
	maximum = 0
Injected packet rate average = 0.0100313
	minimum = 0.003 (at node 17)
	maximum = 0.017 (at node 14)
Accepted packet rate average = 0.0100156
	minimum = 0.003 (at node 10)
	maximum = 0.018 (at node 36)
Injected flit rate average = 0.0100313
	minimum = 0.003 (at node 17)
	maximum = 0.017 (at node 14)
Accepted flit rate average= 0.0100156
	minimum = 0.003 (at node 10)
	maximum = 0.018 (at node 36)
Injected packet length average = 1
Accepted packet length average = 1
Total in-flight flits = 23 (0 measured)
latency change    = 0.0378985
throughput change = 0.074103
Warmed up ...Time used is 3000 cycles
Class 0:
Packet latency average = 34.1377
	minimum = 7
	maximum = 85
Network latency average = 34.1377
	minimum = 7
	maximum = 85
Slowest packet = 29229
Flit latency average = 34.7682
	minimum = 7
	maximum = 85
Slowest flit = 29229
Fragmentation average = 0
	minimum = 0
	maximum = 0
Injected packet rate average = 0.00940625
	minimum = 0.004 (at node 9)
	maximum = 0.02 (at node 51)
Accepted packet rate average = 0.0094375
	minimum = 0.004 (at node 9)
	maximum = 0.021 (at node 30)
Injected flit rate average = 0.00940625
	minimum = 0.004 (at node 9)
	maximum = 0.02 (at node 51)
Accepted flit rate average= 0.0094375
	minimum = 0.004 (at node 9)
	maximum = 0.021 (at node 30)
Injected packet length average = 1
Accepted packet length average = 1
Total in-flight flits = 21 (21 measured)
latency change    = 0.0245285
throughput change = 0.0612583
Class 0:
Packet latency average = 34.203
	minimum = 7
	maximum = 86
Network latency average = 34.203
	minimum = 7
	maximum = 86
Slowest packet = 30142
Flit latency average = 34.5089
	minimum = 7
	maximum = 86
Slowest flit = 30142
Fragmentation average = 0
	minimum = 0
	maximum = 0
Injected packet rate average = 0.00963281
	minimum = 0.0055 (at node 12)
	maximum = 0.0155 (at node 51)
Accepted packet rate average = 0.0096875
	minimum = 0.006 (at node 33)
	maximum = 0.016 (at node 30)
Injected flit rate average = 0.00963281
	minimum = 0.0055 (at node 12)
	maximum = 0.0155 (at node 51)
Accepted flit rate average= 0.0096875
	minimum = 0.006 (at node 33)
	maximum = 0.016 (at node 30)
Injected packet length average = 1
Accepted packet length average = 1
Total in-flight flits = 16 (16 measured)
latency change    = 0.00190815
throughput change = 0.0258065
Class 0:
Packet latency average = 34.0546
	minimum = 7
	maximum = 90
Network latency average = 34.0546
	minimum = 7
	maximum = 90
Slowest packet = 30658
Flit latency average = 34.2609
	minimum = 7
	maximum = 90
Slowest flit = 30658
Fragmentation average = 0
	minimum = 0
	maximum = 0
Injected packet rate average = 0.00965104
	minimum = 0.00633333 (at node 52)
	maximum = 0.0133333 (at node 31)
Accepted packet rate average = 0.00966146
	minimum = 0.00633333 (at node 38)
	maximum = 0.013 (at node 42)
Injected flit rate average = 0.00965104
	minimum = 0.00633333 (at node 52)
	maximum = 0.0133333 (at node 31)
Accepted flit rate average= 0.00966146
	minimum = 0.00633333 (at node 38)
	maximum = 0.013 (at node 42)
Injected packet length average = 1
Accepted packet length average = 1
Total in-flight flits = 21 (21 measured)
latency change    = 0.00435692
throughput change = 0.00269542
Class 0:
Packet latency average = 33.8882
	minimum = 7
	maximum = 90
Network latency average = 33.8882
	minimum = 7
	maximum = 90
Slowest packet = 30658
Flit latency average = 34.0428
	minimum = 7
	maximum = 90
Slowest flit = 30658
Fragmentation average = 0
	minimum = 0
	maximum = 0
Injected packet rate average = 0.00973828
	minimum = 0.007 (at node 12)
	maximum = 0.013 (at node 21)
Accepted packet rate average = 0.00976562
	minimum = 0.007 (at node 20)
	maximum = 0.013 (at node 42)
Injected flit rate average = 0.00973828
	minimum = 0.007 (at node 12)
	maximum = 0.013 (at node 21)
Accepted flit rate average= 0.00976562
	minimum = 0.007 (at node 20)
	maximum = 0.013 (at node 42)
Injected packet length average = 1
Accepted packet length average = 1
Total in-flight flits = 16 (16 measured)
latency change    = 0.00491068
throughput change = 0.0106667
Draining all recorded packets ...
Draining remaining packets ...
Time taken is 7097 cycles
Class 0:
Packet latency average = 32.4975
	minimum = 7
	maximum = 77
Network latency average = 32.4975
	minimum = 7
	maximum = 77
Slowest packet = 31531
Flit latency average = 32.4975
	minimum = 7
	maximum = 77
Slowest flit = 31531
Fragmentation average = 0
	minimum = 0
	maximum = 0
Injected packet rate average = 0.00979688
	minimum = 0.003 (at node 7)
	maximum = 0.018 (at node 39)
Accepted packet rate average = 0.00935937
	minimum = 0.003 (at node 56)
	maximum = 0.017 (at node 60)
Injected flit rate average = 0.00979688
	minimum = 0.003 (at node 7)
	maximum = 0.018 (at node 39)
Accepted flit rate average= 0.00935937
	minimum = 0.003 (at node 56)
	maximum = 0.017 (at node 60)
Injected packet length average = 1
Accepted packet length average = 1
Total in-flight flits = 28 (0 measured)
latency change    = 1
throughput change = 1
Class 0:
Packet latency average = 33.4418
	minimum = 7
	maximum = 81
Network latency average = 33.4418
	minimum = 7
	maximum = 81
Slowest packet = 32477
Flit latency average = 33.4418
	minimum = 7
	maximum = 81
Slowest flit = 32477
Fragmentation average = 0
	minimum = 0
	maximum = 0
Injected packet rate average = 0.00989844
	minimum = 0.005 (at node 42)
	maximum = 0.0165 (at node 11)
Accepted packet rate average = 0.00972656
	minimum = 0.005 (at node 21)
	maximum = 0.016 (at node 25)
Injected flit rate average = 0.00989844
	minimum = 0.005 (at node 42)
	maximum = 0.0165 (at node 11)
Accepted flit rate average= 0.00972656
	minimum = 0.005 (at node 21)
	maximum = 0.016 (at node 25)
Injected packet length average = 1
Accepted packet length average = 1
Total in-flight flits = 22 (0 measured)
latency change    = 0.0282363
throughput change = 0.037751
Class 0:
Packet latency average = 32.8544
	minimum = 7
	maximum = 86
Network latency average = 32.8544
	minimum = 7
	maximum = 86
Slowest packet = 32954
Flit latency average = 32.8544
	minimum = 7
	maximum = 86
Slowest flit = 32954
Fragmentation average = 0
	minimum = 0
	maximum = 0
Injected packet rate average = 0.0105156
	minimum = 0.004 (at node 8)
	maximum = 0.019 (at node 26)
Accepted packet rate average = 0.0105156
	minimum = 0.004 (at node 1)
	maximum = 0.019 (at node 19)
Injected flit rate average = 0.0105156
	minimum = 0.004 (at node 8)
	maximum = 0.019 (at node 26)
Accepted flit rate average= 0.0105156
	minimum = 0.004 (at node 1)
	maximum = 0.019 (at node 19)
Injected packet length average = 1
Accepted packet length average = 1
Total in-flight flits = 22 (0 measured)
latency change    = 0.0178784
throughput change = 0.0750371
Warmed up ...Time used is 3000 cycles
Class 0:
Packet latency average = 33.3188
	minimum = 7
	maximum = 84
Network latency average = 33.3188
	minimum = 7
	maximum = 84
Slowest packet = 33988
Flit latency average = 33.5414
	minimum = 7
	maximum = 84
Slowest flit = 33988
Fragmentation average = 0
	minimum = 0
	maximum = 0
Injected packet rate average = 0.0103125
	minimum = 0.004 (at node 17)
	maximum = 0.017 (at node 21)
Accepted packet rate average = 0.0103906
	minimum = 0.004 (at node 10)
	maximum = 0.016 (at node 32)
Injected flit rate average = 0.0103125
	minimum = 0.004 (at node 17)
	maximum = 0.017 (at node 21)
Accepted flit rate average= 0.0103906
	minimum = 0.004 (at node 10)
	maximum = 0.016 (at node 32)
Injected packet length average = 1
Accepted packet length average = 1
Total in-flight flits = 17 (17 measured)
latency change    = 0.0139391
throughput change = 0.0120301
Class 0:
Packet latency average = 33.4148
	minimum = 7
	maximum = 84
Network latency average = 33.4148
	minimum = 7
	maximum = 84
Slowest packet = 33988
Flit latency average = 33.5264
	minimum = 7
	maximum = 84
Slowest flit = 33988
Fragmentation average = 0
	minimum = 0
	maximum = 0
Injected packet rate average = 0.0102188
	minimum = 0.006 (at node 6)
	maximum = 0.015 (at node 33)
Accepted packet rate average = 0.0102109
	minimum = 0.0055 (at node 48)
	maximum = 0.0145 (at node 12)
Injected flit rate average = 0.0102188
	minimum = 0.006 (at node 6)
	maximum = 0.015 (at node 33)
Accepted flit rate average= 0.0102109
	minimum = 0.0055 (at node 48)
	maximum = 0.0145 (at node 12)
Injected packet length average = 1
Accepted packet length average = 1
Total in-flight flits = 23 (23 measured)
latency change    = 0.00287202
throughput change = 0.0175976
Class 0:
Packet latency average = 34.0333
	minimum = 7
	maximum = 84
Network latency average = 34.0333
	minimum = 7
	maximum = 84
Slowest packet = 33988
Flit latency average = 34.1004
	minimum = 7
	maximum = 84
Slowest flit = 33988
Fragmentation average = 0
	minimum = 0
	maximum = 0
Injected packet rate average = 0.0102813
	minimum = 0.00633333 (at node 6)
	maximum = 0.015 (at node 39)
Accepted packet rate average = 0.0102708
	minimum = 0.006 (at node 48)
	maximum = 0.015 (at node 60)
Injected flit rate average = 0.0102813
	minimum = 0.00633333 (at node 6)
	maximum = 0.015 (at node 39)
Accepted flit rate average= 0.0102708
	minimum = 0.006 (at node 48)
	maximum = 0.015 (at node 60)
Injected packet length average = 1
Accepted packet length average = 1
Total in-flight flits = 24 (24 measured)
latency change    = 0.0181748
throughput change = 0.00583164
Draining all recorded packets ...
Draining remaining packets ...
Time taken is 6139 cycles
Class 0:
Packet latency average = 32.6392
	minimum = 7
	maximum = 83
Network latency average = 32.6392
	minimum = 7
	maximum = 83
Slowest packet = 35641
Flit latency average = 32.6392
	minimum = 7
	maximum = 83
Slowest flit = 35641
Fragmentation average = 0
	minimum = 0
	maximum = 0
Injected packet rate average = 0.0102656
	minimum = 0.006 (at node 15)
	maximum = 0.02 (at node 53)
Accepted packet rate average = 0.009875
	minimum = 0.005 (at node 57)
	maximum = 0.02 (at node 46)
Injected flit rate average = 0.0102656
	minimum = 0.006 (at node 15)
	maximum = 0.02 (at node 53)
Accepted flit rate average= 0.009875
	minimum = 0.005 (at node 57)
	maximum = 0.02 (at node 46)
Injected packet length average = 1
Accepted packet length average = 1
Total in-flight flits = 25 (0 measured)
latency change    = 1
throughput change = 1
Class 0:
Packet latency average = 33.8558
	minimum = 7
	maximum = 100
Network latency average = 33.8558
	minimum = 7
	maximum = 100
Slowest packet = 36601
Flit latency average = 33.8558
	minimum = 7
	maximum = 100
Slowest flit = 36601
Fragmentation average = 0
	minimum = 0
	maximum = 0
Injected packet rate average = 0.0103516
	minimum = 0.005 (at node 15)
	maximum = 0.0155 (at node 41)
Accepted packet rate average = 0.0101328
	minimum = 0.005 (at node 57)
	maximum = 0.015 (at node 13)
Injected flit rate average = 0.0103516
	minimum = 0.005 (at node 15)
	maximum = 0.0155 (at node 41)
Accepted flit rate average= 0.0101328
	minimum = 0.005 (at node 57)
	maximum = 0.015 (at node 13)
Injected packet length average = 1
Accepted packet length average = 1
Total in-flight flits = 28 (0 measured)
latency change    = 0.0359342
throughput change = 0.0254433
Class 0:
Packet latency average = 33.8724
	minimum = 7
	maximum = 83
Network latency average = 33.8724
	minimum = 7
	maximum = 83
Slowest packet = 36755
Flit latency average = 33.8724
	minimum = 7
	maximum = 83
Slowest flit = 36755
Fragmentation average = 0
	minimum = 0
	maximum = 0
Injected packet rate average = 0.00978125
	minimum = 0.005 (at node 7)
	maximum = 0.017 (at node 6)
Accepted packet rate average = 0.00979688
	minimum = 0.005 (at node 34)
	maximum = 0.017 (at node 48)
Injected flit rate average = 0.00978125
	minimum = 0.005 (at node 7)
	maximum = 0.017 (at node 6)
Accepted flit rate average= 0.00979688
	minimum = 0.005 (at node 34)
	maximum = 0.017 (at node 48)
Injected packet length average = 1
Accepted packet length average = 1
Total in-flight flits = 27 (0 measured)
latency change    = 0.000489696
throughput change = 0.0342903
Warmed up ...Time used is 3000 cycles
Class 0:
Packet latency average = 33.5923
	minimum = 7
	maximum = 84
Network latency average = 33.5923
	minimum = 7
	maximum = 84
Slowest packet = 37557
Flit latency average = 33.9884
	minimum = 7
	maximum = 85
Slowest flit = 37373
Fragmentation average = 0
	minimum = 0
	maximum = 0
Injected packet rate average = 0.00934375
	minimum = 0.004 (at node 2)
	maximum = 0.016 (at node 13)
Accepted packet rate average = 0.00939062
	minimum = 0.003 (at node 51)
	maximum = 0.016 (at node 41)
Injected flit rate average = 0.00934375
	minimum = 0.004 (at node 2)
	maximum = 0.016 (at node 13)
Accepted flit rate average= 0.00939062
	minimum = 0.003 (at node 51)
	maximum = 0.016 (at node 41)
Injected packet length average = 1
Accepted packet length average = 1
Total in-flight flits = 24 (24 measured)
latency change    = 0.00833743
throughput change = 0.0432612
Class 0:
Packet latency average = 33.3743
	minimum = 7
	maximum = 89
Network latency average = 33.3743
	minimum = 7
	maximum = 89
Slowest packet = 38429
Flit latency average = 33.5648
	minimum = 7
	maximum = 89
Slowest flit = 38429
Fragmentation average = 0
	minimum = 0
	maximum = 0
Injected packet rate average = 0.00999219
	minimum = 0.0055 (at node 27)
	maximum = 0.0165 (at node 13)
Accepted packet rate average = 0.01
	minimum = 0.0055 (at node 27)
	maximum = 0.016 (at node 28)
Injected flit rate average = 0.00999219
	minimum = 0.0055 (at node 27)
	maximum = 0.0165 (at node 13)
Accepted flit rate average= 0.01
	minimum = 0.0055 (at node 27)
	maximum = 0.016 (at node 28)
Injected packet length average = 1
Accepted packet length average = 1
Total in-flight flits = 26 (26 measured)
latency change    = 0.00653296
throughput change = 0.0609375
Class 0:
Packet latency average = 33.7188
	minimum = 7
	maximum = 89
Network latency average = 33.7188
	minimum = 7
	maximum = 89
Slowest packet = 38429
Flit latency average = 33.8443
	minimum = 7
	maximum = 89
Slowest flit = 38429
Fragmentation average = 0
	minimum = 0
	maximum = 0
Injected packet rate average = 0.00973958
	minimum = 0.006 (at node 30)
	maximum = 0.0146667 (at node 13)
Accepted packet rate average = 0.00973437
	minimum = 0.006 (at node 9)
	maximum = 0.0146667 (at node 41)
Injected flit rate average = 0.00973958
	minimum = 0.006 (at node 30)
	maximum = 0.0146667 (at node 13)
Accepted flit rate average= 0.00973437
	minimum = 0.006 (at node 9)
	maximum = 0.0146667 (at node 41)
Injected packet length average = 1
Accepted packet length average = 1
Total in-flight flits = 28 (28 measured)
latency change    = 0.0102163
throughput change = 0.0272873
Class 0:
Packet latency average = 33.555
	minimum = 7
	maximum = 89
Network latency average = 33.555
	minimum = 7
	maximum = 89
Slowest packet = 38429
Flit latency average = 33.6496
	minimum = 7
	maximum = 89
Slowest flit = 38429
Fragmentation average = 0
	minimum = 0
	maximum = 0
Injected packet rate average = 0.00982813
	minimum = 0.006 (at node 30)
	maximum = 0.0135 (at node 34)
Accepted packet rate average = 0.00986719
	minimum = 0.006 (at node 51)
	maximum = 0.0135 (at node 20)
Injected flit rate average = 0.00982813
	minimum = 0.006 (at node 30)
	maximum = 0.0135 (at node 34)
Accepted flit rate average= 0.00986719
	minimum = 0.006 (at node 51)
	maximum = 0.0135 (at node 20)
Injected packet length average = 1
Accepted packet length average = 1
Total in-flight flits = 17 (17 measured)
latency change    = 0.0048804
throughput change = 0.01346
Class 0:
Packet latency average = 33.5857
	minimum = 7
	maximum = 89
Network latency average = 33.5857
	minimum = 7
	maximum = 89
Slowest packet = 38429
Flit latency average = 33.6608
	minimum = 7
	maximum = 89
Slowest flit = 38429
Fragmentation average = 0
	minimum = 0
	maximum = 0
Injected packet rate average = 0.0099
	minimum = 0.007 (at node 28)
	maximum = 0.0132 (at node 34)
Accepted packet rate average = 0.0099125
	minimum = 0.0072 (at node 9)
	maximum = 0.013 (at node 20)
Injected flit rate average = 0.0099
	minimum = 0.007 (at node 28)
	maximum = 0.0132 (at node 34)
Accepted flit rate average= 0.0099125
	minimum = 0.0072 (at node 9)
	maximum = 0.013 (at node 20)
Injected packet length average = 1
Accepted packet length average = 1
Total in-flight flits = 23 (23 measured)
latency change    = 0.000913174
throughput change = 0.00457125
Draining all recorded packets ...
Draining remaining packets ...
Time taken is 8121 cycles
Class 0:
Packet latency average = 33.0521
	minimum = 7
	maximum = 90
Network latency average = 33.0521
	minimum = 7
	maximum = 90
Slowest packet = 40744
Flit latency average = 33.0521
	minimum = 7
	maximum = 90
Slowest flit = 40744
Fragmentation average = 0
	minimum = 0
	maximum = 0
Injected packet rate average = 0.01
	minimum = 0.003 (at node 22)
	maximum = 0.019 (at node 60)
Accepted packet rate average = 0.00959375
	minimum = 0.002 (at node 19)
	maximum = 0.019 (at node 39)
Injected flit rate average = 0.01
	minimum = 0.003 (at node 22)
	maximum = 0.019 (at node 60)
Accepted flit rate average= 0.00959375
	minimum = 0.002 (at node 19)
	maximum = 0.019 (at node 39)
Injected packet length average = 1
Accepted packet length average = 1
Total in-flight flits = 26 (0 measured)
latency change    = 1
throughput change = 1
Class 0:
Packet latency average = 33.1404
	minimum = 7
	maximum = 90
Network latency average = 33.1404
	minimum = 7
	maximum = 90
Slowest packet = 40744
Flit latency average = 33.1404
	minimum = 7
	maximum = 90
Slowest flit = 40744
Fragmentation average = 0
	minimum = 0
	maximum = 0
Injected packet rate average = 0.0100859
	minimum = 0.005 (at node 5)
	maximum = 0.0155 (at node 60)
Accepted packet rate average = 0.00990625
	minimum = 0.0045 (at node 50)
	maximum = 0.0155 (at node 39)
Injected flit rate average = 0.0100859
	minimum = 0.005 (at node 5)
	maximum = 0.0155 (at node 60)
Accepted flit rate average= 0.00990625
	minimum = 0.0045 (at node 50)
	maximum = 0.0155 (at node 39)
Injected packet length average = 1
Accepted packet length average = 1
Total in-flight flits = 23 (0 measured)
latency change    = 0.00266326
throughput change = 0.0315457
Class 0:
Packet latency average = 33.1689
	minimum = 7
	maximum = 85
Network latency average = 33.1689
	minimum = 7
	maximum = 85
Slowest packet = 42358
Flit latency average = 33.1689
	minimum = 7
	maximum = 85
Slowest flit = 42358
Fragmentation average = 0
	minimum = 0
	maximum = 0
Injected packet rate average = 0.0103125
	minimum = 0.003 (at node 61)
	maximum = 0.02 (at node 29)
Accepted packet rate average = 0.0102656
	minimum = 0.004 (at node 6)
	maximum = 0.019 (at node 43)
Injected flit rate average = 0.0103125
	minimum = 0.003 (at node 61)
	maximum = 0.02 (at node 29)
Accepted flit rate average= 0.0102656
	minimum = 0.004 (at node 6)
	maximum = 0.019 (at node 43)
Injected packet length average = 1
Accepted packet length average = 1
Total in-flight flits = 26 (0 measured)
latency change    = 0.000861385
throughput change = 0.0350076
Warmed up ...Time used is 3000 cycles
Class 0:
Packet latency average = 34.3361
	minimum = 7
	maximum = 86
Network latency average = 34.3361
	minimum = 7
	maximum = 86
Slowest packet = 42845
Flit latency average = 34.6761
	minimum = 7
	maximum = 86
Slowest flit = 42845
Fragmentation average = 0
	minimum = 0
	maximum = 0
Injected packet rate average = 0.009875
	minimum = 0.003 (at node 20)
	maximum = 0.022 (at node 51)
Accepted packet rate average = 0.0099375
	minimum = 0.003 (at node 34)
	maximum = 0.021 (at node 29)
Injected flit rate average = 0.009875
	minimum = 0.003 (at node 20)
	maximum = 0.022 (at node 51)
Accepted flit rate average= 0.0099375
	minimum = 0.003 (at node 34)
	maximum = 0.021 (at node 29)
Injected packet length average = 1
Accepted packet length average = 1
Total in-flight flits = 22 (22 measured)
latency change    = 0.033991
throughput change = 0.0330189
Class 0:
Packet latency average = 34.2169
	minimum = 7
	maximum = 86
Network latency average = 34.2169
	minimum = 7
	maximum = 86
Slowest packet = 42845
Flit latency average = 34.3926
	minimum = 7
	maximum = 86
Slowest flit = 42845
Fragmentation average = 0
	minimum = 0
	maximum = 0
Injected packet rate average = 0.00971094
	minimum = 0.0055 (at node 20)
	maximum = 0.018 (at node 21)
Accepted packet rate average = 0.00975
	minimum = 0.0055 (at node 34)
	maximum = 0.018 (at node 42)
Injected flit rate average = 0.00971094
	minimum = 0.0055 (at node 20)
	maximum = 0.018 (at node 21)
Accepted flit rate average= 0.00975
	minimum = 0.0055 (at node 34)
	maximum = 0.018 (at node 42)
Injected packet length average = 1
Accepted packet length average = 1
Total in-flight flits = 21 (21 measured)
latency change    = 0.0034839
throughput change = 0.0192308
Class 0:
Packet latency average = 34.3131
	minimum = 7
	maximum = 99
Network latency average = 34.3131
	minimum = 7
	maximum = 99
Slowest packet = 43828
Flit latency average = 34.4281
	minimum = 7
	maximum = 99
Slowest flit = 43828
Fragmentation average = 0
	minimum = 0
	maximum = 0
Injected packet rate average = 0.00979167
	minimum = 0.006 (at node 20)
	maximum = 0.016 (at node 51)
Accepted packet rate average = 0.00981771
	minimum = 0.006 (at node 34)
	maximum = 0.016 (at node 30)
Injected flit rate average = 0.00979167
	minimum = 0.006 (at node 20)
	maximum = 0.016 (at node 51)
Accepted flit rate average= 0.00981771
	minimum = 0.006 (at node 34)
	maximum = 0.016 (at node 30)
Injected packet length average = 1
Accepted packet length average = 1
Total in-flight flits = 21 (21 measured)
latency change    = 0.002804
throughput change = 0.00689655
Draining all recorded packets ...
Draining remaining packets ...
Time taken is 6139 cycles
Class 0:
Packet latency average = 34.9109
	minimum = 7
	maximum = 89
Network latency average = 34.9109
	minimum = 7
	maximum = 89
Slowest packet = 44594
Flit latency average = 34.9109
	minimum = 7
	maximum = 89
Slowest flit = 44594
Fragmentation average = 0
	minimum = 0
	maximum = 0
Injected packet rate average = 0.00978125
	minimum = 0.003 (at node 50)
	maximum = 0.017 (at node 57)
Accepted packet rate average = 0.00946875
	minimum = 0.003 (at node 22)
	maximum = 0.016 (at node 1)
Injected flit rate average = 0.00978125
	minimum = 0.003 (at node 50)
	maximum = 0.017 (at node 57)
Accepted flit rate average= 0.00946875
	minimum = 0.003 (at node 22)
	maximum = 0.016 (at node 1)
Injected packet length average = 1
Accepted packet length average = 1
Total in-flight flits = 20 (0 measured)
latency change    = 1
throughput change = 1
Class 0:
Packet latency average = 34.287
	minimum = 7
	maximum = 89
Network latency average = 34.287
	minimum = 7
	maximum = 89
Slowest packet = 44594
Flit latency average = 34.287
	minimum = 7
	maximum = 89
Slowest flit = 44594
Fragmentation average = 0
	minimum = 0
	maximum = 0
Injected packet rate average = 0.00945312
	minimum = 0.0055 (at node 50)
	maximum = 0.014 (at node 8)
Accepted packet rate average = 0.00922656
	minimum = 0.0045 (at node 22)
	maximum = 0.014 (at node 1)
Injected flit rate average = 0.00945312
	minimum = 0.0055 (at node 50)
	maximum = 0.014 (at node 8)
Accepted flit rate average= 0.00922656
	minimum = 0.0045 (at node 22)
	maximum = 0.014 (at node 1)
Injected packet length average = 1
Accepted packet length average = 1
Total in-flight flits = 29 (0 measured)
latency change    = 0.0181948
throughput change = 0.0262489
Class 0:
Packet latency average = 32.9321
	minimum = 7
	maximum = 83
Network latency average = 32.9321
	minimum = 7
	maximum = 83
Slowest packet = 46026
Flit latency average = 32.9321
	minimum = 7
	maximum = 83
Slowest flit = 46026
Fragmentation average = 0
	minimum = 0
	maximum = 0
Injected packet rate average = 0.00960937
	minimum = 0.004 (at node 1)
	maximum = 0.015 (at node 10)
Accepted packet rate average = 0.00967187
	minimum = 0.004 (at node 15)
	maximum = 0.015 (at node 17)
Injected flit rate average = 0.00960937
	minimum = 0.004 (at node 1)
	maximum = 0.015 (at node 10)
Accepted flit rate average= 0.00967187
	minimum = 0.004 (at node 15)
	maximum = 0.015 (at node 17)
Injected packet length average = 1
Accepted packet length average = 1
Total in-flight flits = 25 (0 measured)
latency change    = 0.0411421
throughput change = 0.046042
Warmed up ...Time used is 3000 cycles
Class 0:
Packet latency average = 33.0817
	minimum = 7
	maximum = 81
Network latency average = 33.0817
	minimum = 7
	maximum = 81
Slowest packet = 46378
Flit latency average = 33.6602
	minimum = 7
	maximum = 81
Slowest flit = 46378
Fragmentation average = 0
	minimum = 0
	maximum = 0
Injected packet rate average = 0.0104688
	minimum = 0.003 (at node 7)
	maximum = 0.019 (at node 23)
Accepted packet rate average = 0.0105313
	minimum = 0.004 (at node 50)
	maximum = 0.019 (at node 58)
Injected flit rate average = 0.0104688
	minimum = 0.003 (at node 7)
	maximum = 0.019 (at node 23)
Accepted flit rate average= 0.0105313
	minimum = 0.004 (at node 50)
	maximum = 0.019 (at node 58)
Injected packet length average = 1
Accepted packet length average = 1
Total in-flight flits = 21 (21 measured)
latency change    = 0.00451959
throughput change = 0.0816024
Class 0:
Packet latency average = 33.704
	minimum = 7
	maximum = 87
Network latency average = 33.704
	minimum = 7
	maximum = 87
Slowest packet = 47335
Flit latency average = 33.9916
	minimum = 7
	maximum = 87
Slowest flit = 47335
Fragmentation average = 0
	minimum = 0
	maximum = 0
Injected packet rate average = 0.0101484
	minimum = 0.006 (at node 31)
	maximum = 0.016 (at node 36)
Accepted packet rate average = 0.0101719
	minimum = 0.006 (at node 14)
	maximum = 0.016 (at node 36)
Injected flit rate average = 0.0101484
	minimum = 0.006 (at node 31)
	maximum = 0.016 (at node 36)
Accepted flit rate average= 0.0101719
	minimum = 0.006 (at node 14)
	maximum = 0.016 (at node 36)
Injected packet length average = 1
Accepted packet length average = 1
Total in-flight flits = 22 (22 measured)
latency change    = 0.0184646
throughput change = 0.0353303
Class 0:
Packet latency average = 33.3377
	minimum = 7
	maximum = 87
Network latency average = 33.3377
	minimum = 7
	maximum = 87
Slowest packet = 47335
Flit latency average = 33.535
	minimum = 7
	maximum = 87
Slowest flit = 47335
Fragmentation average = 0
	minimum = 0
	maximum = 0
Injected packet rate average = 0.0100833
	minimum = 0.00733333 (at node 40)
	maximum = 0.0143333 (at node 32)
Accepted packet rate average = 0.010125
	minimum = 0.00733333 (at node 5)
	maximum = 0.0146667 (at node 4)
Injected flit rate average = 0.0100833
	minimum = 0.00733333 (at node 40)
	maximum = 0.0143333 (at node 32)
Accepted flit rate average= 0.010125
	minimum = 0.00733333 (at node 5)
	maximum = 0.0146667 (at node 4)
Injected packet length average = 1
Accepted packet length average = 1
Total in-flight flits = 17 (17 measured)
latency change    = 0.0109881
throughput change = 0.00462963
Class 0:
Packet latency average = 33.3097
	minimum = 7
	maximum = 87
Network latency average = 33.3097
	minimum = 7
	maximum = 87
Slowest packet = 47335
Flit latency average = 33.4593
	minimum = 7
	maximum = 87
Slowest flit = 47335
Fragmentation average = 0
	minimum = 0
	maximum = 0
Injected packet rate average = 0.0100508
	minimum = 0.0075 (at node 13)
	maximum = 0.01375 (at node 41)
Accepted packet rate average = 0.0100352
	minimum = 0.00725 (at node 5)
	maximum = 0.01375 (at node 4)
Injected flit rate average = 0.0100508
	minimum = 0.0075 (at node 13)
	maximum = 0.01375 (at node 41)
Accepted flit rate average= 0.0100352
	minimum = 0.00725 (at node 5)
	maximum = 0.01375 (at node 4)
Injected packet length average = 1
Accepted packet length average = 1
Total in-flight flits = 29 (29 measured)
latency change    = 0.000838417
throughput change = 0.0089529
Draining all recorded packets ...
Draining remaining packets ...
Time taken is 7114 cycles
Class 0:
Packet latency average = 32.7956
	minimum = 7
	maximum = 85
Network latency average = 32.7956
	minimum = 7
	maximum = 85
Slowest packet = 48922
Flit latency average = 32.7956
	minimum = 7
	maximum = 85
Slowest flit = 48922
Fragmentation average = 0
	minimum = 0
	maximum = 0
Injected packet rate average = 0.0104219
	minimum = 0.004 (at node 47)
	maximum = 0.017 (at node 10)
Accepted packet rate average = 0.0100156
	minimum = 0.004 (at node 61)
	maximum = 0.017 (at node 17)
Injected flit rate average = 0.0104219
	minimum = 0.004 (at node 47)
	maximum = 0.017 (at node 10)
Accepted flit rate average= 0.0100156
	minimum = 0.004 (at node 61)
	maximum = 0.017 (at node 17)
Injected packet length average = 1
Accepted packet length average = 1
Total in-flight flits = 26 (0 measured)
latency change    = 1
throughput change = 1
Class 0:
Packet latency average = 33.2605
	minimum = 7
	maximum = 90
Network latency average = 33.2605
	minimum = 7
	maximum = 90
Slowest packet = 49873
Flit latency average = 33.2605
	minimum = 7
	maximum = 90
Slowest flit = 49873
Fragmentation average = 0
	minimum = 0
	maximum = 0
Injected packet rate average = 0.0102969
	minimum = 0.0045 (at node 47)
	maximum = 0.017 (at node 25)
Accepted packet rate average = 0.0100469
	minimum = 0.0045 (at node 61)
	maximum = 0.0165 (at node 11)
Injected flit rate average = 0.0102969
	minimum = 0.0045 (at node 47)
	maximum = 0.017 (at node 25)
Accepted flit rate average= 0.0100469
	minimum = 0.0045 (at node 61)
	maximum = 0.0165 (at node 11)
Injected packet length average = 1
Accepted packet length average = 1
Total in-flight flits = 32 (0 measured)
latency change    = 0.0139765
throughput change = 0.00311042
Class 0:
Packet latency average = 34.177
	minimum = 7
	maximum = 87
Network latency average = 34.177
	minimum = 7
	maximum = 87
Slowest packet = 50640
Flit latency average = 34.177
	minimum = 7
	maximum = 87
Slowest flit = 50640
Fragmentation average = 0
	minimum = 0
	maximum = 0
Injected packet rate average = 0.0102188
	minimum = 0.003 (at node 54)
	maximum = 0.018 (at node 5)
Accepted packet rate average = 0.0103281
	minimum = 0.003 (at node 54)
	maximum = 0.017 (at node 26)
Injected flit rate average = 0.0102188
	minimum = 0.003 (at node 54)
	maximum = 0.018 (at node 5)
Accepted flit rate average= 0.0103281
	minimum = 0.003 (at node 54)
	maximum = 0.017 (at node 26)
Injected packet length average = 1
Accepted packet length average = 1
Total in-flight flits = 25 (0 measured)
latency change    = 0.0268165
throughput change = 0.0272315
Warmed up ...Time used is 3000 cycles
Class 0:
Packet latency average = 32.9643
	minimum = 7
	maximum = 85
Network latency average = 32.9643
	minimum = 7
	maximum = 85
Slowest packet = 51120
Flit latency average = 33.4618
	minimum = 7
	maximum = 85
Slowest flit = 51120
Fragmentation average = 0
	minimum = 0
	maximum = 0
Injected packet rate average = 0.0100156
	minimum = 0.004 (at node 16)
	maximum = 0.017 (at node 43)
Accepted packet rate average = 0.0100156
	minimum = 0.005 (at node 2)
	maximum = 0.017 (at node 23)
Injected flit rate average = 0.0100156
	minimum = 0.004 (at node 16)
	maximum = 0.017 (at node 43)
Accepted flit rate average= 0.0100156
	minimum = 0.005 (at node 2)
	maximum = 0.017 (at node 23)
Injected packet length average = 1
Accepted packet length average = 1
Total in-flight flits = 25 (25 measured)
latency change    = 0.0367889
throughput change = 0.0312012
Class 0:
Packet latency average = 33.7724
	minimum = 7
	maximum = 89
Network latency average = 33.7724
	minimum = 7
	maximum = 89
Slowest packet = 52043
Flit latency average = 34.0112
	minimum = 7
	maximum = 89
Slowest flit = 52043
Fragmentation average = 0
	minimum = 0
	maximum = 0
Injected packet rate average = 0.00972656
	minimum = 0.0045 (at node 62)
	maximum = 0.016 (at node 23)
Accepted packet rate average = 0.00977344
	minimum = 0.0045 (at node 55)
	maximum = 0.017 (at node 58)
Injected flit rate average = 0.00972656
	minimum = 0.0045 (at node 62)
	maximum = 0.016 (at node 23)
Accepted flit rate average= 0.00977344
	minimum = 0.0045 (at node 55)
	maximum = 0.017 (at node 58)
Injected packet length average = 1
Accepted packet length average = 1
Total in-flight flits = 19 (19 measured)
latency change    = 0.0239291
throughput change = 0.0247802
Class 0:
Packet latency average = 33.544
	minimum = 7
	maximum = 89
Network latency average = 33.544
	minimum = 7
	maximum = 89
Slowest packet = 52043
Flit latency average = 33.7044
	minimum = 7
	maximum = 89
Slowest flit = 52043
Fragmentation average = 0
	minimum = 0
	maximum = 0
Injected packet rate average = 0.00988021
	minimum = 0.00566667 (at node 61)
	maximum = 0.014 (at node 27)
Accepted packet rate average = 0.00988542
	minimum = 0.00566667 (at node 47)
	maximum = 0.014 (at node 27)
Injected flit rate average = 0.00988021
	minimum = 0.00566667 (at node 61)
	maximum = 0.014 (at node 27)
Accepted flit rate average= 0.00988542
	minimum = 0.00566667 (at node 47)
	maximum = 0.014 (at node 27)
Injected packet length average = 1
Accepted packet length average = 1
Total in-flight flits = 24 (24 measured)
latency change    = 0.00680847
throughput change = 0.0113277
Draining all recorded packets ...
Draining remaining packets ...
Time taken is 6133 cycles
Class 0:
Packet latency average = 34.01
	minimum = 7
	maximum = 93
Network latency average = 34.01
	minimum = 7
	maximum = 93
Slowest packet = 53127
Flit latency average = 34.01
	minimum = 7
	maximum = 93
Slowest flit = 53127
Fragmentation average = 0
	minimum = 0
	maximum = 0
Injected packet rate average = 0.00973437
	minimum = 0.004 (at node 26)
	maximum = 0.018 (at node 23)
Accepted packet rate average = 0.00939062
	minimum = 0.004 (at node 6)
	maximum = 0.017 (at node 56)
Injected flit rate average = 0.00973437
	minimum = 0.004 (at node 26)
	maximum = 0.018 (at node 23)
Accepted flit rate average= 0.00939062
	minimum = 0.004 (at node 6)
	maximum = 0.017 (at node 56)
Injected packet length average = 1
Accepted packet length average = 1
Total in-flight flits = 22 (0 measured)
latency change    = 1
throughput change = 1
Class 0:
Packet latency average = 33.4914
	minimum = 7
	maximum = 93
Network latency average = 33.4914
	minimum = 7
	maximum = 93
Slowest packet = 53127
Flit latency average = 33.4914
	minimum = 7
	maximum = 93
Slowest flit = 53127
Fragmentation average = 0
	minimum = 0
	maximum = 0
Injected packet rate average = 0.00970312
	minimum = 0.005 (at node 4)
	maximum = 0.0145 (at node 51)
Accepted packet rate average = 0.00957031
	minimum = 0.005 (at node 32)
	maximum = 0.014 (at node 8)
Injected flit rate average = 0.00970312
	minimum = 0.005 (at node 4)
	maximum = 0.0145 (at node 51)
Accepted flit rate average= 0.00957031
	minimum = 0.005 (at node 32)
	maximum = 0.014 (at node 8)
Injected packet length average = 1
Accepted packet length average = 1
Total in-flight flits = 17 (0 measured)
latency change    = 0.0154832
throughput change = 0.0187755
Class 0:
Packet latency average = 32.4082
	minimum = 7
	maximum = 83
Network latency average = 32.4082
	minimum = 7
	maximum = 83
Slowest packet = 54261
Flit latency average = 32.4082
	minimum = 7
	maximum = 83
Slowest flit = 54261
Fragmentation average = 0
	minimum = 0
	maximum = 0
Injected packet rate average = 0.010625
	minimum = 0.004 (at node 12)
	maximum = 0.02 (at node 37)
Accepted packet rate average = 0.0106406
	minimum = 0.004 (at node 33)
	maximum = 0.019 (at node 38)
Injected flit rate average = 0.010625
	minimum = 0.004 (at node 12)
	maximum = 0.02 (at node 37)
Accepted flit rate average= 0.0106406
	minimum = 0.004 (at node 33)
	maximum = 0.019 (at node 38)
Injected packet length average = 1
Accepted packet length average = 1
Total in-flight flits = 16 (0 measured)
latency change    = 0.0334238
throughput change = 0.100587
Warmed up ...Time used is 3000 cycles
Class 0:
Packet latency average = 32.6148
	minimum = 7
	maximum = 83
Network latency average = 32.6148
	minimum = 7
	maximum = 83
Slowest packet = 54760
Flit latency average = 32.8105
	minimum = 7
	maximum = 83
Slowest flit = 54760
Fragmentation average = 0
	minimum = 0
	maximum = 0
Injected packet rate average = 0.0104688
	minimum = 0.003 (at node 36)
	maximum = 0.016 (at node 22)
Accepted packet rate average = 0.0103906
	minimum = 0.003 (at node 36)
	maximum = 0.016 (at node 19)
Injected flit rate average = 0.0104688
	minimum = 0.003 (at node 36)
	maximum = 0.016 (at node 22)
Accepted flit rate average= 0.0103906
	minimum = 0.003 (at node 36)
	maximum = 0.016 (at node 19)
Injected packet length average = 1
Accepted packet length average = 1
Total in-flight flits = 21 (21 measured)
latency change    = 0.00633359
throughput change = 0.0240602
Class 0:
Packet latency average = 33.5194
	minimum = 7
	maximum = 85
Network latency average = 33.5194
	minimum = 7
	maximum = 85
Slowest packet = 55531
Flit latency average = 33.612
	minimum = 7
	maximum = 85
Slowest flit = 55531
Fragmentation average = 0
	minimum = 0
	maximum = 0
Injected packet rate average = 0.00978906
	minimum = 0.004 (at node 36)
	maximum = 0.0155 (at node 26)
Accepted packet rate average = 0.00976562
	minimum = 0.004 (at node 36)
	maximum = 0.0145 (at node 19)
Injected flit rate average = 0.00978906
	minimum = 0.004 (at node 36)
	maximum = 0.0155 (at node 26)
Accepted flit rate average= 0.00976562
	minimum = 0.004 (at node 36)
	maximum = 0.0145 (at node 19)
Injected packet length average = 1
Accepted packet length average = 1
Total in-flight flits = 19 (19 measured)
latency change    = 0.026989
throughput change = 0.064
Class 0:
Packet latency average = 33.3847
	minimum = 7
	maximum = 85
Network latency average = 33.3847
	minimum = 7
	maximum = 85
Slowest packet = 55531
Flit latency average = 33.4469
	minimum = 7
	maximum = 85
Slowest flit = 55531
Fragmentation average = 0
	minimum = 0
	maximum = 0
Injected packet rate average = 0.00986979
	minimum = 0.006 (at node 44)
	maximum = 0.0163333 (at node 26)
Accepted packet rate average = 0.00985938
	minimum = 0.006 (at node 37)
	maximum = 0.0163333 (at node 19)
Injected flit rate average = 0.00986979
	minimum = 0.006 (at node 44)
	maximum = 0.0163333 (at node 26)
Accepted flit rate average= 0.00985938
	minimum = 0.006 (at node 37)
	maximum = 0.0163333 (at node 19)
Injected packet length average = 1
Accepted packet length average = 1
Total in-flight flits = 18 (18 measured)
latency change    = 0.00403756
throughput change = 0.00950872
Class 0:
Packet latency average = 33.3298
	minimum = 7
	maximum = 85
Network latency average = 33.3298
	minimum = 7
	maximum = 85
Slowest packet = 55531
Flit latency average = 33.3767
	minimum = 7
	maximum = 85
Slowest flit = 55531
Fragmentation average = 0
	minimum = 0
	maximum = 0
Injected packet rate average = 0.00987109
	minimum = 0.00675 (at node 14)
	maximum = 0.01625 (at node 26)
Accepted packet rate average = 0.00988281
	minimum = 0.0065 (at node 49)
	maximum = 0.01625 (at node 19)
Injected flit rate average = 0.00987109
	minimum = 0.00675 (at node 14)
	maximum = 0.01625 (at node 26)
Accepted flit rate average= 0.00988281
	minimum = 0.0065 (at node 49)
	maximum = 0.01625 (at node 19)
Injected packet length average = 1
Accepted packet length average = 1
Total in-flight flits = 13 (13 measured)
latency change    = 0.00164727
throughput change = 0.00237154
Class 0:
Packet latency average = 33.3282
	minimum = 7
	maximum = 85
Network latency average = 33.3282
	minimum = 7
	maximum = 85
Slowest packet = 55531
Flit latency average = 33.366
	minimum = 7
	maximum = 85
Slowest flit = 55531
Fragmentation average = 0
	minimum = 0
	maximum = 0
Injected packet rate average = 0.00985938
	minimum = 0.007 (at node 27)
	maximum = 0.0146 (at node 26)
Accepted packet rate average = 0.00982813
	minimum = 0.0072 (at node 27)
	maximum = 0.0146 (at node 19)
Injected flit rate average = 0.00985938
	minimum = 0.007 (at node 27)
	maximum = 0.0146 (at node 26)
Accepted flit rate average= 0.00982813
	minimum = 0.0072 (at node 27)
	maximum = 0.0146 (at node 19)
Injected packet length average = 1
Accepted packet length average = 1
Total in-flight flits = 26 (26 measured)
latency change    = 4.60121e-05
throughput change = 0.00556439
Draining all recorded packets ...
Draining remaining packets ...
Time taken is 8146 cycles
Class 0:
Packet latency average = 33.5636
	minimum = 7
	maximum = 84
Network latency average = 33.5636
	minimum = 7
	maximum = 84
Slowest packet = 58469
Flit latency average = 33.5636
	minimum = 7
	maximum = 84
Slowest flit = 58469
Fragmentation average = 0
	minimum = 0
	maximum = 0
Injected packet rate average = 0.0102813
	minimum = 0.003 (at node 7)
	maximum = 0.019 (at node 16)
Accepted packet rate average = 0.00995313
	minimum = 0.003 (at node 56)
	maximum = 0.018 (at node 2)
Injected flit rate average = 0.0102813
	minimum = 0.003 (at node 7)
	maximum = 0.019 (at node 16)
Accepted flit rate average= 0.00995313
	minimum = 0.003 (at node 56)
	maximum = 0.018 (at node 2)
Injected packet length average = 1
[...]
Injected flit rate average = 0.00965104
	minimum = 0.00566667 (at node 23)
	maximum = 0.013 (at node 43)
Accepted flit rate average= 0.009625
	minimum = 0.00566667 (at node 58)
	maximum = 0.0133333 (at node 29)
Injected packet length average = 1
Accepted packet length average = 1
Total in-flight flits = 25 (25 measured)
latency change    = 0.00620398
throughput change = 0.00324675
Class 0:
Packet latency average = 33.4451
	minimum = 7
	maximum = 90
Network latency average = 33.4451
	minimum = 7
	maximum = 90
Slowest packet = 411791
Flit latency average = 33.5033
	minimum = 7
	maximum = 90
Slowest flit = 411791
Fragmentation average = 0
	minimum = 0
	maximum = 0
Injected packet rate average = 0.00954297
	minimum = 0.00725 (at node 35)
	maximum = 0.0135 (at node 43)
Accepted packet rate average = 0.00953906
	minimum = 0.00725 (at node 25)
	maximum = 0.0135 (at node 29)
Injected flit rate average = 0.00954297
	minimum = 0.00725 (at node 35)
	maximum = 0.0135 (at node 43)
Accepted flit rate average= 0.00953906
	minimum = 0.00725 (at node 25)
	maximum = 0.0135 (at node 29)
Injected packet length average = 1
Accepted packet length average = 1
Total in-flight flits = 21 (21 measured)
latency change    = 0.0110835
throughput change = 0.00900901
Class 0:
Packet latency average = 33.4836
	minimum = 7
	maximum = 90
Network latency average = 33.4836
	minimum = 7
	maximum = 90
Slowest packet = 411791
Flit latency average = 33.5297
	minimum = 7
	maximum = 90
Slowest flit = 411791
Fragmentation average = 0
	minimum = 0
	maximum = 0
Injected packet rate average = 0.00958437
	minimum = 0.0074 (at node 55)
	maximum = 0.013 (at node 56)
Accepted packet rate average = 0.00958125
	minimum = 0.0074 (at node 60)
	maximum = 0.0126 (at node 7)
Injected flit rate average = 0.00958437
	minimum = 0.0074 (at node 55)
	maximum = 0.013 (at node 56)
Accepted flit rate average= 0.00958125
	minimum = 0.0074 (at node 60)
	maximum = 0.0126 (at node 7)
Injected packet length average = 1
Accepted packet length average = 1
Total in-flight flits = 21 (21 measured)
latency change    = 0.00114977
throughput change = 0.00440313
Draining all recorded packets ...
Draining remaining packets ...
Time taken is 8120 cycles
Class 0:
Packet latency average = 32.5264
	minimum = 7
	maximum = 82
Network latency average = 32.5264
	minimum = 7
	maximum = 82
Slowest packet = 414373
Flit latency average = 32.5264
	minimum = 7
	maximum = 82
Slowest flit = 414373
Fragmentation average = 0
	minimum = 0
	maximum = 0
Injected packet rate average = 0.0100469
	minimum = 0.002 (at node 15)
	maximum = 0.017 (at node 63)
Accepted packet rate average = 0.00976562
	minimum = 0.002 (at node 57)
	maximum = 0.017 (at node 63)
Injected flit rate average = 0.0100469
	minimum = 0.002 (at node 15)
	maximum = 0.017 (at node 63)
Accepted flit rate average= 0.00976562
	minimum = 0.002 (at node 57)
	maximum = 0.017 (at node 63)
Injected packet length average = 1
Accepted packet length average = 1
Total in-flight flits = 18 (0 measured)
latency change    = 1
throughput change = 1
Class 0:
Packet latency average = 32.8259
	minimum = 7
	maximum = 82
Network latency average = 32.8259
	minimum = 7
	maximum = 82
Slowest packet = 414373
Flit latency average = 32.8259
	minimum = 7
	maximum = 82
Slowest flit = 414373
Fragmentation average = 0
	minimum = 0
	maximum = 0
Injected packet rate average = 0.0103906
	minimum = 0.005 (at node 21)
	maximum = 0.015 (at node 7)
Accepted packet rate average = 0.0101875
	minimum = 0.0045 (at node 42)
	maximum = 0.015 (at node 35)
Injected flit rate average = 0.0103906
	minimum = 0.005 (at node 21)
	maximum = 0.015 (at node 7)
Accepted flit rate average= 0.0101875
	minimum = 0.0045 (at node 42)
	maximum = 0.015 (at node 35)
Injected packet length average = 1
Accepted packet length average = 1
Total in-flight flits = 26 (0 measured)
latency change    = 0.0091245
throughput change = 0.041411
Class 0:
Packet latency average = 33.8328
	minimum = 7
	maximum = 80
Network latency average = 33.8328
	minimum = 7
	maximum = 80
Slowest packet = 415252
Flit latency average = 33.8328
	minimum = 7
	maximum = 80
Slowest flit = 415252
Fragmentation average = 0
	minimum = 0
	maximum = 0
Injected packet rate average = 0.00976562
	minimum = 0.004 (at node 35)
	maximum = 0.02 (at node 43)
Accepted packet rate average = 0.00990625
	minimum = 0.004 (at node 28)
	maximum = 0.02 (at node 29)
Injected flit rate average = 0.00976562
	minimum = 0.004 (at node 35)
	maximum = 0.02 (at node 43)
Accepted flit rate average= 0.00990625
	minimum = 0.004 (at node 28)
	maximum = 0.02 (at node 29)
Injected packet length average = 1
Accepted packet length average = 1
Total in-flight flits = 17 (0 measured)
latency change    = 0.0297607
throughput change = 0.0283912
Warmed up ...Time used is 3000 cycles
Class 0:
Packet latency average = 33.3959
	minimum = 7
	maximum = 84
Network latency average = 33.3959
	minimum = 7
	maximum = 84
Slowest packet = 416405
Flit latency average = 33.718
	minimum = 7
	maximum = 84
Slowest flit = 416405
Fragmentation average = 0
	minimum = 0
	maximum = 0
Injected packet rate average = 0.010375
	minimum = 0.001 (at node 8)
	maximum = 0.02 (at node 4)
Accepted packet rate average = 0.01025
	minimum = 0.001 (at node 1)
	maximum = 0.019 (at node 9)
Injected flit rate average = 0.010375
	minimum = 0.001 (at node 8)
	maximum = 0.02 (at node 4)
Accepted flit rate average= 0.01025
	minimum = 0.001 (at node 1)
	maximum = 0.019 (at node 9)
Injected packet length average = 1
Accepted packet length average = 1
Total in-flight flits = 25 (25 measured)
latency change    = 0.0130817
throughput change = 0.0335366
Class 0:
Packet latency average = 33.6739
	minimum = 7
	maximum = 89
Network latency average = 33.6739
	minimum = 7
	maximum = 89
Slowest packet = 416548
Flit latency average = 33.8311
	minimum = 7
	maximum = 89
Slowest flit = 416548
Fragmentation average = 0
	minimum = 0
	maximum = 0
Injected packet rate average = 0.0102734
	minimum = 0.005 (at node 8)
	maximum = 0.018 (at node 0)
Accepted packet rate average = 0.0102656
	minimum = 0.004 (at node 1)
	maximum = 0.018 (at node 0)
Injected flit rate average = 0.0102734
	minimum = 0.005 (at node 8)
	maximum = 0.018 (at node 0)
Accepted flit rate average= 0.0102656
	minimum = 0.004 (at node 1)
	maximum = 0.018 (at node 0)
Injected packet length average = 1
Accepted packet length average = 1
Total in-flight flits = 18 (18 measured)
latency change    = 0.00825363
throughput change = 0.00152207
Class 0:
Packet latency average = 33.8274
	minimum = 7
	maximum = 89
Network latency average = 33.8274
	minimum = 7
	maximum = 89
Slowest packet = 416548
Flit latency average = 33.931
	minimum = 7
	maximum = 89
Slowest flit = 416548
Fragmentation average = 0
	minimum = 0
	maximum = 0
Injected packet rate average = 0.0103229
	minimum = 0.006 (at node 63)
	maximum = 0.0146667 (at node 4)
Accepted packet rate average = 0.0102604
	minimum = 0.006 (at node 63)
	maximum = 0.0143333 (at node 0)
Injected flit rate average = 0.0103229
	minimum = 0.006 (at node 63)
	maximum = 0.0146667 (at node 4)
Accepted flit rate average= 0.0102604
	minimum = 0.006 (at node 63)
	maximum = 0.0143333 (at node 0)
Injected packet length average = 1
Accepted packet length average = 1
Total in-flight flits = 29 (29 measured)
latency change    = 0.00454017
throughput change = 0.000507614
Draining all recorded packets ...
Draining remaining packets ...
Time taken is 6117 cycles
Class 0:
Packet latency average = 32.6299
	minimum = 7
	maximum = 85
Network latency average = 32.6299
	minimum = 7
	maximum = 85
Slowest packet = 418206
Flit latency average = 32.6299
	minimum = 7
	maximum = 85
Slowest flit = 418206
Fragmentation average = 0
	minimum = 0
	maximum = 0
Injected packet rate average = 0.009875
	minimum = 0.002 (at node 20)
	maximum = 0.017 (at node 35)
Accepted packet rate average = 0.0095
	minimum = 0.002 (at node 34)
	maximum = 0.017 (at node 28)
Injected flit rate average = 0.009875
	minimum = 0.002 (at node 20)
	maximum = 0.017 (at node 35)
Accepted flit rate average= 0.0095
	minimum = 0.002 (at node 34)
	maximum = 0.017 (at node 28)
Injected packet length average = 1
Accepted packet length average = 1
Total in-flight flits = 24 (0 measured)
latency change    = 1
throughput change = 1
Class 0:
Packet latency average = 34.2112
	minimum = 7
	maximum = 86
Network latency average = 34.2112
	minimum = 7
	maximum = 86
Slowest packet = 418964
Flit latency average = 34.2112
	minimum = 7
	maximum = 86
Slowest flit = 418964
Fragmentation average = 0
	minimum = 0
	maximum = 0
Injected packet rate average = 0.0103438
	minimum = 0.0055 (at node 20)
	maximum = 0.0155 (at node 38)
Accepted packet rate average = 0.0101719
	minimum = 0.0055 (at node 34)
	maximum = 0.015 (at node 52)
Injected flit rate average = 0.0103438
	minimum = 0.0055 (at node 20)
	maximum = 0.0155 (at node 38)
Accepted flit rate average= 0.0101719
	minimum = 0.0055 (at node 34)
	maximum = 0.015 (at node 52)
Injected packet length average = 1
Accepted packet length average = 1
Total in-flight flits = 22 (0 measured)
latency change    = 0.0462211
throughput change = 0.0660522
Class 0:
Packet latency average = 33.8789
	minimum = 7
	maximum = 85
Network latency average = 33.8789
	minimum = 7
	maximum = 85
Slowest packet = 419298
Flit latency average = 33.8789
	minimum = 7
	maximum = 85
Slowest flit = 419298
Fragmentation average = 0
	minimum = 0
	maximum = 0
Injected packet rate average = 0.008875
	minimum = 0.003 (at node 25)
	maximum = 0.016 (at node 46)
Accepted packet rate average = 0.00890625
	minimum = 0.003 (at node 11)
	maximum = 0.016 (at node 53)
Injected flit rate average = 0.008875
	minimum = 0.003 (at node 25)
	maximum = 0.016 (at node 46)
Accepted flit rate average= 0.00890625
	minimum = 0.003 (at node 11)
	maximum = 0.016 (at node 53)
Injected packet length average = 1
Accepted packet length average = 1
Total in-flight flits = 20 (0 measured)
latency change    = 0.00980745
throughput change = 0.142105
Warmed up ...Time used is 3000 cycles
Class 0:
Packet latency average = 32.5623
	minimum = 7
	maximum = 86
Network latency average = 32.5623
	minimum = 7
	maximum = 86
Slowest packet = 420144
Flit latency average = 32.8282
	minimum = 7
	maximum = 86
Slowest flit = 420144
Fragmentation average = 0
	minimum = 0
	maximum = 0
Injected packet rate average = 0.0101094
	minimum = 0.003 (at node 58)
	maximum = 0.017 (at node 52)
Accepted packet rate average = 0.0100938
	minimum = 0.004 (at node 7)
	maximum = 0.016 (at node 38)
Injected flit rate average = 0.0101094
	minimum = 0.003 (at node 58)
	maximum = 0.017 (at node 52)
Accepted flit rate average= 0.0100938
	minimum = 0.004 (at node 7)
	maximum = 0.016 (at node 38)
Injected packet length average = 1
Accepted packet length average = 1
Total in-flight flits = 21 (21 measured)
latency change    = 0.0404347
throughput change = 0.117647
Class 0:
Packet latency average = 32.3444
	minimum = 7
	maximum = 86
Network latency average = 32.3444
	minimum = 7
	maximum = 86
Slowest packet = 420144
Flit latency average = 32.4783
	minimum = 7
	maximum = 86
Slowest flit = 420144
Fragmentation average = 0
	minimum = 0
	maximum = 0
Injected packet rate average = 0.0103125
	minimum = 0.0055 (at node 16)
	maximum = 0.016 (at node 25)
Accepted packet rate average = 0.0102734
	minimum = 0.0055 (at node 2)
	maximum = 0.0155 (at node 11)
Injected flit rate average = 0.0103125
	minimum = 0.0055 (at node 16)
	maximum = 0.016 (at node 25)
Accepted flit rate average= 0.0102734
	minimum = 0.0055 (at node 2)
	maximum = 0.0155 (at node 11)
Injected packet length average = 1
Accepted packet length average = 1
Total in-flight flits = 25 (25 measured)
latency change    = 0.00673683
throughput change = 0.0174905
Class 0:
Packet latency average = 32.3707
	minimum = 7
	maximum = 86
Network latency average = 32.3707
	minimum = 7
	maximum = 86
Slowest packet = 420144
Flit latency average = 32.4594
	minimum = 7
	maximum = 86
Slowest flit = 420144
Fragmentation average = 0
	minimum = 0
	maximum = 0
Injected packet rate average = 0.0103385
	minimum = 0.00633333 (at node 40)
	maximum = 0.014 (at node 25)
Accepted packet rate average = 0.0103177
	minimum = 0.00633333 (at node 5)
	maximum = 0.014 (at node 11)
Injected flit rate average = 0.0103385
	minimum = 0.00633333 (at node 40)
	maximum = 0.014 (at node 25)
Accepted flit rate average= 0.0103177
	minimum = 0.00633333 (at node 5)
	maximum = 0.014 (at node 11)
Injected packet length average = 1
Accepted packet length average = 1
Total in-flight flits = 24 (24 measured)
latency change    = 0.000813317
throughput change = 0.00429076
Class 0:
Packet latency average = 32.8762
	minimum = 7
	maximum = 87
Network latency average = 32.8762
	minimum = 7
	maximum = 87
Slowest packet = 422372
Flit latency average = 32.9397
	minimum = 7
	maximum = 87
Slowest flit = 422372
Fragmentation average = 0
	minimum = 0
	maximum = 0
Injected packet rate average = 0.0101797
	minimum = 0.00725 (at node 23)
	maximum = 0.01425 (at node 0)
Accepted packet rate average = 0.0101719
	minimum = 0.00725 (at node 5)
	maximum = 0.01425 (at node 0)
Injected flit rate average = 0.0101797
	minimum = 0.00725 (at node 23)
	maximum = 0.01425 (at node 0)
Accepted flit rate average= 0.0101719
	minimum = 0.00725 (at node 5)
	maximum = 0.01425 (at node 0)
Injected packet length average = 1
Accepted packet length average = 1
Total in-flight flits = 22 (22 measured)
latency change    = 0.0153738
throughput change = 0.0143369
Draining all recorded packets ...
Draining remaining packets ...
Time taken is 7125 cycles
Class 0:
Packet latency average = 32.3128
	minimum = 7
	maximum = 82
Network latency average = 32.3128
	minimum = 7
	maximum = 82
Slowest packet = 422919
Flit latency average = 32.3128
	minimum = 7
	maximum = 82
Slowest flit = 422919
Fragmentation average = 0
	minimum = 0
	maximum = 0
Injected packet rate average = 0.0100313
	minimum = 0.005 (at node 9)
	maximum = 0.02 (at node 8)
Accepted packet rate average = 0.00964062
	minimum = 0.005 (at node 9)
	maximum = 0.02 (at node 1)
Injected flit rate average = 0.0100313
	minimum = 0.005 (at node 9)
	maximum = 0.02 (at node 8)
Accepted flit rate average= 0.00964062
	minimum = 0.005 (at node 9)
	maximum = 0.02 (at node 1)
Injected packet length average = 1
Accepted packet length average = 1
Total in-flight flits = 25 (0 measured)
latency change    = 1
throughput change = 1
Class 0:
Packet latency average = 33.2621
	minimum = 7
	maximum = 114
Network latency average = 33.2621
	minimum = 7
	maximum = 114
Slowest packet = 423429
Flit latency average = 33.2621
	minimum = 7
	maximum = 114
Slowest flit = 423429
Fragmentation average = 0
	minimum = 0
	maximum = 0
Injected packet rate average = 0.0105391
	minimum = 0.0055 (at node 35)
	maximum = 0.015 (at node 2)
Accepted packet rate average = 0.0103438
	minimum = 0.0055 (at node 28)
	maximum = 0.0145 (at node 16)
Injected flit rate average = 0.0105391
	minimum = 0.0055 (at node 35)
	maximum = 0.015 (at node 2)
Accepted flit rate average= 0.0103438
	minimum = 0.0055 (at node 28)
	maximum = 0.0145 (at node 16)
Injected packet length average = 1
Accepted packet length average = 1
Total in-flight flits = 25 (0 measured)
latency change    = 0.0285394
throughput change = 0.0679758
Class 0:
Packet latency average = 34.6379
	minimum = 7
	maximum = 84
Network latency average = 34.6379
	minimum = 7
	maximum = 84
Slowest packet = 424103
Flit latency average = 34.6379
	minimum = 7
	maximum = 84
Slowest flit = 424103
Fragmentation average = 0
	minimum = 0
	maximum = 0
Injected packet rate average = 0.0102344
	minimum = 0.004 (at node 9)
	maximum = 0.021 (at node 58)
Accepted packet rate average = 0.0101406
	minimum = 0.004 (at node 9)
	maximum = 0.019 (at node 23)
Injected flit rate average = 0.0102344
	minimum = 0.004 (at node 9)
	maximum = 0.021 (at node 58)
Accepted flit rate average= 0.0101406
	minimum = 0.004 (at node 9)
	maximum = 0.019 (at node 23)
Injected packet length average = 1
Accepted packet length average = 1
Total in-flight flits = 31 (0 measured)
latency change    = 0.0397201
throughput change = 0.0200308
Warmed up ...Time used is 3000 cycles
Class 0:
Packet latency average = 33.2724
	minimum = 7
	maximum = 84
Network latency average = 33.2724
	minimum = 7
	maximum = 84
Slowest packet = 424624
Flit latency average = 34.0275
	minimum = 7
	maximum = 84
Slowest flit = 424624
Fragmentation average = 0
	minimum = 0
	maximum = 0
Injected packet rate average = 0.0100781
	minimum = 0.004 (at node 41)
	maximum = 0.021 (at node 3)
Accepted packet rate average = 0.0102344
	minimum = 0.004 (at node 13)
	maximum = 0.019 (at node 24)
Injected flit rate average = 0.0100781
	minimum = 0.004 (at node 41)
	maximum = 0.021 (at node 3)
Accepted flit rate average= 0.0102344
	minimum = 0.004 (at node 13)
	maximum = 0.019 (at node 24)
Injected packet length average = 1
Accepted packet length average = 1
Total in-flight flits = 21 (21 measured)
latency change    = 0.041039
throughput change = 0.00916031
Class 0:
Packet latency average = 34.0207
	minimum = 7
	maximum = 84
Network latency average = 34.0207
	minimum = 7
	maximum = 84
Slowest packet = 424624
Flit latency average = 34.3872
	minimum = 7
	maximum = 84
Slowest flit = 424624
Fragmentation average = 0
	minimum = 0
	maximum = 0
Injected packet rate average = 0.00995313
	minimum = 0.0045 (at node 8)
	maximum = 0.015 (at node 3)
Accepted packet rate average = 0.0100469
	minimum = 0.0045 (at node 1)
	maximum = 0.015 (at node 6)
Injected flit rate average = 0.00995313
	minimum = 0.0045 (at node 8)
	maximum = 0.015 (at node 3)
Accepted flit rate average= 0.0100469
	minimum = 0.0045 (at node 1)
	maximum = 0.015 (at node 6)
Injected packet length average = 1
Accepted packet length average = 1
Total in-flight flits = 19 (19 measured)
latency change    = 0.0219949
throughput change = 0.0186625
Class 0:
Packet latency average = 33.6005
	minimum = 7
	maximum = 91
Network latency average = 33.6005
	minimum = 7
	maximum = 91
Slowest packet = 425831
Flit latency average = 33.8553
	minimum = 7
	maximum = 91
Slowest flit = 425831
Fragmentation average = 0
	minimum = 0
	maximum = 0
Injected packet rate average = 0.00988021
	minimum = 0.00566667 (at node 8)
	maximum = 0.0133333 (at node 47)
Accepted packet rate average = 0.00990104
	minimum = 0.00566667 (at node 1)
	maximum = 0.013 (at node 6)
Injected flit rate average = 0.00988021
	minimum = 0.00566667 (at node 8)
	maximum = 0.0133333 (at node 47)
Accepted flit rate average= 0.00990104
	minimum = 0.00566667 (at node 1)
	maximum = 0.013 (at node 6)
Injected packet length average = 1
Accepted packet length average = 1
Total in-flight flits = 27 (27 measured)
latency change    = 0.0125052
throughput change = 0.0147291
Draining all recorded packets ...
Draining remaining packets ...
Time taken is 6154 cycles
====== Overall Traffic Statistics ======
====== Traffic class 0 ======
Packet latency average = 33.6398 (100 samples)
	minimum = 7 (100 samples)
	maximum = 90.28 (100 samples)
Network latency average = 33.6398 (100 samples)
	minimum = 7 (100 samples)
	maximum = 90.28 (100 samples)
Flit latency average = 33.7381 (100 samples)
	minimum = 7 (100 samples)
	maximum = 90.38 (100 samples)
Fragmentation average = 0 (100 samples)
	minimum = 0 (100 samples)
	maximum = 0 (100 samples)
Injected packet rate average = 0.0100262 (100 samples)
	minimum = 0.00627083 (100 samples)
	maximum = 0.0142147 (100 samples)
Accepted packet rate average = 0.0100264 (100 samples)
	minimum = 0.00627867 (100 samples)
	maximum = 0.0142028 (100 samples)
Injected flit rate average = 0.0100262 (100 samples)
	minimum = 0.00627083 (100 samples)
	maximum = 0.0142147 (100 samples)
Accepted flit rate average = 0.0100264 (100 samples)
	minimum = 0.00627867 (100 samples)
	maximum = 0.0142028 (100 samples)
Injected packet size average = 1 (100 samples)
Accepted packet size average = 1 (100 samples)
Hops average = 6.25263 (100 samples)
Total run time 22.8728
