BEGIN Configuration File: /tmp/tmpgrferv1k.cfg
topology = mesh;
k = 4;
n = 2;
routing_function = planar_adapt;
num_vcs = 4;
vc_buf_size = 4;
wait_for_tail_credit = 1;
vc_allocator = islip;
sw_allocator = islip;
alloc_iters = 1;
credit_delay = 2;
routing_delay = 1;
vc_alloc_delay = 1;
sw_alloc_delay = 1;
input_speedup = 2;
output_speedup = 1;
internal_speedup = 1.0;
traffic = uniform;
packet_size = 1;
sim_type = latency;
injection_rate = 0.2;
warmup_periods = 3;
sample_period = 1000;
sim_count = 100;
seed = 2;

END Configuration File: /tmp/tmpgrferv1k.cfg
Class 0:
Packet latency average = 122.31
	minimum = 7
	maximum = 547
Network latency average = 43.0456
	minimum = 7
	maximum = 248
Slowest packet = 267
Flit latency average = 43.0456
	minimum = 7
	maximum = 248
Slowest flit = 1025
Fragmentation average = 0
	minimum = 0
	maximum = 0
Injected packet rate average = 0.155312
	minimum = 0.103 (at node 15)
	maximum = 0.198 (at node 6)
Accepted packet rate average = 0.148
	minimum = 0.133 (at node 4)
	maximum = 0.168 (at node 8)
Injected flit rate average = 0.155312
	minimum = 0.103 (at node 15)
	maximum = 0.198 (at node 6)
Accepted flit rate average= 0.148
	minimum = 0.133 (at node 4)
	maximum = 0.168 (at node 8)
Injected packet length average = 1
Accepted packet length average = 1
Total in-flight flits = 129 (0 measured)
latency change    = 1
throughput change = 1
Class 0:
Packet latency average = 203.701
	minimum = 7
	maximum = 1032
Network latency average = 44.8783
	minimum = 7
	maximum = 266
Slowest packet = 267
Flit latency average = 44.8783
	minimum = 7
	maximum = 266
Slowest flit = 2939
Fragmentation average = 0
	minimum = 0
	maximum = 0
Injected packet rate average = 0.151625
	minimum = 0.099 (at node 15)
	maximum = 0.2025 (at node 6)
Accepted packet rate average = 0.148125
	minimum = 0.133 (at node 14)
	maximum = 0.162 (at node 0)
Injected flit rate average = 0.151625
	minimum = 0.099 (at node 15)
	maximum = 0.2025 (at node 6)
Accepted flit rate average= 0.148125
	minimum = 0.133 (at node 14)
	maximum = 0.162 (at node 0)
Injected packet length average = 1
Accepted packet length average = 1
Total in-flight flits = 124 (0 measured)
latency change    = 0.399559
throughput change = 0.000843882
Class 0:
Packet latency average = 463.217
	minimum = 7
	maximum = 1627
Network latency average = 47.4255
	minimum = 7
	maximum = 215
Slowest packet = 4476
Flit latency average = 47.4255
	minimum = 7
	maximum = 215
Slowest flit = 6695
Fragmentation average = 0
	minimum = 0
	maximum = 0
Injected packet rate average = 0.147563
	minimum = 0.08 (at node 0)
	maximum = 0.201 (at node 9)
Accepted packet rate average = 0.14775
	minimum = 0.133 (at node 6)
	maximum = 0.167 (at node 10)
Injected flit rate average = 0.147563
	minimum = 0.08 (at node 0)
	maximum = 0.201 (at node 9)
Accepted flit rate average= 0.14775
	minimum = 0.133 (at node 6)
	maximum = 0.167 (at node 10)
Injected packet length average = 1
Accepted packet length average = 1
Total in-flight flits = 123 (0 measured)
latency change    = 0.560247
throughput change = 0.00253807
Warmed up ...Time used is 3000 cycles
Class 0:
Packet latency average = 628.354
	minimum = 7
	maximum = 2162
Network latency average = 45.4473
	minimum = 7
	maximum = 258
Slowest packet = 7227
Flit latency average = 46.6836
	minimum = 7
	maximum = 258
Slowest flit = 7934
Fragmentation average = 0
	minimum = 0
	maximum = 0
Injected packet rate average = 0.150062
	minimum = 0.085 (at node 15)
	maximum = 0.222 (at node 10)
Accepted packet rate average = 0.149938
	minimum = 0.133 (at node 13)
	maximum = 0.164 (at node 5)
Injected flit rate average = 0.150062
	minimum = 0.085 (at node 15)
	maximum = 0.222 (at node 10)
Accepted flit rate average= 0.149938
	minimum = 0.133 (at node 13)
	maximum = 0.164 (at node 5)
Injected packet length average = 1
Accepted packet length average = 1
Total in-flight flits = 127 (127 measured)
latency change    = 0.26281
throughput change = 0.0145894
Average latency for class 0 exceeded 500 cycles. Aborting simulation.
Too many sample periods needed to converge
Simulation unstable, ending ...
Total run time 0.128428
