BEGIN Configuration File: /tmp/tmp52wj817h.cfg
topology = mesh;
k = 4;
n = 2;
routing_function = romm;
num_vcs = 4;
vc_buf_size = 4;
wait_for_tail_credit = 1;
vc_allocator = islip;
sw_allocator = islip;
alloc_iters = 1;
credit_delay = 2;
routing_delay = 1;
vc_alloc_delay = 1;
sw_alloc_delay = 1;
input_speedup = 2;
output_speedup = 1;
internal_speedup = 1.0;
traffic = transpose;
packet_size = 1;
sim_type = latency;
injection_rate = 0.01;
warmup_periods = 3;
sample_period = 1000;
sim_count = 100;
seed = 4;

END Configuration File: /tmp/tmp52wj817h.cfg
Class 0:
Packet latency average = 19.811
	minimum = 7
	maximum = 44
Network latency average = 19.811
	minimum = 7
	maximum = 44
Slowest packet = 42
Flit latency average = 19.811
	minimum = 7
	maximum = 44
Slowest flit = 42
Fragmentation average = 0
	minimum = 0
	maximum = 0
Injected packet rate average = 0.0103125
	minimum = 0.005 (at node 0)
	maximum = 0.015 (at node 10)
Accepted packet rate average = 0.01025
	minimum = 0.005 (at node 0)
	maximum = 0.015 (at node 10)
Injected flit rate average = 0.0103125
	minimum = 0.005 (at node 0)
	maximum = 0.015 (at node 10)
Accepted flit rate average= 0.01025
	minimum = 0.005 (at node 0)
	maximum = 0.015 (at node 10)
Injected packet length average = 1
Accepted packet length average = 1
Total in-flight flits = 1 (0 measured)
latency change    = 1
throughput change = 1
Class 0:
Packet latency average = 19.9432
	minimum = 7
	maximum = 44
Network latency average = 19.9432
	minimum = 7
	maximum = 44
Slowest packet = 42
Flit latency average = 19.9432
	minimum = 7
	maximum = 44
Slowest flit = 42
Fragmentation average = 0
	minimum = 0
	maximum = 0
Injected packet rate average = 0.0099375
	minimum = 0.0055 (at node 11)
	maximum = 0.015 (at node 4)
Accepted packet rate average = 0.00990625
	minimum = 0.0055 (at node 14)
	maximum = 0.015 (at node 1)
Injected flit rate average = 0.0099375
	minimum = 0.0055 (at node 11)
	maximum = 0.015 (at node 4)
Accepted flit rate average= 0.00990625
	minimum = 0.0055 (at node 14)
	maximum = 0.015 (at node 1)
Injected packet length average = 1
Accepted packet length average = 1
Total in-flight flits = 1 (0 measured)
latency change    = 0.00663093
throughput change = 0.0347003
Class 0:
Packet latency average = 20.9851
	minimum = 7
	maximum = 40
Network latency average = 20.9851
	minimum = 7
	maximum = 40
Slowest packet = 355
Flit latency average = 20.9851
	minimum = 7
	maximum = 40
Slowest flit = 355
Fragmentation average = 0
	minimum = 0
	maximum = 0
Injected packet rate average = 0.0085625
	minimum = 0.004 (at node 6)
	maximum = 0.015 (at node 7)
Accepted packet rate average = 0.008375
	minimum = 0.003 (at node 9)
	maximum = 0.015 (at node 3)
Injected flit rate average = 0.0085625
	minimum = 0.004 (at node 6)
	maximum = 0.015 (at node 7)
Accepted flit rate average= 0.008375
	minimum = 0.003 (at node 9)
	maximum = 0.015 (at node 3)
Injected packet length average = 1
Accepted packet length average = 1
Total in-flight flits = 4 (0 measured)
latency change    = 0.0496475
throughput change = 0.182836
Warmed up ...Time used is 3000 cycles
Class 0:
Packet latency average = 19.2454
	minimum = 7
	maximum = 37
Network latency average = 19.2454
	minimum = 7
	maximum = 37
Slowest packet = 457
Flit latency average = 19.1317
	minimum = 7
	maximum = 37
Slowest flit = 457
Fragmentation average = 0
	minimum = 0
	maximum = 0
Injected packet rate average = 0.0104375
	minimum = 0.004 (at node 12)
	maximum = 0.018 (at node 6)
Accepted packet rate average = 0.0104375
	minimum = 0.004 (at node 3)
	maximum = 0.019 (at node 9)
Injected flit rate average = 0.0104375
	minimum = 0.004 (at node 12)
	maximum = 0.018 (at node 6)
Accepted flit rate average= 0.0104375
	minimum = 0.004 (at node 3)
	maximum = 0.019 (at node 9)
Injected packet length average = 1
Accepted packet length average = 1
Total in-flight flits = 4 (4 measured)
latency change    = 0.0903944
throughput change = 0.197605
Class 0:
Packet latency average = 19.2235
	minimum = 7
	maximum = 37
Network latency average = 19.2235
	minimum = 7
	maximum = 37
Slowest packet = 457
Flit latency average = 19.1686
	minimum = 7
	maximum = 37
Slowest flit = 457
Fragmentation average = 0
	minimum = 0
	maximum = 0
Injected packet rate average = 0.0108125
	minimum = 0.0055 (at node 4)
	maximum = 0.0155 (at node 6)
Accepted packet rate average = 0.01075
	minimum = 0.0055 (at node 1)
	maximum = 0.016 (at node 9)
Injected flit rate average = 0.0108125
	minimum = 0.0055 (at node 4)
	maximum = 0.0155 (at node 6)
Accepted flit rate average= 0.01075
	minimum = 0.0055 (at node 1)
	maximum = 0.016 (at node 9)
Injected packet length average = 1
Accepted packet length average = 1
Total in-flight flits = 6 (6 measured)
latency change    = 0.00113764
throughput change = 0.0290698
Class 0:
Packet latency average = 18.934
	minimum = 7
	maximum = 37
Network latency average = 18.934
	minimum = 7
	maximum = 37
Slowest packet = 457
Flit latency average = 18.8988
	minimum = 7
	maximum = 37
Slowest flit = 457
Fragmentation average = 0
	minimum = 0
	maximum = 0
Injected packet rate average = 0.0104792
	minimum = 0.00633333 (at node 4)
	maximum = 0.0143333 (at node 14)
Accepted packet rate average = 0.0105
	minimum = 0.00633333 (at node 1)
	maximum = 0.0146667 (at node 11)
Injected flit rate average = 0.0104792
	minimum = 0.00633333 (at node 4)
	maximum = 0.0143333 (at node 14)
Accepted flit rate average= 0.0105
	minimum = 0.00633333 (at node 1)
	maximum = 0.0146667 (at node 11)
Injected packet length average = 1
Accepted packet length average = 1
Total in-flight flits = 3 (3 measured)
latency change    = 0.0152915
throughput change = 0.0238095
Class 0:
Packet latency average = 19.3748
	minimum = 7
	maximum = 42
Network latency average = 19.3748
	minimum = 7
	maximum = 42
Slowest packet = 1088
Flit latency average = 19.3461
	minimum = 7
	maximum = 42
Slowest flit = 1088
Fragmentation average = 0
	minimum = 0
	maximum = 0
Injected packet rate average = 0.0106094
	minimum = 0.0075 (at node 4)
	maximum = 0.01375 (at node 10)
Accepted packet rate average = 0.0106094
	minimum = 0.0075 (at node 1)
	maximum = 0.014 (at node 10)
Injected flit rate average = 0.0106094
	minimum = 0.0075 (at node 4)
	maximum = 0.01375 (at node 10)
Accepted flit rate average= 0.0106094
	minimum = 0.0075 (at node 1)
	maximum = 0.014 (at node 10)
Injected packet length average = 1
Accepted packet length average = 1
Total in-flight flits = 4 (4 measured)
latency change    = 0.0227519
throughput change = 0.0103093
Draining all recorded packets ...
Draining remaining packets ...
Time taken is 7050 cycles
Class 0:
Packet latency average = 19.4253
	minimum = 7
	maximum = 37
Network latency average = 19.4253
	minimum = 7
	maximum = 37
Slowest packet = 1144
Flit latency average = 19.4253
	minimum = 7
	maximum = 37
Slowest flit = 1144
Fragmentation average = 0
	minimum = 0
	maximum = 0
Injected packet rate average = 0.010875
	minimum = 0.006 (at node 2)
	maximum = 0.016 (at node 10)
Accepted packet rate average = 0.010875
	minimum = 0.006 (at node 8)
	maximum = 0.016 (at node 10)
Injected flit rate average = 0.010875
	minimum = 0.006 (at node 2)
	maximum = 0.016 (at node 10)
Accepted flit rate average= 0.010875
	minimum = 0.006 (at node 8)
	maximum = 0.016 (at node 10)
Injected packet length average = 1
Accepted packet length average = 1
Total in-flight flits = 0 (0 measured)
latency change    = 1
throughput change = 1
Class 0:
Packet latency average = 19.2857
	minimum = 7
	maximum = 37
Network latency average = 19.2857
	minimum = 7
	maximum = 37
Slowest packet = 1144
Flit latency average = 19.2857
	minimum = 7
	maximum = 37
Slowest flit = 1144
Fragmentation average = 0
	minimum = 0
	maximum = 0
Injected packet rate average = 0.0104688
	minimum = 0.0065 (at node 15)
	maximum = 0.0135 (at node 10)
Accepted packet rate average = 0.0102813
	minimum = 0.006 (at node 15)
	maximum = 0.0135 (at node 10)
Injected flit rate average = 0.0104688
	minimum = 0.0065 (at node 15)
	maximum = 0.0135 (at node 10)
Accepted flit rate average= 0.0102813
	minimum = 0.006 (at node 15)
	maximum = 0.0135 (at node 10)
Injected packet length average = 1
Accepted packet length average = 1
Total in-flight flits = 6 (0 measured)
latency change    = 0.00723712
throughput change = 0.0577508
Class 0:
Packet latency average = 18.7662
	minimum = 7
	maximum = 37
Network latency average = 18.7662
	minimum = 7
	maximum = 37
Slowest packet = 1475
Flit latency average = 18.7662
	minimum = 7
	maximum = 37
Slowest flit = 1475
Fragmentation average = 0
	minimum = 0
	maximum = 0
Injected packet rate average = 0.0093125
	minimum = 0.005 (at node 0)
	maximum = 0.015 (at node 15)
Accepted packet rate average = 0.009625
	minimum = 0.005 (at node 0)
	maximum = 0.016 (at node 15)
Injected flit rate average = 0.0093125
	minimum = 0.005 (at node 0)
	maximum = 0.015 (at node 15)
Accepted flit rate average= 0.009625
	minimum = 0.005 (at node 0)
	maximum = 0.016 (at node 15)
Injected packet length average = 1
Accepted packet length average = 1
Total in-flight flits = 1 (0 measured)
latency change    = 0.0276817
throughput change = 0.0681818
Warmed up ...Time used is 3000 cycles
Class 0:
Packet latency average = 18.5197
	minimum = 7
	maximum = 37
Network latency average = 18.5197
	minimum = 7
	maximum = 37
Slowest packet = 1638
Flit latency average = 18.5752
	minimum = 7
	maximum = 37
Slowest flit = 1638
Fragmentation average = 0
	minimum = 0
	maximum = 0
Injected packet rate average = 0.0096875
	minimum = 0.005 (at node 12)
	maximum = 0.015 (at node 10)
Accepted packet rate average = 0.0095625
	minimum = 0.005 (at node 3)
	maximum = 0.015 (at node 10)
Injected flit rate average = 0.0096875
	minimum = 0.005 (at node 12)
	maximum = 0.015 (at node 10)
Accepted flit rate average= 0.0095625
	minimum = 0.005 (at node 3)
	maximum = 0.015 (at node 10)
Injected packet length average = 1
Accepted packet length average = 1
Total in-flight flits = 3 (3 measured)
latency change    = 0.01331
throughput change = 0.00653595
Class 0:
Packet latency average = 18.7655
	minimum = 7
	maximum = 38
Network latency average = 18.7655
	minimum = 7
	maximum = 38
Slowest packet = 1855
Flit latency average = 18.7938
	minimum = 7
	maximum = 38
Slowest flit = 1855
Fragmentation average = 0
	minimum = 0
	maximum = 0
Injected packet rate average = 0.0091875
	minimum = 0.0065 (at node 12)
	maximum = 0.013 (at node 5)
Accepted packet rate average = 0.00909375
	minimum = 0.0065 (at node 3)
	maximum = 0.013 (at node 5)
Injected flit rate average = 0.0091875
	minimum = 0.0065 (at node 12)
	maximum = 0.013 (at node 5)
Accepted flit rate average= 0.00909375
	minimum = 0.0065 (at node 3)
	maximum = 0.013 (at node 5)
Injected packet length average = 1
Accepted packet length average = 1
Total in-flight flits = 4 (4 measured)
latency change    = 0.0130974
throughput change = 0.0515464
Class 0:
Packet latency average = 18.6231
	minimum = 7
	maximum = 38
Network latency average = 18.6231
	minimum = 7
	maximum = 38
Slowest packet = 1855
Flit latency average = 18.6416
	minimum = 7
	maximum = 38
Slowest flit = 1855
Fragmentation average = 0
	minimum = 0
	maximum = 0
Injected packet rate average = 0.00941667
	minimum = 0.00633333 (at node 7)
	maximum = 0.0136667 (at node 5)
Accepted packet rate average = 0.00941667
	minimum = 0.00633333 (at node 13)
	maximum = 0.0136667 (at node 5)
Injected flit rate average = 0.00941667
	minimum = 0.00633333 (at node 7)
	maximum = 0.0136667 (at node 5)
Accepted flit rate average= 0.00941667
	minimum = 0.00633333 (at node 13)
	maximum = 0.0136667 (at node 5)
Injected packet length average = 1
Accepted packet length average = 1
Total in-flight flits = 1 (1 measured)
latency change    = 0.00764951
throughput change = 0.034292
Class 0:
Packet latency average = 18.5735
	minimum = 7
	maximum = 38
Network latency average = 18.5735
	minimum = 7
	maximum = 38
Slowest packet = 1855
Flit latency average = 18.5873
	minimum = 7
	maximum = 38
Slowest flit = 1855
Fragmentation average = 0
	minimum = 0
	maximum = 0
Injected packet rate average = 0.00965625
	minimum = 0.007 (at node 12)
	maximum = 0.01275 (at node 5)
Accepted packet rate average = 0.00957812
	minimum = 0.007 (at node 3)
	maximum = 0.0125 (at node 5)
Injected flit rate average = 0.00965625
	minimum = 0.007 (at node 12)
	maximum = 0.01275 (at node 5)
Accepted flit rate average= 0.00957812
	minimum = 0.007 (at node 3)
	maximum = 0.0125 (at node 5)
Injected packet length average = 1
Accepted packet length average = 1
Total in-flight flits = 6 (6 measured)
latency change    = 0.00266672
throughput change = 0.016857
Class 0:
Packet latency average = 18.8293
	minimum = 7
	maximum = 45
Network latency average = 18.8293
	minimum = 7
	maximum = 45
Slowest packet = 2272
Flit latency average = 18.8403
	minimum = 7
	maximum = 45
Slowest flit = 2272
Fragmentation average = 0
	minimum = 0
	maximum = 0
Injected packet rate average = 0.0093125
	minimum = 0.0064 (at node 12)
	maximum = 0.0116 (at node 8)
Accepted packet rate average = 0.0093125
	minimum = 0.0064 (at node 3)
	maximum = 0.0116 (at node 2)
Injected flit rate average = 0.0093125
	minimum = 0.0064 (at node 12)
	maximum = 0.0116 (at node 8)
Accepted flit rate average= 0.0093125
	minimum = 0.0064 (at node 3)
	maximum = 0.0116 (at node 2)
Injected packet length average = 1
Accepted packet length average = 1
Total in-flight flits = 1 (1 measured)
latency change    = 0.0135837
throughput change = 0.0285235
Draining all recorded packets ...
Draining remaining packets ...
Time taken is 8069 cycles
Class 0:
Packet latency average = 19.5576
	minimum = 7
	maximum = 37
Network latency average = 19.5576
	minimum = 7
	maximum = 37
Slowest packet = 2381
Flit latency average = 19.5576
	minimum = 7
	maximum = 37
Slowest flit = 2381
Fragmentation average = 0
	minimum = 0
	maximum = 0
Injected packet rate average = 0.0108125
	minimum = 0.007 (at node 4)
	maximum = 0.015 (at node 7)
Accepted packet rate average = 0.0103125
	minimum = 0.007 (at node 1)
	maximum = 0.014 (at node 13)
Injected flit rate average = 0.0108125
	minimum = 0.007 (at node 4)
	maximum = 0.015 (at node 7)
Accepted flit rate average= 0.0103125
	minimum = 0.007 (at node 1)
	maximum = 0.014 (at node 13)
Injected packet length average = 1
Accepted packet length average = 1
Total in-flight flits = 8 (0 measured)
latency change    = 1
throughput change = 1
Class 0:
Packet latency average = 19.6627
	minimum = 7
	maximum = 37
Network latency average = 19.6627
	minimum = 7
	maximum = 37
Slowest packet = 2381
Flit latency average = 19.6627
	minimum = 7
	maximum = 37
Slowest flit = 2381
Fragmentation average = 0
	minimum = 0
	maximum = 0
Injected packet rate average = 0.0106563
	minimum = 0.008 (at node 6)
	maximum = 0.015 (at node 12)
Accepted packet rate average = 0.0105625
	minimum = 0.0075 (at node 9)
	maximum = 0.015 (at node 3)
Injected flit rate average = 0.0106563
	minimum = 0.008 (at node 6)
	maximum = 0.015 (at node 12)
Accepted flit rate average= 0.0105625
	minimum = 0.0075 (at node 9)
	maximum = 0.015 (at node 3)
Injected packet length average = 1
Accepted packet length average = 1
Total in-flight flits = 3 (0 measured)
latency change    = 0.00534749
throughput change = 0.0236686
Class 0:
Packet latency average = 18.7805
	minimum = 7
	maximum = 38
Network latency average = 18.7805
	minimum = 7
	maximum = 38
Slowest packet = 2745
Flit latency average = 18.7805
	minimum = 7
	maximum = 38
Slowest flit = 2745
Fragmentation average = 0
	minimum = 0
	maximum = 0
Injected packet rate average = 0.0103125
	minimum = 0.004 (at node 2)
	maximum = 0.018 (at node 15)
Accepted packet rate average = 0.01025
	minimum = 0.004 (at node 8)
	maximum = 0.018 (at node 15)
Injected flit rate average = 0.0103125
	minimum = 0.004 (at node 2)
	maximum = 0.018 (at node 15)
Accepted flit rate average= 0.01025
	minimum = 0.004 (at node 8)
	maximum = 0.018 (at node 15)
Injected packet length average = 1
Accepted packet length average = 1
Total in-flight flits = 4 (0 measured)
latency change    = 0.0469761
throughput change = 0.0304878
Warmed up ...Time used is 3000 cycles
Class 0:
Packet latency average = 19.3059
	minimum = 7
	maximum = 38
Network latency average = 19.3059
	minimum = 7
	maximum = 38
Slowest packet = 2905
Flit latency average = 19.4253
	minimum = 7
	maximum = 38
Slowest flit = 2905
Fragmentation average = 0
	minimum = 0
	maximum = 0
Injected packet rate average = 0.01075
	minimum = 0.004 (at node 14)
	maximum = 0.018 (at node 7)
Accepted packet rate average = 0.010875
	minimum = 0.004 (at node 11)
	maximum = 0.018 (at node 0)
Injected flit rate average = 0.01075
	minimum = 0.004 (at node 14)
	maximum = 0.018 (at node 7)
Accepted flit rate average= 0.010875
	minimum = 0.004 (at node 11)
	maximum = 0.018 (at node 0)
Injected packet length average = 1
Accepted packet length average = 1
Total in-flight flits = 2 (2 measured)
latency change    = 0.0272142
throughput change = 0.0574713
Class 0:
Packet latency average = 19.6795
	minimum = 7
	maximum = 38
Network latency average = 19.6795
	minimum = 7
	maximum = 38
Slowest packet = 2905
Flit latency average = 19.7361
	minimum = 7
	maximum = 38
Slowest flit = 2905
Fragmentation average = 0
	minimum = 0
	maximum = 0
Injected packet rate average = 0.0105625
	minimum = 0.007 (at node 5)
	maximum = 0.0145 (at node 4)
Accepted packet rate average = 0.0106563
	minimum = 0.007 (at node 5)
	maximum = 0.015 (at node 1)
Injected flit rate average = 0.0105625
	minimum = 0.007 (at node 5)
	maximum = 0.0145 (at node 4)
Accepted flit rate average= 0.0106563
	minimum = 0.007 (at node 5)
	maximum = 0.015 (at node 1)
Injected packet length average = 1
Accepted packet length average = 1
Total in-flight flits = 1 (1 measured)
latency change    = 0.0189864
throughput change = 0.0205279
Class 0:
Packet latency average = 19.504
	minimum = 7
	maximum = 38
Network latency average = 19.504
	minimum = 7
	maximum = 38
Slowest packet = 2905
Flit latency average = 19.5431
	minimum = 7
	maximum = 38
Slowest flit = 2905
Fragmentation average = 0
	minimum = 0
	maximum = 0
Injected packet rate average = 0.0105625
	minimum = 0.007 (at node 5)
	maximum = 0.0146667 (at node 4)
Accepted packet rate average = 0.010625
	minimum = 0.007 (at node 5)
	maximum = 0.015 (at node 1)
Injected flit rate average = 0.0105625
	minimum = 0.007 (at node 5)
	maximum = 0.0146667 (at node 4)
Accepted flit rate average= 0.010625
	minimum = 0.007 (at node 5)
	maximum = 0.015 (at node 1)
Injected packet length average = 1
Accepted packet length average = 1
Total in-flight flits = 1 (1 measured)
latency change    = 0.0090019
throughput change = 0.00294118
Class 0:
Packet latency average = 19.3067
	minimum = 7
	maximum = 38
Network latency average = 19.3067
	minimum = 7
	maximum = 38
Slowest packet = 2905
Flit latency average = 19.3373
	minimum = 7
	maximum = 38
Slowest flit = 2905
Fragmentation average = 0
	minimum = 0
	maximum = 0
Injected packet rate average = 0.0105938
	minimum = 0.0075 (at node 5)
	maximum = 0.01525 (at node 4)
Accepted packet rate average = 0.0106094
	minimum = 0.0075 (at node 5)
	maximum = 0.0155 (at node 1)
Injected flit rate average = 0.0105938
	minimum = 0.0075 (at node 5)
	maximum = 0.01525 (at node 4)
Accepted flit rate average= 0.0106094
	minimum = 0.0075 (at node 5)
	maximum = 0.0155 (at node 1)
Injected packet length average = 1
Accepted packet length average = 1
Total in-flight flits = 3 (3 measured)
latency change    = 0.0102185
throughput change = 0.00147275
Draining all recorded packets ...
Draining remaining packets ...
Time taken is 7024 cycles
Class 0:
Packet latency average = 19.1429
	minimum = 7
	maximum = 37
Network latency average = 19.1429
	minimum = 7
	maximum = 37
Slowest packet = 3565
Flit latency average = 19.1429
	minimum = 7
	maximum = 37
Slowest flit = 3565
Fragmentation average = 0
	minimum = 0
	maximum = 0
Injected packet rate average = 0.0089375
	minimum = 0.004 (at node 6)
	maximum = 0.016 (at node 15)
Accepted packet rate average = 0.00875
	minimum = 0.004 (at node 9)
	maximum = 0.016 (at node 15)
Injected flit rate average = 0.0089375
	minimum = 0.004 (at node 6)
	maximum = 0.016 (at node 15)
Accepted flit rate average= 0.00875
	minimum = 0.004 (at node 9)
	maximum = 0.016 (at node 15)
Injected packet length average = 1
Accepted packet length average = 1
Total in-flight flits = 3 (0 measured)
latency change    = 1
throughput change = 1
Class 0:
Packet latency average = 19.4106
	minimum = 7
	maximum = 37
Network latency average = 19.4106
	minimum = 7
	maximum = 37
Slowest packet = 3565
Flit latency average = 19.4106
	minimum = 7
	maximum = 37
Slowest flit = 3565
Fragmentation average = 0
	minimum = 0
	maximum = 0
Injected packet rate average = 0.0095
	minimum = 0.0045 (at node 7)
	maximum = 0.0135 (at node 15)
Accepted packet rate average = 0.0094375
	minimum = 0.0045 (at node 13)
	maximum = 0.0135 (at node 15)
Injected flit rate average = 0.0095
	minimum = 0.0045 (at node 7)
	maximum = 0.0135 (at node 15)
Accepted flit rate average= 0.0094375
	minimum = 0.0045 (at node 13)
	maximum = 0.0135 (at node 15)
Injected packet length average = 1
Accepted packet length average = 1
Total in-flight flits = 2 (0 measured)
latency change    = 0.0137934
throughput change = 0.0728477
Class 0:
Packet latency average = 20.4479
	minimum = 7
	maximum = 38
Network latency average = 20.4479
	minimum = 7
	maximum = 38
Slowest packet = 3983
Flit latency average = 20.4479
	minimum = 7
	maximum = 38
Slowest flit = 3983
Fragmentation average = 0
	minimum = 0
	maximum = 0
Injected packet rate average = 0.0103125
	minimum = 0.005 (at node 9)
	maximum = 0.016 (at node 8)
Accepted packet rate average = 0.0101875
	minimum = 0.004 (at node 6)
	maximum = 0.016 (at node 2)
Injected flit rate average = 0.0103125
	minimum = 0.005 (at node 9)
	maximum = 0.016 (at node 8)
Accepted flit rate average= 0.0101875
	minimum = 0.004 (at node 6)
	maximum = 0.016 (at node 2)
Injected packet length average = 1
Accepted packet length average = 1
Total in-flight flits = 4 (0 measured)
latency change    = 0.0507269
throughput change = 0.0736196
Warmed up ...Time used is 3000 cycles
Class 0:
Packet latency average = 18.5436
	minimum = 7
	maximum = 37
Network latency average = 18.5436
	minimum = 7
	maximum = 37
Slowest packet = 4031
Flit latency average = 18.634
	minimum = 7
	maximum = 37
Slowest flit = 4028
Fragmentation average = 0
	minimum = 0
	maximum = 0
Injected packet rate average = 0.0095
	minimum = 0.006 (at node 3)
	maximum = 0.014 (at node 13)
Accepted packet rate average = 0.0095625
	minimum = 0.006 (at node 9)
	maximum = 0.015 (at node 7)
Injected flit rate average = 0.0095
	minimum = 0.006 (at node 3)
	maximum = 0.014 (at node 13)
Accepted flit rate average= 0.0095625
	minimum = 0.006 (at node 9)
	maximum = 0.015 (at node 7)
Injected packet length average = 1
Accepted packet length average = 1
Total in-flight flits = 3 (3 measured)
latency change    = 0.102689
throughput change = 0.0653595
Class 0:
Packet latency average = 19.0324
	minimum = 7
	maximum = 37
Network latency average = 19.0324
	minimum = 7
	maximum = 37
Slowest packet = 4031
Flit latency average = 19.0703
	minimum = 7
	maximum = 37
Slowest flit = 4028
Fragmentation average = 0
	minimum = 0
	maximum = 0
Injected packet rate average = 0.00971875
	minimum = 0.0075 (at node 3)
	maximum = 0.013 (at node 14)
Accepted packet rate average = 0.00978125
	minimum = 0.008 (at node 3)
	maximum = 0.0125 (at node 11)
Injected flit rate average = 0.00971875
	minimum = 0.0075 (at node 3)
	maximum = 0.013 (at node 14)
Accepted flit rate average= 0.00978125
	minimum = 0.008 (at node 3)
	maximum = 0.0125 (at node 11)
Injected packet length average = 1
Accepted packet length average = 1
Total in-flight flits = 2 (2 measured)
latency change    = 0.0256793
throughput change = 0.0223642
Class 0:
Packet latency average = 19.2454
	minimum = 7
	maximum = 38
Network latency average = 19.2454
	minimum = 7
	maximum = 38
Slowest packet = 4429
Flit latency average = 19.2679
	minimum = 7
	maximum = 38
Slowest flit = 4429
Fragmentation average = 0
	minimum = 0
	maximum = 0
Injected packet rate average = 0.010125
	minimum = 0.008 (at node 12)
	maximum = 0.012 (at node 7)
Accepted packet rate average = 0.0101875
	minimum = 0.008 (at node 3)
	maximum = 0.012 (at node 13)
Injected flit rate average = 0.010125
	minimum = 0.008 (at node 12)
	maximum = 0.012 (at node 7)
Accepted flit rate average= 0.0101875
	minimum = 0.008 (at node 3)
	maximum = 0.012 (at node 13)
Injected packet length average = 1
Accepted packet length average = 1
Total in-flight flits = 1 (1 measured)
latency change    = 0.0110675
throughput change = 0.0398773
Class 0:
Packet latency average = 19.25
	minimum = 7
	maximum = 38
Network latency average = 19.25
	minimum = 7
	maximum = 38
Slowest packet = 4429
Flit latency average = 19.267
	minimum = 7
	maximum = 38
Slowest flit = 4429
Fragmentation average = 0
	minimum = 0
	maximum = 0
Injected packet rate average = 0.0100938
	minimum = 0.008 (at node 3)
	maximum = 0.012 (at node 7)
Accepted packet rate average = 0.010125
	minimum = 0.00825 (at node 12)
	maximum = 0.012 (at node 13)
Injected flit rate average = 0.0100938
	minimum = 0.008 (at node 3)
	maximum = 0.012 (at node 7)
Accepted flit rate average= 0.010125
	minimum = 0.00825 (at node 12)
	maximum = 0.012 (at node 13)
Injected packet length average = 1
Accepted packet length average = 1
Total in-flight flits = 2 (2 measured)
latency change    = 0.000240996
throughput change = 0.00617284
Draining all recorded packets ...
Draining remaining packets ...
Time taken is 7037 cycles
Class 0:
Packet latency average = 19.7152
	minimum = 7
	maximum = 38
Network latency average = 19.7152
	minimum = 7
	maximum = 38
Slowest packet = 4784
Flit latency average = 19.7152
	minimum = 7
	maximum = 38
Slowest flit = 4784
Fragmentation average = 0
	minimum = 0
	maximum = 0
Injected packet rate average = 0.0103125
	minimum = 0.007 (at node 0)
	maximum = 0.016 (at node 6)
Accepted packet rate average = 0.0103125
	minimum = 0.007 (at node 0)
	maximum = 0.016 (at node 9)
Injected flit rate average = 0.0103125
	minimum = 0.007 (at node 0)
	maximum = 0.016 (at node 6)
Accepted flit rate average= 0.0103125
	minimum = 0.007 (at node 0)
	maximum = 0.016 (at node 9)
Injected packet length average = 1
Accepted packet length average = 1
Total in-flight flits = 0 (0 measured)
latency change    = 1
throughput change = 1
Class 0:
Packet latency average = 19
	minimum = 7
	maximum = 38
Network latency average = 19
	minimum = 7
	maximum = 38
Slowest packet = 4784
Flit latency average = 19
	minimum = 7
	maximum = 38
Slowest flit = 4784
Fragmentation average = 0
	minimum = 0
	maximum = 0
Injected packet rate average = 0.0105625
	minimum = 0.0065 (at node 13)
	maximum = 0.017 (at node 6)
Accepted packet rate average = 0.0104375
	minimum = 0.0065 (at node 7)
	maximum = 0.017 (at node 9)
Injected flit rate average = 0.0105625
	minimum = 0.0065 (at node 13)
	maximum = 0.017 (at node 6)
Accepted flit rate average= 0.0104375
	minimum = 0.0065 (at node 7)
	maximum = 0.017 (at node 9)
Injected packet length average = 1
Accepted packet length average = 1
Total in-flight flits = 4 (0 measured)
latency change    = 0.0376396
throughput change = 0.011976
Class 0:
Packet latency average = 19.8552
	minimum = 7
	maximum = 38
Network latency average = 19.8552
	minimum = 7
	maximum = 38
Slowest packet = 5143
Flit latency average = 19.8552
	minimum = 7
	maximum = 38
Slowest flit = 5143
Fragmentation average = 0
	minimum = 0
	maximum = 0
Injected packet rate average = 0.0090625
	minimum = 0.002 (at node 4)
	maximum = 0.016 (at node 2)
Accepted packet rate average = 0.0090625
	minimum = 0.001 (at node 1)
	maximum = 0.014 (at node 8)
Injected flit rate average = 0.0090625
	minimum = 0.002 (at node 4)
	maximum = 0.016 (at node 2)
Accepted flit rate average= 0.0090625
	minimum = 0.001 (at node 1)
	maximum = 0.014 (at node 8)
Injected packet length average = 1
Accepted packet length average = 1
Total in-flight flits = 4 (0 measured)
latency change    = 0.0430705
throughput change = 0.151724
Warmed up ...Time used is 3000 cycles
Class 0:
Packet latency average = 18.486
	minimum = 7
	maximum = 37
Network latency average = 18.486
	minimum = 7
	maximum = 37
Slowest packet = 5165
Flit latency average = 18.6175
	minimum = 7
	maximum = 37
Slowest flit = 5165
Fragmentation average = 0
	minimum = 0
	maximum = 0
Injected packet rate average = 0.011375
	minimum = 0.005 (at node 3)
	maximum = 0.016 (at node 6)
Accepted packet rate average = 0.0114375
	minimum = 0.005 (at node 12)
	maximum = 0.016 (at node 9)
Injected flit rate average = 0.011375
	minimum = 0.005 (at node 3)
	maximum = 0.016 (at node 6)
Accepted flit rate average= 0.0114375
	minimum = 0.005 (at node 12)
	maximum = 0.016 (at node 9)
Injected packet length average = 1
Accepted packet length average = 1
Total in-flight flits = 3 (3 measured)
latency change    = 0.0740634
throughput change = 0.20765
Class 0:
Packet latency average = 19.1715
	minimum = 7
	maximum = 37
Network latency average = 19.1715
	minimum = 7
	maximum = 37
Slowest packet = 5165
Flit latency average = 19.2328
	minimum = 7
	maximum = 37
Slowest flit = 5165
Fragmentation average = 0
	minimum = 0
	maximum = 0
Injected packet rate average = 0.0108437
	minimum = 0.0065 (at node 8)
	maximum = 0.015 (at node 14)
Accepted packet rate average = 0.010875
	minimum = 0.0065 (at node 2)
	maximum = 0.015 (at node 11)
Injected flit rate average = 0.0108437
	minimum = 0.0065 (at node 8)
	maximum = 0.015 (at node 14)
Accepted flit rate average= 0.010875
	minimum = 0.0065 (at node 2)
	maximum = 0.015 (at node 11)
Injected packet length average = 1
Accepted packet length average = 1
Total in-flight flits = 3 (3 measured)
latency change    = 0.035755
throughput change = 0.0517241
Class 0:
Packet latency average = 19.1712
	minimum = 7
	maximum = 38
Network latency average = 19.1712
	minimum = 7
	maximum = 38
Slowest packet = 5666
Flit latency average = 19.2118
	minimum = 7
	maximum = 38
Slowest flit = 5666
Fragmentation average = 0
	minimum = 0
	maximum = 0
Injected packet rate average = 0.010875
	minimum = 0.008 (at node 5)
	maximum = 0.0146667 (at node 11)
Accepted packet rate average = 0.0109167
	minimum = 0.008 (at node 5)
	maximum = 0.0146667 (at node 14)
Injected flit rate average = 0.010875
	minimum = 0.008 (at node 5)
	maximum = 0.0146667 (at node 11)
Accepted flit rate average= 0.0109167
	minimum = 0.008 (at node 5)
	maximum = 0.0146667 (at node 14)
Injected packet length average = 1
Accepted packet length average = 1
Total in-flight flits = 2 (2 measured)
latency change    = 1.86625e-05
throughput change = 0.00381679
Class 0:
Packet latency average = 19.4078
	minimum = 7
	maximum = 38
Network latency average = 19.4078
	minimum = 7
	maximum = 38
Slowest packet = 5666
Flit latency average = 19.4372
	minimum = 7
	maximum = 38
Slowest flit = 5666
Fragmentation average = 0
	minimum = 0
	maximum = 0
Injected packet rate average = 0.0108594
	minimum = 0.00875 (at node 2)
	maximum = 0.0145 (at node 13)
Accepted packet rate average = 0.0108281
	minimum = 0.009 (at node 12)
	maximum = 0.0145 (at node 7)
Injected flit rate average = 0.0108594
	minimum = 0.00875 (at node 2)
	maximum = 0.0145 (at node 13)
Accepted flit rate average= 0.0108281
	minimum = 0.009 (at node 12)
	maximum = 0.0145 (at node 7)
Injected packet length average = 1
Accepted packet length average = 1
Total in-flight flits = 6 (6 measured)
latency change    = 0.0121953
throughput change = 0.00817701
Class 0:
Packet latency average = 19.4134
	minimum = 7
	maximum = 38
Network latency average = 19.4134
	minimum = 7
	maximum = 38
Slowest packet = 5666
Flit latency average = 19.4368
	minimum = 7
	maximum = 38
Slowest flit = 5666
Fragmentation average = 0
	minimum = 0
	maximum = 0
Injected packet rate average = 0.0108875
	minimum = 0.0086 (at node 3)
	maximum = 0.014 (at node 13)
Accepted packet rate average = 0.010875
	minimum = 0.0084 (at node 12)
	maximum = 0.0142 (at node 7)
Injected flit rate average = 0.0108875
	minimum = 0.0086 (at node 3)
	maximum = 0.014 (at node 13)
Accepted flit rate average= 0.010875
	minimum = 0.0084 (at node 12)
	maximum = 0.0142 (at node 7)
Injected packet length average = 1
Accepted packet length average = 1
Total in-flight flits = 5 (5 measured)
latency change    = 0.00028627
throughput change = 0.00431034
Draining all recorded packets ...
Draining remaining packets ...
Time taken is 8033 cycles
Class 0:
Packet latency average = 18.6624
	minimum = 7
	maximum = 38
Network latency average = 18.6624
	minimum = 7
	maximum = 38
Slowest packet = 6182
Flit latency average = 18.6624
	minimum = 7
	maximum = 38
Slowest flit = 6182
Fragmentation average = 0
	minimum = 0
	maximum = 0
Injected packet rate average = 0.0099375
	minimum = 0.005 (at node 7)
	maximum = 0.015 (at node 11)
Accepted packet rate average = 0.0098125
	minimum = 0.005 (at node 13)
	maximum = 0.015 (at node 14)
Injected flit rate average = 0.0099375
	minimum = 0.005 (at node 7)
	maximum = 0.015 (at node 11)
Accepted flit rate average= 0.0098125
	minimum = 0.005 (at node 13)
	maximum = 0.015 (at node 14)
Injected packet length average = 1
Accepted packet length average = 1
Total in-flight flits = 2 (0 measured)
latency change    = 1
throughput change = 1
Class 0:
Packet latency average = 19.1144
	minimum = 7
	maximum = 38
Network latency average = 19.1144
	minimum = 7
	maximum = 38
Slowest packet = 6182
Flit latency average = 19.1144
	minimum = 7
	maximum = 38
Slowest flit = 6182
Fragmentation average = 0
	minimum = 0
	maximum = 0
Injected packet rate average = 0.00965625
	minimum = 0.008 (at node 2)
	maximum = 0.014 (at node 11)
Accepted packet rate average = 0.0095625
	minimum = 0.008 (at node 1)
	maximum = 0.0135 (at node 14)
Injected flit rate average = 0.00965625
	minimum = 0.008 (at node 2)
	maximum = 0.014 (at node 11)
Accepted flit rate average= 0.0095625
	minimum = 0.008 (at node 1)
	maximum = 0.0135 (at node 14)
Injected packet length average = 1
Accepted packet length average = 1
Total in-flight flits = 3 (0 measured)
latency change    = 0.023645
throughput change = 0.0261438
Class 0:
Packet latency average = 20.9245
	minimum = 7
	maximum = 37
Network latency average = 20.9245
	minimum = 7
	maximum = 37
Slowest packet = 6345
Flit latency average = 20.9245
	minimum = 7
	maximum = 37
Slowest flit = 6345
Fragmentation average = 0
	minimum = 0
	maximum = 0
Injected packet rate average = 0.01
	minimum = 0.005 (at node 13)
	maximum = 0.016 (at node 7)
Accepted packet rate average = 0.0099375
	minimum = 0.005 (at node 6)
	maximum = 0.016 (at node 13)
Injected flit rate average = 0.01
	minimum = 0.005 (at node 13)
	maximum = 0.016 (at node 7)
Accepted flit rate average= 0.0099375
	minimum = 0.005 (at node 6)
	maximum = 0.016 (at node 13)
Injected packet length average = 1
Accepted packet length average = 1
Total in-flight flits = 4 (0 measured)
latency change    = 0.0865085
throughput change = 0.0377358
Warmed up ...Time used is 3000 cycles
Class 0:
Packet latency average = 17.6646
	minimum = 7
	maximum = 37
Network latency average = 17.6646
	minimum = 7
	maximum = 37
Slowest packet = 6513
Flit latency average = 18.0121
	minimum = 7
	maximum = 37
Slowest flit = 6498
Fragmentation average = 0
	minimum = 0
	maximum = 0
Injected packet rate average = 0.0105
	minimum = 0.003 (at node 1)
	maximum = 0.019 (at node 0)
Accepted packet rate average = 0.0103125
	minimum = 0.003 (at node 4)
	maximum = 0.019 (at node 0)
Injected flit rate average = 0.0105
	minimum = 0.003 (at node 1)
	maximum = 0.019 (at node 0)
Accepted flit rate average= 0.0103125
	minimum = 0.003 (at node 4)
	maximum = 0.019 (at node 0)
Injected packet length average = 1
Accepted packet length average = 1
Total in-flight flits = 7 (7 measured)
latency change    = 0.184546
throughput change = 0.0363636
Class 0:
Packet latency average = 18.0412
	minimum = 7
	maximum = 37
Network latency average = 18.0412
	minimum = 7
	maximum = 37
Slowest packet = 6513
Flit latency average = 18.1929
	minimum = 7
	maximum = 37
Slowest flit = 6498
Fragmentation average = 0
	minimum = 0
	maximum = 0
Injected packet rate average = 0.0115625
	minimum = 0.0065 (at node 12)
	maximum = 0.018 (at node 0)
Accepted packet rate average = 0.0115
	minimum = 0.007 (at node 3)
	maximum = 0.018 (at node 0)
Injected flit rate average = 0.0115625
	minimum = 0.0065 (at node 12)
	maximum = 0.018 (at node 0)
Accepted flit rate average= 0.0115
	minimum = 0.007 (at node 3)
	maximum = 0.018 (at node 0)
Injected packet length average = 1
Accepted packet length average = 1
Total in-flight flits = 6 (6 measured)
latency change    = 0.0208751
throughput change = 0.103261
Class 0:
Packet latency average = 18.4122
	minimum = 7
	maximum = 37
Network latency average = 18.4122
	minimum = 7
	maximum = 37
Slowest packet = 6513
Flit latency average = 18.5152
	minimum = 7
	maximum = 37
Slowest flit = 6498
Fragmentation average = 0
	minimum = 0
	maximum = 0
Injected packet rate average = 0.0109375
	minimum = 0.00566667 (at node 12)
	maximum = 0.0143333 (at node 0)
Accepted packet rate average = 0.011
	minimum = 0.006 (at node 3)
	maximum = 0.0143333 (at node 0)
Injected flit rate average = 0.0109375
	minimum = 0.00566667 (at node 12)
	maximum = 0.0143333 (at node 0)
Accepted flit rate average= 0.011
	minimum = 0.006 (at node 3)
	maximum = 0.0143333 (at node 0)
Injected packet length average = 1
Accepted packet length average = 1
Total in-flight flits = 1 (1 measured)
latency change    = 0.0201499
throughput change = 0.0454545
Class 0:
Packet latency average = 18.7522
	minimum = 7
	maximum = 37
Network latency average = 18.7522
	minimum = 7
	maximum = 37
Slowest packet = 6513
Flit latency average = 18.829
	minimum = 7
	maximum = 37
Slowest flit = 6498
Fragmentation average = 0
	minimum = 0
	maximum = 0
Injected packet rate average = 0.0107656
	minimum = 0.0065 (at node 12)
	maximum = 0.01375 (at node 0)
Accepted packet rate average = 0.0107812
	minimum = 0.00675 (at node 3)
	maximum = 0.01375 (at node 0)
Injected flit rate average = 0.0107656
	minimum = 0.0065 (at node 12)
	maximum = 0.01375 (at node 0)
Accepted flit rate average= 0.0107812
	minimum = 0.00675 (at node 3)
	maximum = 0.01375 (at node 0)
Injected packet length average = 1
Accepted packet length average = 1
Total in-flight flits = 3 (3 measured)
latency change    = 0.0181298
throughput change = 0.0202899
Class 0:
Packet latency average = 19.0084
	minimum = 7
	maximum = 37
Network latency average = 19.0084
	minimum = 7
	maximum = 37
Slowest packet = 6513
Flit latency average = 19.0701
	minimum = 7
	maximum = 37
Slowest flit = 6498
Fragmentation average = 0
	minimum = 0
	maximum = 0
Injected packet rate average = 0.01055
	minimum = 0.0076 (at node 12)
	maximum = 0.013 (at node 7)
Accepted packet rate average = 0.010525
	minimum = 0.0072 (at node 3)
	maximum = 0.013 (at node 13)
Injected flit rate average = 0.01055
	minimum = 0.0076 (at node 12)
	maximum = 0.013 (at node 7)
Accepted flit rate average= 0.010525
	minimum = 0.0072 (at node 3)
	maximum = 0.013 (at node 13)
Injected packet length average = 1
Accepted packet length average = 1
Total in-flight flits = 6 (6 measured)
latency change    = 0.0134765
throughput change = 0.0243468
Draining all recorded packets ...
Draining remaining packets ...
Time taken is 8031 cycles
Class 0:
Packet latency average = 19.2222
	minimum = 7
	maximum = 37
Network latency average = 19.2222
	minimum = 7
	maximum = 37
Slowest packet = 7361
Flit latency average = 19.2222
	minimum = 7
	maximum = 37
Slowest flit = 7361
Fragmentation average = 0
	minimum = 0
	maximum = 0
Injected packet rate average = 0.0104375
	minimum = 0.007 (at node 0)
	maximum = 0.015 (at node 13)
Accepted packet rate average = 0.010125
	minimum = 0.007 (at node 0)
	maximum = 0.014 (at node 7)
Injected flit rate average = 0.0104375
	minimum = 0.007 (at node 0)
	maximum = 0.015 (at node 13)
Accepted flit rate average= 0.010125
	minimum = 0.007 (at node 0)
	maximum = 0.014 (at node 7)
Injected packet length average = 1
Accepted packet length average = 1
Total in-flight flits = 5 (0 measured)
latency change    = 1
throughput change = 1
Class 0:
Packet latency average = 19.414
	minimum = 7
	maximum = 37
Network latency average = 19.414
	minimum = 7
	maximum = 37
Slowest packet = 7361
Flit latency average = 19.414
	minimum = 7
	maximum = 37
Slowest flit = 7361
Fragmentation average = 0
	minimum = 0
	maximum = 0
Injected packet rate average = 0.00990625
	minimum = 0.0075 (at node 0)
	maximum = 0.013 (at node 11)
Accepted packet rate average = 0.0098125
	minimum = 0.0075 (at node 0)
	maximum = 0.013 (at node 14)
Injected flit rate average = 0.00990625
	minimum = 0.0075 (at node 0)
	maximum = 0.013 (at node 11)
Accepted flit rate average= 0.0098125
	minimum = 0.0075 (at node 0)
	maximum = 0.013 (at node 14)
Injected packet length average = 1
Accepted packet length average = 1
Total in-flight flits = 3 (0 measured)
latency change    = 0.00987897
throughput change = 0.0318471
Class 0:
Packet latency average = 19.7464
	minimum = 7
	maximum = 45
Network latency average = 19.7464
	minimum = 7
	maximum = 45
Slowest packet = 7798
Flit latency average = 19.7464
	minimum = 7
	maximum = 45
Slowest flit = 7798
Fragmentation average = 0
	minimum = 0
	maximum = 0
Injected packet rate average = 0.0085625
	minimum = 0.004 (at node 3)
	maximum = 0.013 (at node 5)
Accepted packet rate average = 0.008625
	minimum = 0.004 (at node 12)
	maximum = 0.014 (at node 5)
Injected flit rate average = 0.0085625
	minimum = 0.004 (at node 3)
	maximum = 0.013 (at node 5)
Accepted flit rate average= 0.008625
	minimum = 0.004 (at node 12)
	maximum = 0.014 (at node 5)
Injected packet length average = 1
Accepted packet length average = 1
Total in-flight flits = 2 (0 measured)
latency change    = 0.0168316
throughput change = 0.137681
Warmed up ...Time used is 3000 cycles
Class 0:
Packet latency average = 20.4797
	minimum = 7
	maximum = 38
Network latency average = 20.4797
	minimum = 7
	maximum = 38
Slowest packet = 7809
Flit latency average = 20.5
	minimum = 7
	maximum = 38
Slowest flit = 7809
Fragmentation average = 0
	minimum = 0
	maximum = 0
Injected packet rate average = 0.009375
	minimum = 0.003 (at node 8)
	maximum = 0.016 (at node 12)
Accepted packet rate average = 0.009375
	minimum = 0.004 (at node 0)
	maximum = 0.015 (at node 3)
Injected flit rate average = 0.009375
	minimum = 0.003 (at node 8)
	maximum = 0.016 (at node 12)
Accepted flit rate average= 0.009375
	minimum = 0.004 (at node 0)
	maximum = 0.015 (at node 3)
Injected packet length average = 1
Accepted packet length average = 1
Total in-flight flits = 2 (2 measured)
latency change    = 0.0358087
throughput change = 0.08
Class 0:
Packet latency average = 20.2165
	minimum = 7
	maximum = 38
Network latency average = 20.2165
	minimum = 7
	maximum = 38
Slowest packet = 7809
Flit latency average = 20.2287
	minimum = 7
	maximum = 38
Slowest flit = 7809
Fragmentation average = 0
	minimum = 0
	maximum = 0
Injected packet rate average = 0.009125
	minimum = 0.0035 (at node 8)
	maximum = 0.013 (at node 6)
Accepted packet rate average = 0.00915625
	minimum = 0.004 (at node 2)
	maximum = 0.0135 (at node 9)
Injected flit rate average = 0.009125
	minimum = 0.0035 (at node 8)
	maximum = 0.013 (at node 6)
Accepted flit rate average= 0.00915625
	minimum = 0.004 (at node 2)
	maximum = 0.0135 (at node 9)
Injected packet length average = 1
Accepted packet length average = 1
Total in-flight flits = 1 (1 measured)
latency change    = 0.0130208
throughput change = 0.0238908
Class 0:
Packet latency average = 20.0863
	minimum = 7
	maximum = 38
Network latency average = 20.0863
	minimum = 7
	maximum = 38
Slowest packet = 7809
Flit latency average = 20.0943
	minimum = 7
	maximum = 38
Slowest flit = 7809
Fragmentation average = 0
	minimum = 0
	maximum = 0
Injected packet rate average = 0.00991667
	minimum = 0.00633333 (at node 8)
	maximum = 0.0123333 (at node 13)
Accepted packet rate average = 0.0099375
	minimum = 0.00633333 (at node 6)
	maximum = 0.0123333 (at node 7)
Injected flit rate average = 0.00991667
	minimum = 0.00633333 (at node 8)
	maximum = 0.0123333 (at node 13)
Accepted flit rate average= 0.0099375
	minimum = 0.00633333 (at node 6)
	maximum = 0.0123333 (at node 7)
Injected packet length average = 1
Accepted packet length average = 1
Total in-flight flits = 1 (1 measured)
latency change    = 0.00648098
throughput change = 0.0786164
Class 0:
Packet latency average = 20.0248
	minimum = 7
	maximum = 38
Network latency average = 20.0248
	minimum = 7
	maximum = 38
Slowest packet = 7809
Flit latency average = 20.031
	minimum = 7
	maximum = 38
Slowest flit = 7809
Fragmentation average = 0
	minimum = 0
	maximum = 0
Injected packet rate average = 0.0100938
	minimum = 0.00625 (at node 9)
	maximum = 0.014 (at node 3)
Accepted packet rate average = 0.0100938
	minimum = 0.00625 (at node 6)
	maximum = 0.014 (at node 12)
Injected flit rate average = 0.0100938
	minimum = 0.00625 (at node 9)
	maximum = 0.014 (at node 3)
Accepted flit rate average= 0.0100938
	minimum = 0.00625 (at node 6)
	maximum = 0.014 (at node 12)
Injected packet length average = 1
Accepted packet length average = 1
Total in-flight flits = 2 (2 measured)
latency change    = 0.00306974
throughput change = 0.0154799
Class 0:
Packet latency average = 19.7601
	minimum = 7
	maximum = 38
Network latency average = 19.7601
	minimum = 7
	maximum = 38
Slowest packet = 7809
Flit latency average = 19.7658
	minimum = 7
	maximum = 38
Slowest flit = 7809
Fragmentation average = 0
	minimum = 0
	maximum = 0
Injected packet rate average = 0.009675
	minimum = 0.0062 (at node 8)
	maximum = 0.0136 (at node 3)
Accepted packet rate average = 0.0096625
	minimum = 0.0062 (at node 6)
	maximum = 0.0134 (at node 12)
Injected flit rate average = 0.009675
	minimum = 0.0062 (at node 8)
	maximum = 0.0136 (at node 3)
Accepted flit rate average= 0.0096625
	minimum = 0.0062 (at node 6)
	maximum = 0.0134 (at node 12)
Injected packet length average = 1
Accepted packet length average = 1
Total in-flight flits = 3 (3 measured)
latency change    = 0.0134004
throughput change = 0.0446313
Class 0:
Packet latency average = 19.7709
	minimum = 7
	maximum = 38
Network latency average = 19.7709
	minimum = 7
	maximum = 38
Slowest packet = 7809
Flit latency average = 19.7756
	minimum = 7
	maximum = 38
Slowest flit = 7809
Fragmentation average = 0
	minimum = 0
	maximum = 0
Injected packet rate average = 0.00978125
	minimum = 0.007 (at node 8)
	maximum = 0.0135 (at node 3)
Accepted packet rate average = 0.00975
	minimum = 0.007 (at node 2)
	maximum = 0.0133333 (at node 12)
Injected flit rate average = 0.00978125
	minimum = 0.007 (at node 8)
	maximum = 0.0135 (at node 3)
Accepted flit rate average= 0.00975
	minimum = 0.007 (at node 2)
	maximum = 0.0133333 (at node 12)
Injected packet length average = 1
Accepted packet length average = 1
Total in-flight flits = 5 (5 measured)
latency change    = 0.000547576
throughput change = 0.00897436
Draining all recorded packets ...
Draining remaining packets ...
Time taken is 9049 cycles
Class 0:
Packet latency average = 19.8671
	minimum = 7
	maximum = 37
Network latency average = 19.8671
	minimum = 7
	maximum = 37
Slowest packet = 8749
Flit latency average = 19.8671
	minimum = 7
	maximum = 37
Slowest flit = 8749
Fragmentation average = 0
	minimum = 0
	maximum = 0
Injected packet rate average = 0.009125
	minimum = 0.005 (at node 6)
	maximum = 0.015 (at node 12)
Accepted packet rate average = 0.0089375
	minimum = 0.004 (at node 2)
	maximum = 0.015 (at node 3)
Injected flit rate average = 0.009125
	minimum = 0.005 (at node 6)
	maximum = 0.015 (at node 12)
Accepted flit rate average= 0.0089375
	minimum = 0.004 (at node 2)
	maximum = 0.015 (at node 3)
Injected packet length average = 1
Accepted packet length average = 1
Total in-flight flits = 3 (0 measured)
latency change    = 1
throughput change = 1
Class 0:
Packet latency average = 20.2457
	minimum = 7
	maximum = 37
Network latency average = 20.2457
	minimum = 7
	maximum = 37
Slowest packet = 8749
Flit latency average = 20.2457
	minimum = 7
	maximum = 37
Slowest flit = 8749
Fragmentation average = 0
	minimum = 0
	maximum = 0
Injected packet rate average = 0.00921875
	minimum = 0.0065 (at node 6)
	maximum = 0.014 (at node 12)
Accepted packet rate average = 0.00915625
	minimum = 0.0065 (at node 9)
	maximum = 0.0135 (at node 3)
Injected flit rate average = 0.00921875
	minimum = 0.0065 (at node 6)
	maximum = 0.014 (at node 12)
Accepted flit rate average= 0.00915625
	minimum = 0.0065 (at node 9)
	maximum = 0.0135 (at node 3)
Injected packet length average = 1
Accepted packet length average = 1
Total in-flight flits = 2 (0 measured)
latency change    = 0.0187003
throughput change = 0.0238908
Class 0:
Packet latency average = 20.2353
	minimum = 7
	maximum = 37
Network latency average = 20.2353
	minimum = 7
	maximum = 37
Slowest packet = 9042
Flit latency average = 20.2353
	minimum = 7
	maximum = 37
Slowest flit = 9042
Fragmentation average = 0
	minimum = 0
	maximum = 0
Injected packet rate average = 0.009625
	minimum = 0.004 (at node 5)
	maximum = 0.015 (at node 13)
Accepted packet rate average = 0.0095625
	minimum = 0.004 (at node 5)
	maximum = 0.014 (at node 7)
Injected flit rate average = 0.009625
	minimum = 0.004 (at node 5)
	maximum = 0.015 (at node 13)
Accepted flit rate average= 0.0095625
	minimum = 0.004 (at node 5)
	maximum = 0.014 (at node 7)
Injected packet length average = 1
Accepted packet length average = 1
Total in-flight flits = 3 (0 measured)
latency change    = 0.000515914
throughput change = 0.0424837
Warmed up ...Time used is 3000 cycles
Class 0:
Packet latency average = 18.9371
	minimum = 7
	maximum = 37
Network latency average = 18.9371
	minimum = 7
	maximum = 37
Slowest packet = 9197
Flit latency average = 18.963
	minimum = 7
	maximum = 37
Slowest flit = 9197
Fragmentation average = 0
	minimum = 0
	maximum = 0
Injected packet rate average = 0.010125
	minimum = 0.006 (at node 0)
	maximum = 0.017 (at node 9)
Accepted packet rate average = 0.010125
	minimum = 0.006 (at node 0)
	maximum = 0.016 (at node 6)
Injected flit rate average = 0.010125
	minimum = 0.006 (at node 0)
	maximum = 0.017 (at node 9)
Accepted flit rate average= 0.010125
	minimum = 0.006 (at node 0)
	maximum = 0.016 (at node 6)
Injected packet length average = 1
Accepted packet length average = 1
Total in-flight flits = 3 (3 measured)
latency change    = 0.0685526
throughput change = 0.0555556
Class 0:
Packet latency average = 18.8119
	minimum = 7
	maximum = 37
Network latency average = 18.8119
	minimum = 7
	maximum = 37
Slowest packet = 9197
Flit latency average = 18.8261
	minimum = 7
	maximum = 37
Slowest flit = 9197
Fragmentation average = 0
	minimum = 0
	maximum = 0
Injected packet rate average = 0.0100313
	minimum = 0.006 (at node 12)
	maximum = 0.0155 (at node 9)
Accepted packet rate average = 0.0100625
	minimum = 0.006 (at node 3)
	maximum = 0.0155 (at node 6)
Injected flit rate average = 0.0100313
	minimum = 0.006 (at node 12)
	maximum = 0.0155 (at node 9)
Accepted flit rate average= 0.0100625
	minimum = 0.006 (at node 3)
	maximum = 0.0155 (at node 6)
Injected packet length average = 1
Accepted packet length average = 1
Total in-flight flits = 2 (2 measured)
latency change    = 0.00665508
throughput change = 0.00621118
Class 0:
Packet latency average = 18.8109
	minimum = 7
	maximum = 38
Network latency average = 18.8109
	minimum = 7
	maximum = 38
Slowest packet = 9654
Flit latency average = 18.8207
	minimum = 7
	maximum = 38
Slowest flit = 9654
Fragmentation average = 0
	minimum = 0
	maximum = 0
Injected packet rate average = 0.009625
	minimum = 0.00633333 (at node 12)
	maximum = 0.0136667 (at node 9)
Accepted packet rate average = 0.00964583
	minimum = 0.00633333 (at node 3)
	maximum = 0.0133333 (at node 6)
Injected flit rate average = 0.009625
	minimum = 0.00633333 (at node 12)
	maximum = 0.0136667 (at node 9)
Accepted flit rate average= 0.00964583
	minimum = 0.00633333 (at node 3)
	maximum = 0.0133333 (at node 6)
Injected packet length average = 1
Accepted packet length average = 1
Total in-flight flits = 2 (2 measured)
latency change    = 5.54286e-05
throughput change = 0.0431965
Class 0:
Packet latency average = 19.1138
	minimum = 7
	maximum = 38
Network latency average = 19.1138
	minimum = 7
	maximum = 38
Slowest packet = 9654
Flit latency average = 19.1196
	minimum = 7
	maximum = 38
Slowest flit = 9654
Fragmentation average = 0
	minimum = 0
	maximum = 0
Injected packet rate average = 0.00979688
	minimum = 0.0075 (at node 12)
	maximum = 0.012 (at node 9)
Accepted packet rate average = 0.00979688
	minimum = 0.0075 (at node 3)
	maximum = 0.01175 (at node 6)
Injected flit rate average = 0.00979688
	minimum = 0.0075 (at node 12)
	maximum = 0.012 (at node 9)
Accepted flit rate average= 0.00979688
	minimum = 0.0075 (at node 3)
	maximum = 0.01175 (at node 6)
Injected packet length average = 1
Accepted packet length average = 1
Total in-flight flits = 3 (3 measured)
latency change    = 0.0158479
throughput change = 0.0154173
Draining all recorded packets ...
Draining remaining packets ...
Time taken is 7052 cycles
Class 0:
Packet latency average = 19.0793
	minimum = 7
	maximum = 37
Network latency average = 19.0793
	minimum = 7
	maximum = 37
Slowest packet = 9836
Flit latency average = 19.0793
	minimum = 7
	maximum = 37
Slowest flit = 9836
Fragmentation average = 0
	minimum = 0
	maximum = 0
Injected packet rate average = 0.010375
	minimum = 0.005 (at node 3)
	maximum = 0.015 (at node 8)
Accepted packet rate average = 0.01025
	minimum = 0.004 (at node 12)
	maximum = 0.015 (at node 2)
Injected flit rate average = 0.010375
	minimum = 0.005 (at node 3)
	maximum = 0.015 (at node 8)
Accepted flit rate average= 0.01025
	minimum = 0.004 (at node 12)
	maximum = 0.015 (at node 2)
Injected packet length average = 1
Accepted packet length average = 1
Total in-flight flits = 2 (0 measured)
latency change    = 1
throughput change = 1
Class 0:
Packet latency average = 18.6198
	minimum = 7
	maximum = 37
Network latency average = 18.6198
	minimum = 7
	maximum = 37
Slowest packet = 9836
Flit latency average = 18.6198
	minimum = 7
	maximum = 37
Slowest flit = 9836
Fragmentation average = 0
	minimum = 0
	maximum = 0
Injected packet rate average = 0.0105625
	minimum = 0.0065 (at node 3)
	maximum = 0.013 (at node 8)
Accepted packet rate average = 0.0104375
	minimum = 0.0065 (at node 12)
	maximum = 0.013 (at node 2)
Injected flit rate average = 0.0105625
	minimum = 0.0065 (at node 3)
	maximum = 0.013 (at node 8)
Accepted flit rate average= 0.0104375
	minimum = 0.0065 (at node 12)
	maximum = 0.013 (at node 2)
Injected packet length average = 1
Accepted packet length average = 1
Total in-flight flits = 4 (0 measured)
latency change    = 0.0246785
throughput change = 0.0179641
Class 0:
Packet latency average = 20.2048
	minimum = 7
	maximum = 37
Network latency average = 20.2048
	minimum = 7
	maximum = 37
Slowest packet = 10171
Flit latency average = 20.2048
	minimum = 7
	maximum = 37
Slowest flit = 10171
Fragmentation average = 0
	minimum = 0
	maximum = 0
Injected packet rate average = 0.010375
	minimum = 0.007 (at node 0)
	maximum = 0.015 (at node 7)
Accepted packet rate average = 0.010375
	minimum = 0.007 (at node 0)
	maximum = 0.014 (at node 13)
Injected flit rate average = 0.010375
	minimum = 0.007 (at node 0)
	maximum = 0.015 (at node 7)
Accepted flit rate average= 0.010375
	minimum = 0.007 (at node 0)
	maximum = 0.014 (at node 13)
Injected packet length average = 1
Accepted packet length average = 1
Total in-flight flits = 4 (0 measured)
latency change    = 0.0784495
throughput change = 0.0060241
Warmed up ...Time used is 3000 cycles
Class 0:
Packet latency average = 18.5714
	minimum = 7
	maximum = 37
Network latency average = 18.5714
	minimum = 7
	maximum = 37
Slowest packet = 10332
Flit latency average = 18.7361
	minimum = 7
	maximum = 37
Slowest flit = 10332
Fragmentation average = 0
	minimum = 0
	maximum = 0
Injected packet rate average = 0.0089375
	minimum = 0.004 (at node 4)
	maximum = 0.014 (at node 2)
Accepted packet rate average = 0.009
	minimum = 0.004 (at node 1)
	maximum = 0.015 (at node 8)
Injected flit rate average = 0.0089375
	minimum = 0.004 (at node 4)
	maximum = 0.014 (at node 2)
Accepted flit rate average= 0.009
	minimum = 0.004 (at node 1)
	maximum = 0.015 (at node 8)
Injected packet length average = 1
Accepted packet length average = 1
Total in-flight flits = 3 (3 measured)
latency change    = 0.0879518
throughput change = 0.152778
Class 0:
Packet latency average = 18.4658
	minimum = 7
	maximum = 37
Network latency average = 18.4658
	minimum = 7
	maximum = 37
Slowest packet = 10332
Flit latency average = 18.5434
	minimum = 7
	maximum = 37
Slowest flit = 10332
Fragmentation average = 0
	minimum = 0
	maximum = 0
Injected packet rate average = 0.00975
	minimum = 0.0055 (at node 3)
	maximum = 0.0135 (at node 0)
Accepted packet rate average = 0.00971875
	minimum = 0.005 (at node 12)
	maximum = 0.0135 (at node 0)
Injected flit rate average = 0.00975
	minimum = 0.0055 (at node 3)
	maximum = 0.0135 (at node 0)
Accepted flit rate average= 0.00971875
	minimum = 0.005 (at node 12)
	maximum = 0.0135 (at node 0)
Injected packet length average = 1
Accepted packet length average = 1
Total in-flight flits = 5 (5 measured)
latency change    = 0.00572033
throughput change = 0.073955
Class 0:
Packet latency average = 19.1512
	minimum = 7
	maximum = 37
Network latency average = 19.1512
	minimum = 7
	maximum = 37
Slowest packet = 10332
Flit latency average = 19.197
	minimum = 7
	maximum = 37
Slowest flit = 10332
Fragmentation average = 0
	minimum = 0
	maximum = 0
Injected packet rate average = 0.00966667
	minimum = 0.00733333 (at node 8)
	maximum = 0.012 (at node 1)
Accepted packet rate average = 0.00972917
	minimum = 0.00733333 (at node 2)
	maximum = 0.012 (at node 4)
Injected flit rate average = 0.00966667
	minimum = 0.00733333 (at node 8)
	maximum = 0.012 (at node 1)
Accepted flit rate average= 0.00972917
	minimum = 0.00733333 (at node 2)
	maximum = 0.012 (at node 4)
Injected packet length average = 1
Accepted packet length average = 1
Total in-flight flits = 1 (1 measured)
latency change    = 0.0357884
throughput change = 0.00107066
Class 0:
Packet latency average = 19.3032
	minimum = 7
	maximum = 38
Network latency average = 19.3032
	minimum = 7
	maximum = 38
Slowest packet = 10944
Flit latency average = 19.3365
	minimum = 7
	maximum = 38
Slowest flit = 10944
Fragmentation average = 0
	minimum = 0
	maximum = 0
Injected packet rate average = 0.00971875
	minimum = 0.0075 (at node 13)
	maximum = 0.012 (at node 7)
Accepted packet rate average = 0.00975
	minimum = 0.0075 (at node 7)
	maximum = 0.01225 (at node 13)
Injected flit rate average = 0.00971875
	minimum = 0.0075 (at node 13)
	maximum = 0.012 (at node 7)
Accepted flit rate average= 0.00975
	minimum = 0.0075 (at node 7)
	maximum = 0.01225 (at node 13)
Injected packet length average = 1
Accepted packet length average = 1
Total in-flight flits = 2 (2 measured)
latency change    = 0.0078763
throughput change = 0.00213675
Class 0:
Packet latency average = 19.4437
	minimum = 7
	maximum = 38
Network latency average = 19.4437
	minimum = 7
	maximum = 38
Slowest packet = 10944
Flit latency average = 19.4698
	minimum = 7
	maximum = 38
Slowest flit = 10944
Fragmentation average = 0
	minimum = 0
	maximum = 0
Injected packet rate average = 0.009675
	minimum = 0.0078 (at node 13)
	maximum = 0.0114 (at node 7)
Accepted packet rate average = 0.0097125
	minimum = 0.0078 (at node 7)
	maximum = 0.0116 (at node 13)
Injected flit rate average = 0.009675
	minimum = 0.0078 (at node 13)
	maximum = 0.0114 (at node 7)
Accepted flit rate average= 0.0097125
	minimum = 0.0078 (at node 7)
	maximum = 0.0116 (at node 13)
Injected packet length average = 1
Accepted packet length average = 1
Total in-flight flits = 1 (1 measured)
latency change    = 0.00722598
throughput change = 0.003861
Draining all recorded packets ...
Draining remaining packets ...
Time taken is 8024 cycles
Class 0:
Packet latency average = 19.9623
	minimum = 7
	maximum = 38
Network latency average = 19.9623
	minimum = 7
	maximum = 38
Slowest packet = 11196
Flit latency average = 19.9623
	minimum = 7
	maximum = 38
Slowest flit = 11196
Fragmentation average = 0
	minimum = 0
	maximum = 0
Injected packet rate average = 0.010125
	minimum = 0.004 (at node 5)
	maximum = 0.014 (at node 1)
Accepted packet rate average = 0.0099375
	minimum = 0.004 (at node 5)
	maximum = 0.014 (at node 4)
Injected flit rate average = 0.010125
	minimum = 0.004 (at node 5)
	maximum = 0.014 (at node 1)
Accepted flit rate average= 0.0099375
	minimum = 0.004 (at node 5)
	maximum = 0.014 (at node 4)
Injected packet length average = 1
Accepted packet length average = 1
Total in-flight flits = 3 (0 measured)
latency change    = 1
throughput change = 1
Class 0:
Packet latency average = 19.5382
	minimum = 7
	maximum = 38
Network latency average = 19.5382
	minimum = 7
	maximum = 38
Slowest packet = 11196
Flit latency average = 19.5382
	minimum = 7
	maximum = 38
Slowest flit = 11196
Fragmentation average = 0
	minimum = 0
	maximum = 0
Injected packet rate average = 0.009875
	minimum = 0.0075 (at node 5)
	maximum = 0.012 (at node 6)
Accepted packet rate average = 0.0098125
	minimum = 0.007 (at node 5)
	maximum = 0.012 (at node 9)
Injected flit rate average = 0.009875
	minimum = 0.0075 (at node 5)
	maximum = 0.012 (at node 6)
Accepted flit rate average= 0.0098125
	minimum = 0.007 (at node 5)
	maximum = 0.012 (at node 9)
Injected packet length average = 1
Accepted packet length average = 1
Total in-flight flits = 2 (0 measured)
latency change    = 0.0217035
throughput change = 0.0127389
Class 0:
Packet latency average = 19.3393
	minimum = 7
	maximum = 37
Network latency average = 19.3393
	minimum = 7
	maximum = 37
Slowest packet = 11432
Flit latency average = 19.3393
	minimum = 7
	maximum = 37
Slowest flit = 11432
Fragmentation average = 0
	minimum = 0
	maximum = 0
Injected packet rate average = 0.0105625
	minimum = 0.006 (at node 13)
	maximum = 0.019 (at node 7)
Accepted packet rate average = 0.0105
	minimum = 0.006 (at node 7)
	maximum = 0.019 (at node 13)
Injected flit rate average = 0.0105625
	minimum = 0.006 (at node 13)
	maximum = 0.019 (at node 7)
Accepted flit rate average= 0.0105
	minimum = 0.006 (at node 7)
	maximum = 0.019 (at node 13)
Injected packet length average = 1
Accepted packet length average = 1
Total in-flight flits = 3 (0 measured)
latency change    = 0.0102864
throughput change = 0.0654762
Warmed up ...Time used is 3000 cycles
Class 0:
Packet latency average = 19.5437
	minimum = 7
	maximum = 37
Network latency average = 19.5437
	minimum = 7
	maximum = 37
Slowest packet = 11603
Flit latency average = 19.8037
	minimum = 7
	maximum = 37
Slowest flit = 11588
Fragmentation average = 0
	minimum = 0
	maximum = 0
Injected packet rate average = 0.01025
	minimum = 0.005 (at node 15)
	maximum = 0.015 (at node 1)
Accepted packet rate average = 0.0101875
	minimum = 0.005 (at node 15)
	maximum = 0.015 (at node 4)
Injected flit rate average = 0.01025
	minimum = 0.005 (at node 15)
	maximum = 0.015 (at node 1)
Accepted flit rate average= 0.0101875
	minimum = 0.005 (at node 15)
	maximum = 0.015 (at node 4)
Injected packet length average = 1
Accepted packet length average = 1
Total in-flight flits = 4 (4 measured)
latency change    = 0.0104619
throughput change = 0.0306748
Class 0:
Packet latency average = 19.5994
	minimum = 7
	maximum = 37
Network latency average = 19.5994
	minimum = 7
	maximum = 37
Slowest packet = 11603
Flit latency average = 19.7292
	minimum = 7
	maximum = 37
Slowest flit = 11588
Fragmentation average = 0
	minimum = 0
	maximum = 0
Injected packet rate average = 0.0101875
	minimum = 0.0055 (at node 10)
	maximum = 0.0145 (at node 7)
Accepted packet rate average = 0.0101563
	minimum = 0.0055 (at node 10)
	maximum = 0.014 (at node 13)
Injected flit rate average = 0.0101875
	minimum = 0.0055 (at node 10)
	maximum = 0.0145 (at node 7)
Accepted flit rate average= 0.0101563
	minimum = 0.0055 (at node 10)
	maximum = 0.014 (at node 13)
Injected packet length average = 1
Accepted packet length average = 1
Total in-flight flits = 4 (4 measured)
latency change    = 0.0028383
throughput change = 0.00307692
Class 0:
Packet latency average = 19.7814
	minimum = 7
	maximum = 38
Network latency average = 19.7814
	minimum = 7
	maximum = 38
Slowest packet = 11978
Flit latency average = 19.8668
	minimum = 7
	maximum = 38
Slowest flit = 11978
Fragmentation average = 0
	minimum = 0
	maximum = 0
Injected packet rate average = 0.0102292
	minimum = 0.008 (at node 6)
	maximum = 0.013 (at node 1)
Accepted packet rate average = 0.0101667
	minimum = 0.008 (at node 6)
	maximum = 0.013 (at node 4)
Injected flit rate average = 0.0102292
	minimum = 0.008 (at node 6)
	maximum = 0.013 (at node 1)
Accepted flit rate average= 0.0101667
	minimum = 0.008 (at node 6)
	maximum = 0.013 (at node 4)
Injected packet length average = 1
Accepted packet length average = 1
Total in-flight flits = 6 (6 measured)
latency change    = 0.0092038
throughput change = 0.00102459
Draining all recorded packets ...
Draining remaining packets ...
Time taken is 6047 cycles
Class 0:
Packet latency average = 18.7174
	minimum = 7
	maximum = 37
Network latency average = 18.7174
	minimum = 7
	maximum = 37
Slowest packet = 12097
Flit latency average = 18.7174
	minimum = 7
	maximum = 37
Slowest flit = 12097
Fragmentation average = 0
	minimum = 0
	maximum = 0
Injected packet rate average = 0.00875
	minimum = 0.005 (at node 3)
	maximum = 0.014 (at node 1)
Accepted packet rate average = 0.008625
	minimum = 0.004 (at node 12)
	maximum = 0.014 (at node 4)
Injected flit rate average = 0.00875
	minimum = 0.005 (at node 3)
	maximum = 0.014 (at node 1)
Accepted flit rate average= 0.008625
	minimum = 0.004 (at node 12)
	maximum = 0.014 (at node 4)
Injected packet length average = 1
Accepted packet length average = 1
Total in-flight flits = 2 (0 measured)
latency change    = 1
throughput change = 1
Class 0:
Packet latency average = 18.9964
	minimum = 7
	maximum = 37
Network latency average = 18.9964
	minimum = 7
	maximum = 37
Slowest packet = 12097
Flit latency average = 18.9964
	minimum = 7
	maximum = 37
Slowest flit = 12097
Fragmentation average = 0
	minimum = 0
	maximum = 0
Injected packet rate average = 0.00878125
	minimum = 0.0045 (at node 13)
	maximum = 0.0115 (at node 1)
Accepted packet rate average = 0.00871875
	minimum = 0.0045 (at node 7)
	maximum = 0.0115 (at node 4)
Injected flit rate average = 0.00878125
	minimum = 0.0045 (at node 13)
	maximum = 0.0115 (at node 1)
Accepted flit rate average= 0.00871875
	minimum = 0.0045 (at node 7)
	maximum = 0.0115 (at node 4)
Injected packet length average = 1
Accepted packet length average = 1
Total in-flight flits = 2 (0 measured)
latency change    = 0.0146883
throughput change = 0.0107527
Class 0:
Packet latency average = 19.0782
	minimum = 7
	maximum = 38
Network latency average = 19.0782
	minimum = 7
	maximum = 38
Slowest packet = 12490
Flit latency average = 19.0782
	minimum = 7
	maximum = 38
Slowest flit = 12490
Fragmentation average = 0
	minimum = 0
	maximum = 0
Injected packet rate average = 0.01125
	minimum = 0.007 (at node 6)
	maximum = 0.017 (at node 5)
Accepted packet rate average = 0.0111875
	minimum = 0.007 (at node 9)
	maximum = 0.017 (at node 5)
Injected flit rate average = 0.01125
	minimum = 0.007 (at node 6)
	maximum = 0.017 (at node 5)
Accepted flit rate average= 0.0111875
	minimum = 0.007 (at node 9)
	maximum = 0.017 (at node 5)
Injected packet length average = 1
Accepted packet length average = 1
Total in-flight flits = 3 (0 measured)
latency change    = 0.00428743
throughput change = 0.22067
Warmed up ...Time used is 3000 cycles
Class 0:
Packet latency average = 20.526
	minimum = 7
	maximum = 37
Network latency average = 20.526
	minimum = 7
	maximum = 37
Slowest packet = 12553
Flit latency average = 20.586
	minimum = 7
	maximum = 37
Slowest flit = 12553
Fragmentation average = 0
	minimum = 0
	maximum = 0
Injected packet rate average = 0.009875
	minimum = 0.005 (at node 2)
	maximum = 0.014 (at node 7)
Accepted packet rate average = 0.0098125
	minimum = 0.004 (at node 8)
	maximum = 0.014 (at node 3)
Injected flit rate average = 0.009875
	minimum = 0.005 (at node 2)
	maximum = 0.014 (at node 7)
Accepted flit rate average= 0.0098125
	minimum = 0.004 (at node 8)
	maximum = 0.014 (at node 3)
Injected packet length average = 1
Accepted packet length average = 1
Total in-flight flits = 4 (4 measured)
latency change    = 0.0705332
throughput change = 0.140127
Class 0:
Packet latency average = 19.865
	minimum = 7
	maximum = 37
Network latency average = 19.865
	minimum = 7
	maximum = 37
Slowest packet = 12553
Flit latency average = 19.8997
	minimum = 7
	maximum = 37
Slowest flit = 12553
Fragmentation average = 0
	minimum = 0
	maximum = 0
Injected packet rate average = 0.0102813
	minimum = 0.0075 (at node 15)
	maximum = 0.0135 (at node 12)
Accepted packet rate average = 0.0102813
	minimum = 0.0075 (at node 15)
	maximum = 0.0135 (at node 3)
Injected flit rate average = 0.0102813
	minimum = 0.0075 (at node 15)
	maximum = 0.0135 (at node 12)
Accepted flit rate average= 0.0102813
	minimum = 0.0075 (at node 15)
	maximum = 0.0135 (at node 3)
Injected packet length average = 1
Accepted packet length average = 1
Total in-flight flits = 3 (3 measured)
latency change    = 0.0332717
throughput change = 0.0455927
Class 0:
Packet latency average = 19.3602
	minimum = 7
	maximum = 37
Network latency average = 19.3602
	minimum = 7
	maximum = 37
Slowest packet = 12553
Flit latency average = 19.3874
	minimum = 7
	maximum = 37
Slowest flit = 12553
Fragmentation average = 0
	minimum = 0
	maximum = 0
Injected packet rate average = 0.009875
	minimum = 0.006 (at node 2)
	maximum = 0.0133333 (at node 8)
Accepted packet rate average = 0.00989583
	minimum = 0.006 (at node 8)
	maximum = 0.0136667 (at node 2)
Injected flit rate average = 0.009875
	minimum = 0.006 (at node 2)
	maximum = 0.0133333 (at node 8)
Accepted flit rate average= 0.00989583
	minimum = 0.006 (at node 8)
	maximum = 0.0136667 (at node 2)
Injected packet length average = 1
Accepted packet length average = 1
Total in-flight flits = 2 (2 measured)
latency change    = 0.0260773
throughput change = 0.0389474
Class 0:
Packet latency average = 19.4418
	minimum = 7
	maximum = 37
Network latency average = 19.4418
	minimum = 7
	maximum = 37
Slowest packet = 12553
Flit latency average = 19.4617
	minimum = 7
	maximum = 37
Slowest flit = 12553
Fragmentation average = 0
	minimum = 0
	maximum = 0
Injected packet rate average = 0.00995313
	minimum = 0.00675 (at node 2)
	maximum = 0.0135 (at node 8)
Accepted packet rate average = 0.00998438
	minimum = 0.00675 (at node 8)
	maximum = 0.01375 (at node 2)
Injected flit rate average = 0.00995313
	minimum = 0.00675 (at node 2)
	maximum = 0.0135 (at node 8)
Accepted flit rate average= 0.00998438
	minimum = 0.00675 (at node 8)
	maximum = 0.01375 (at node 2)
Injected packet length average = 1
Accepted packet length average = 1
Total in-flight flits = 1 (1 measured)
latency change    = 0.00419994
throughput change = 0.00886802
Draining all recorded packets ...
Draining remaining packets ...
Time taken is 7060 cycles
Class 0:
Packet latency average = 19.1954
	minimum = 7
	maximum = 37
Network latency average = 19.1954
	minimum = 7
	maximum = 37
Slowest packet = 13198
Flit latency average = 19.1954
	minimum = 7
	maximum = 37
Slowest flit = 13198
Fragmentation average = 0
	minimum = 0
	maximum = 0
Injected packet rate average = 0.0111875
	minimum = 0.007 (at node 9)
	maximum = 0.015 (at node 4)
Accepted packet rate average = 0.010875
	minimum = 0.007 (at node 6)
	maximum = 0.015 (at node 1)
Injected flit rate average = 0.0111875
	minimum = 0.007 (at node 9)
	maximum = 0.015 (at node 4)
Accepted flit rate average= 0.010875
	minimum = 0.007 (at node 6)
	maximum = 0.015 (at node 1)
Injected packet length average = 1
Accepted packet length average = 1
Total in-flight flits = 5 (0 measured)
latency change    = 1
throughput change = 1
Class 0:
Packet latency average = 19.2246
	minimum = 7
	maximum = 37
Network latency average = 19.2246
	minimum = 7
	maximum = 37
Slowest packet = 13198
Flit latency average = 19.2246
	minimum = 7
	maximum = 37
Slowest flit = 13198
Fragmentation average = 0
	minimum = 0
	maximum = 0
Injected packet rate average = 0.0102188
	minimum = 0.007 (at node 6)
	maximum = 0.014 (at node 7)
Accepted packet rate average = 0.0101563
	minimum = 0.007 (at node 9)
	maximum = 0.014 (at node 13)
Injected flit rate average = 0.0102188
	minimum = 0.007 (at node 6)
	maximum = 0.014 (at node 7)
Accepted flit rate average= 0.0101563
	minimum = 0.007 (at node 9)
	maximum = 0.014 (at node 13)
Injected packet length average = 1
Accepted packet length average = 1
Total in-flight flits = 2 (0 measured)
latency change    = 0.00151957
throughput change = 0.0707692
Class 0:
Packet latency average = 20.2115
	minimum = 7
	maximum = 37
Network latency average = 20.2115
	minimum = 7
	maximum = 37
Slowest packet = 13518
Flit latency average = 20.2115
	minimum = 7
	maximum = 37
Slowest flit = 13518
Fragmentation average = 0
	minimum = 0
	maximum = 0
Injected packet rate average = 0.00975
	minimum = 0.006 (at node 7)
	maximum = 0.014 (at node 8)
Accepted packet rate average = 0.00975
	minimum = 0.006 (at node 13)
	maximum = 0.014 (at node 2)
Injected flit rate average = 0.00975
	minimum = 0.006 (at node 7)
	maximum = 0.014 (at node 8)
Accepted flit rate average= 0.00975
	minimum = 0.006 (at node 13)
	maximum = 0.014 (at node 2)
Injected packet length average = 1
Accepted packet length average = 1
Total in-flight flits = 2 (0 measured)
latency change    = 0.0488297
throughput change = 0.0416667
Warmed up ...Time used is 3000 cycles
Class 0:
Packet latency average = 20.3787
	minimum = 7
	maximum = 37
Network latency average = 20.3787
	minimum = 7
	maximum = 37
Slowest packet = 13683
Flit latency average = 20.3977
	minimum = 7
	maximum = 37
Slowest flit = 13677
Fragmentation average = 0
	minimum = 0
	maximum = 0
Injected packet rate average = 0.0106875
	minimum = 0.004 (at node 11)
	maximum = 0.016 (at node 6)
Accepted packet rate average = 0.0106875
	minimum = 0.004 (at node 14)
	maximum = 0.016 (at node 9)
Injected flit rate average = 0.0106875
	minimum = 0.004 (at node 11)
	maximum = 0.016 (at node 6)
Accepted flit rate average= 0.0106875
	minimum = 0.004 (at node 14)
	maximum = 0.016 (at node 9)
Injected packet length average = 1
Accepted packet length average = 1
Total in-flight flits = 2 (2 measured)
latency change    = 0.00820267
throughput change = 0.0877193
Class 0:
Packet latency average = 20.1292
	minimum = 7
	maximum = 37
Network latency average = 20.1292
	minimum = 7
	maximum = 37
Slowest packet = 13683
Flit latency average = 20.1407
	minimum = 7
	maximum = 37
Slowest flit = 13677
Fragmentation average = 0
	minimum = 0
	maximum = 0
Injected packet rate average = 0.0101563
	minimum = 0.005 (at node 11)
	maximum = 0.014 (at node 3)
Accepted packet rate average = 0.0102188
	minimum = 0.005 (at node 14)
	maximum = 0.0145 (at node 12)
Injected flit rate average = 0.0101563
	minimum = 0.005 (at node 11)
	maximum = 0.014 (at node 3)
Accepted flit rate average= 0.0102188
	minimum = 0.005 (at node 14)
	maximum = 0.0145 (at node 12)
Injected packet length average = 1
Accepted packet length average = 1
Total in-flight flits = 0 (0 measured)
latency change    = 0.0123933
throughput change = 0.0458716
Class 0:
Packet latency average = 20.2481
	minimum = 7
	maximum = 40
Network latency average = 20.2481
	minimum = 7
	maximum = 40
Slowest packet = 14165
Flit latency average = 20.2548
	minimum = 7
	maximum = 40
Slowest flit = 14165
Fragmentation average = 0
	minimum = 0
	maximum = 0
Injected packet rate average = 0.0108958
	minimum = 0.00766667 (at node 7)
	maximum = 0.017 (at node 3)
Accepted packet rate average = 0.0107917
	minimum = 0.00766667 (at node 13)
	maximum = 0.0163333 (at node 12)
Injected flit rate average = 0.0108958
	minimum = 0.00766667 (at node 7)
	maximum = 0.017 (at node 3)
Accepted flit rate average= 0.0107917
	minimum = 0.00766667 (at node 13)
	maximum = 0.0163333 (at node 12)
Injected packet length average = 1
Accepted packet length average = 1
Total in-flight flits = 7 (7 measured)
latency change    = 0.00586877
throughput change = 0.0530888
Class 0:
Packet latency average = 20.1652
	minimum = 7
	maximum = 40
Network latency average = 20.1652
	minimum = 7
	maximum = 40
Slowest packet = 14165
Flit latency average = 20.1706
	minimum = 7
	maximum = 40
Slowest flit = 14165
Fragmentation average = 0
	minimum = 0
	maximum = 0
Injected packet rate average = 0.010625
	minimum = 0.008 (at node 5)
	maximum = 0.01475 (at node 3)
Accepted packet rate average = 0.010625
	minimum = 0.008 (at node 5)
	maximum = 0.015 (at node 12)
Injected flit rate average = 0.010625
	minimum = 0.008 (at node 5)
	maximum = 0.01475 (at node 3)
Accepted flit rate average= 0.010625
	minimum = 0.008 (at node 5)
	maximum = 0.015 (at node 12)
Injected packet length average = 1
Accepted packet length average = 1
Total in-flight flits = 2 (2 measured)
latency change    = 0.00410957
throughput change = 0.0156863
Class 0:
Packet latency average = 19.8999
	minimum = 7
	maximum = 40
Network latency average = 19.8999
	minimum = 7
	maximum = 40
Slowest packet = 14165
Flit latency average = 19.9051
	minimum = 7
	maximum = 40
Slowest flit = 14165
Fragmentation average = 0
	minimum = 0
	maximum = 0
Injected packet rate average = 0.010125
	minimum = 0.0082 (at node 5)
	maximum = 0.0134 (at node 3)
Accepted packet rate average = 0.0101375
	minimum = 0.0082 (at node 5)
	maximum = 0.0134 (at node 12)
Injected flit rate average = 0.010125
	minimum = 0.0082 (at node 5)
	maximum = 0.0134 (at node 3)
Accepted flit rate average= 0.0101375
	minimum = 0.0082 (at node 5)
	maximum = 0.0134 (at node 12)
Injected packet length average = 1
Accepted packet length average = 1
Total in-flight flits = 1 (1 measured)
latency change    = 0.0133325
throughput change = 0.0480888
Class 0:
Packet latency average = 19.5732
	minimum = 7
	maximum = 40
Network latency average = 19.5732
	minimum = 7
	maximum = 40
Slowest packet = 14165
Flit latency average = 19.5781
	minimum = 7
	maximum = 40
Slowest flit = 14165
Fragmentation average = 0
	minimum = 0
	maximum = 0
Injected packet rate average = 0.0102188
	minimum = 0.008 (at node 7)
	maximum = 0.0121667 (at node 3)
Accepted packet rate average = 0.0101979
	minimum = 0.008 (at node 13)
	maximum = 0.0123333 (at node 12)
Injected flit rate average = 0.0102188
	minimum = 0.008 (at node 7)
	maximum = 0.0121667 (at node 3)
Accepted flit rate average= 0.0101979
	minimum = 0.008 (at node 13)
	maximum = 0.0123333 (at node 12)
Injected packet length average = 1
Accepted packet length average = 1
Total in-flight flits = 4 (4 measured)
latency change    = 0.0166909
throughput change = 0.00592441
Draining all recorded packets ...
Draining remaining packets ...
Time taken is 9035 cycles
Class 0:
Packet latency average = 18.6564
	minimum = 7
	maximum = 37
Network latency average = 18.6564
	minimum = 7
	maximum = 37
Slowest packet = 14670
Flit latency average = 18.6564
	minimum = 7
	maximum = 37
Slowest flit = 14670
Fragmentation average = 0
	minimum = 0
	maximum = 0
Injected packet rate average = 0.0105625
	minimum = 0.002 (at node 13)
	maximum = 0.015 (at node 11)
Accepted packet rate average = 0.0101875
	minimum = 0.002 (at node 7)
	maximum = 0.014 (at node 6)
Injected flit rate average = 0.0105625
	minimum = 0.002 (at node 13)
	maximum = 0.015 (at node 11)
Accepted flit rate average= 0.0101875
	minimum = 0.002 (at node 7)
	maximum = 0.014 (at node 6)
Injected packet length average = 1
Accepted packet length average = 1
Total in-flight flits = 6 (0 measured)
latency change    = 1
throughput change = 1
Class 0:
[...]
	minimum = 0
	maximum = 0
Injected packet rate average = 0.0089375
	minimum = 0.005 (at node 6)
	maximum = 0.014 (at node 8)
Accepted packet rate average = 0.00890625
	minimum = 0.005 (at node 9)
	maximum = 0.014 (at node 2)
Injected flit rate average = 0.0089375
	minimum = 0.005 (at node 6)
	maximum = 0.014 (at node 8)
Accepted flit rate average= 0.00890625
	minimum = 0.005 (at node 9)
	maximum = 0.014 (at node 2)
Injected packet length average = 1
Accepted packet length average = 1
Total in-flight flits = 1 (0 measured)
latency change    = 0.025571
throughput change = 0.0736842
Class 0:
Packet latency average = 18.0651
	minimum = 7
	maximum = 37
Network latency average = 18.0651
	minimum = 7
	maximum = 37
Slowest packet = 117993
Flit latency average = 18.0651
	minimum = 7
	maximum = 37
Slowest flit = 117993
Fragmentation average = 0
	minimum = 0
	maximum = 0
Injected packet rate average = 0.0105625
	minimum = 0.007 (at node 7)
	maximum = 0.015 (at node 15)
Accepted packet rate average = 0.0105625
	minimum = 0.007 (at node 3)
	maximum = 0.015 (at node 15)
Injected flit rate average = 0.0105625
	minimum = 0.007 (at node 7)
	maximum = 0.015 (at node 15)
Accepted flit rate average= 0.0105625
	minimum = 0.007 (at node 3)
	maximum = 0.015 (at node 15)
Injected packet length average = 1
Accepted packet length average = 1
Total in-flight flits = 1 (0 measured)
latency change    = 0.108079
throughput change = 0.156805
Warmed up ...Time used is 3000 cycles
Class 0:
Packet latency average = 18.4362
	minimum = 7
	maximum = 37
Network latency average = 18.4362
	minimum = 7
	maximum = 37
Slowest packet = 118161
Flit latency average = 18.4933
	minimum = 7
	maximum = 37
Slowest flit = 118161
Fragmentation average = 0
	minimum = 0
	maximum = 0
Injected packet rate average = 0.009375
	minimum = 0.002 (at node 1)
	maximum = 0.017 (at node 11)
Accepted packet rate average = 0.009375
	minimum = 0.002 (at node 4)
	maximum = 0.017 (at node 14)
Injected flit rate average = 0.009375
	minimum = 0.002 (at node 1)
	maximum = 0.017 (at node 11)
Accepted flit rate average= 0.009375
	minimum = 0.002 (at node 4)
	maximum = 0.017 (at node 14)
Injected packet length average = 1
Accepted packet length average = 1
Total in-flight flits = 1 (1 measured)
latency change    = 0.0201317
throughput change = 0.126667
Class 0:
Packet latency average = 19.4346
	minimum = 7
	maximum = 37
Network latency average = 19.4346
	minimum = 7
	maximum = 37
Slowest packet = 118161
Flit latency average = 19.4593
	minimum = 7
	maximum = 37
Slowest flit = 118161
Fragmentation average = 0
	minimum = 0
	maximum = 0
Injected packet rate average = 0.00959375
	minimum = 0.0065 (at node 4)
	maximum = 0.012 (at node 7)
Accepted packet rate average = 0.00959375
	minimum = 0.006 (at node 1)
	maximum = 0.012 (at node 2)
Injected flit rate average = 0.00959375
	minimum = 0.0065 (at node 4)
	maximum = 0.012 (at node 7)
Accepted flit rate average= 0.00959375
	minimum = 0.006 (at node 1)
	maximum = 0.012 (at node 2)
Injected packet length average = 1
Accepted packet length average = 1
Total in-flight flits = 1 (1 measured)
latency change    = 0.0513721
throughput change = 0.0228013
Class 0:
Packet latency average = 19.6903
	minimum = 7
	maximum = 37
Network latency average = 19.6903
	minimum = 7
	maximum = 37
Slowest packet = 118161
Flit latency average = 19.7064
	minimum = 7
	maximum = 37
Slowest flit = 118161
Fragmentation average = 0
	minimum = 0
	maximum = 0
Injected packet rate average = 0.00945833
	minimum = 0.00666667 (at node 4)
	maximum = 0.0126667 (at node 3)
Accepted packet rate average = 0.0094375
	minimum = 0.00666667 (at node 1)
	maximum = 0.0123333 (at node 12)
Injected flit rate average = 0.00945833
	minimum = 0.00666667 (at node 4)
	maximum = 0.0126667 (at node 3)
Accepted flit rate average= 0.0094375
	minimum = 0.00666667 (at node 1)
	maximum = 0.0123333 (at node 12)
Injected packet length average = 1
Accepted packet length average = 1
Total in-flight flits = 2 (2 measured)
latency change    = 0.0129823
throughput change = 0.0165563
Class 0:
Packet latency average = 19.7724
	minimum = 7
	maximum = 38
Network latency average = 19.7724
	minimum = 7
	maximum = 38
Slowest packet = 118657
Flit latency average = 19.784
	minimum = 7
	maximum = 38
Slowest flit = 118657
Fragmentation average = 0
	minimum = 0
	maximum = 0
Injected packet rate average = 0.00984375
	minimum = 0.00825 (at node 14)
	maximum = 0.0125 (at node 3)
Accepted packet rate average = 0.00976562
	minimum = 0.008 (at node 11)
	maximum = 0.0125 (at node 12)
Injected flit rate average = 0.00984375
	minimum = 0.00825 (at node 14)
	maximum = 0.0125 (at node 3)
Accepted flit rate average= 0.00976562
	minimum = 0.008 (at node 11)
	maximum = 0.0125 (at node 12)
Injected packet length average = 1
Accepted packet length average = 1
Total in-flight flits = 6 (6 measured)
latency change    = 0.00415581
throughput change = 0.0336
Class 0:
Packet latency average = 19.818
	minimum = 7
	maximum = 38
Network latency average = 19.818
	minimum = 7
	maximum = 38
Slowest packet = 118657
Flit latency average = 19.8269
	minimum = 7
	maximum = 38
Slowest flit = 118657
Fragmentation average = 0
	minimum = 0
	maximum = 0
Injected packet rate average = 0.0100375
	minimum = 0.0078 (at node 10)
	maximum = 0.0122 (at node 3)
Accepted packet rate average = 0.0100375
	minimum = 0.0078 (at node 10)
	maximum = 0.0122 (at node 12)
Injected flit rate average = 0.0100375
	minimum = 0.0078 (at node 10)
	maximum = 0.0122 (at node 3)
Accepted flit rate average= 0.0100375
	minimum = 0.0078 (at node 10)
	maximum = 0.0122 (at node 12)
Injected packet length average = 1
Accepted packet length average = 1
Total in-flight flits = 1 (1 measured)
latency change    = 0.00229687
throughput change = 0.0270859
Draining all recorded packets ...
Draining remaining packets ...
Time taken is 8006 cycles
Class 0:
Packet latency average = 19.5682
	minimum = 7
	maximum = 37
Network latency average = 19.5682
	minimum = 7
	maximum = 37
Slowest packet = 118957
Flit latency average = 19.5682
	minimum = 7
	maximum = 37
Slowest flit = 118957
Fragmentation average = 0
	minimum = 0
	maximum = 0
Injected packet rate average = 0.0083125
	minimum = 0.005 (at node 3)
	maximum = 0.015 (at node 9)
Accepted packet rate average = 0.00825
	minimum = 0.005 (at node 5)
	maximum = 0.015 (at node 6)
Injected flit rate average = 0.0083125
	minimum = 0.005 (at node 3)
	maximum = 0.015 (at node 9)
Accepted flit rate average= 0.00825
	minimum = 0.005 (at node 5)
	maximum = 0.015 (at node 6)
Injected packet length average = 1
Accepted packet length average = 1
Total in-flight flits = 1 (0 measured)
latency change    = 1
throughput change = 1
Class 0:
Packet latency average = 20.2989
	minimum = 7
	maximum = 37
Network latency average = 20.2989
	minimum = 7
	maximum = 37
Slowest packet = 118957
Flit latency average = 20.2989
	minimum = 7
	maximum = 37
Slowest flit = 118957
Fragmentation average = 0
	minimum = 0
	maximum = 0
Injected packet rate average = 0.008875
	minimum = 0.006 (at node 5)
	maximum = 0.0115 (at node 13)
Accepted packet rate average = 0.00878125
	minimum = 0.006 (at node 5)
	maximum = 0.011 (at node 7)
Injected flit rate average = 0.008875
	minimum = 0.006 (at node 5)
	maximum = 0.0115 (at node 13)
Accepted flit rate average= 0.00878125
	minimum = 0.006 (at node 5)
	maximum = 0.011 (at node 7)
Injected packet length average = 1
Accepted packet length average = 1
Total in-flight flits = 3 (0 measured)
latency change    = 0.0359995
throughput change = 0.0604982
Class 0:
Packet latency average = 19.9351
	minimum = 7
	maximum = 38
Network latency average = 19.9351
	minimum = 7
	maximum = 38
Slowest packet = 119245
Flit latency average = 19.9351
	minimum = 7
	maximum = 38
Slowest flit = 119245
Fragmentation average = 0
	minimum = 0
	maximum = 0
Injected packet rate average = 0.0094375
	minimum = 0.005 (at node 3)
	maximum = 0.016 (at node 14)
Accepted packet rate average = 0.009625
	minimum = 0.006 (at node 2)
	maximum = 0.016 (at node 7)
Injected flit rate average = 0.0094375
	minimum = 0.005 (at node 3)
	maximum = 0.016 (at node 14)
Accepted flit rate average= 0.009625
	minimum = 0.006 (at node 2)
	maximum = 0.016 (at node 7)
Injected packet length average = 1
Accepted packet length average = 1
Total in-flight flits = 0 (0 measured)
latency change    = 0.0182526
throughput change = 0.0876623
Warmed up ...Time used is 3000 cycles
Class 0:
Packet latency average = 19.6897
	minimum = 7
	maximum = 37
Network latency average = 19.6897
	minimum = 7
	maximum = 37
Slowest packet = 119392
Flit latency average = 19.6897
	minimum = 7
	maximum = 37
Slowest flit = 119392
Fragmentation average = 0
	minimum = 0
	maximum = 0
Injected packet rate average = 0.0094375
	minimum = 0.006 (at node 2)
	maximum = 0.013 (at node 9)
Accepted packet rate average = 0.0090625
	minimum = 0.006 (at node 8)
	maximum = 0.013 (at node 14)
Injected flit rate average = 0.0094375
	minimum = 0.006 (at node 2)
	maximum = 0.013 (at node 9)
Accepted flit rate average= 0.0090625
	minimum = 0.006 (at node 8)
	maximum = 0.013 (at node 14)
Injected packet length average = 1
Accepted packet length average = 1
Total in-flight flits = 6 (6 measured)
latency change    = 0.0124639
throughput change = 0.062069
Class 0:
Packet latency average = 19.9038
	minimum = 7
	maximum = 37
Network latency average = 19.9038
	minimum = 7
	maximum = 37
Slowest packet = 119392
Flit latency average = 19.9038
	minimum = 7
	maximum = 37
Slowest flit = 119392
Fragmentation average = 0
	minimum = 0
	maximum = 0
Injected packet rate average = 0.00984375
	minimum = 0.0055 (at node 14)
	maximum = 0.015 (at node 7)
Accepted packet rate average = 0.00975
	minimum = 0.0055 (at node 11)
	maximum = 0.015 (at node 13)
Injected flit rate average = 0.00984375
	minimum = 0.0055 (at node 14)
	maximum = 0.015 (at node 7)
Accepted flit rate average= 0.00975
	minimum = 0.0055 (at node 11)
	maximum = 0.015 (at node 13)
Injected packet length average = 1
Accepted packet length average = 1
Total in-flight flits = 3 (3 measured)
latency change    = 0.0107613
throughput change = 0.0705128
Class 0:
Packet latency average = 20.1414
	minimum = 7
	maximum = 38
Network latency average = 20.1414
	minimum = 7
	maximum = 38
Slowest packet = 119813
Flit latency average = 20.1414
	minimum = 7
	maximum = 38
Slowest flit = 119813
Fragmentation average = 0
	minimum = 0
	maximum = 0
Injected packet rate average = 0.0100833
	minimum = 0.00766667 (at node 0)
	maximum = 0.0143333 (at node 7)
Accepted packet rate average = 0.0100208
	minimum = 0.00766667 (at node 0)
	maximum = 0.0143333 (at node 13)
Injected flit rate average = 0.0100833
	minimum = 0.00766667 (at node 0)
	maximum = 0.0143333 (at node 7)
Accepted flit rate average= 0.0100208
	minimum = 0.00766667 (at node 0)
	maximum = 0.0143333 (at node 13)
Injected packet length average = 1
Accepted packet length average = 1
Total in-flight flits = 3 (3 measured)
latency change    = 0.0117929
throughput change = 0.027027
Class 0:
Packet latency average = 19.9048
	minimum = 7
	maximum = 38
Network latency average = 19.9048
	minimum = 7
	maximum = 38
Slowest packet = 119813
Flit latency average = 19.9048
	minimum = 7
	maximum = 38
Slowest flit = 119813
Fragmentation average = 0
	minimum = 0
	maximum = 0
Injected packet rate average = 0.0102188
	minimum = 0.008 (at node 0)
	maximum = 0.01325 (at node 11)
Accepted packet rate average = 0.0101719
	minimum = 0.008 (at node 0)
	maximum = 0.01325 (at node 14)
Injected flit rate average = 0.0102188
	minimum = 0.008 (at node 0)
	maximum = 0.01325 (at node 11)
Accepted flit rate average= 0.0101719
	minimum = 0.008 (at node 0)
	maximum = 0.01325 (at node 14)
Injected packet length average = 1
Accepted packet length average = 1
Total in-flight flits = 3 (3 measured)
latency change    = 0.0118871
throughput change = 0.014849
Class 0:
Packet latency average = 19.9374
	minimum = 7
	maximum = 38
Network latency average = 19.9374
	minimum = 7
	maximum = 38
Slowest packet = 119813
Flit latency average = 19.9374
	minimum = 7
	maximum = 38
Slowest flit = 119813
Fragmentation average = 0
	minimum = 0
	maximum = 0
Injected packet rate average = 0.010225
	minimum = 0.0082 (at node 0)
	maximum = 0.013 (at node 8)
Accepted packet rate average = 0.0101875
	minimum = 0.0082 (at node 0)
	maximum = 0.013 (at node 2)
Injected flit rate average = 0.010225
	minimum = 0.0082 (at node 0)
	maximum = 0.013 (at node 8)
Accepted flit rate average= 0.0101875
	minimum = 0.0082 (at node 0)
	maximum = 0.013 (at node 2)
Injected packet length average = 1
Accepted packet length average = 1
Total in-flight flits = 3 (3 measured)
latency change    = 0.0016382
throughput change = 0.00153374
Draining all recorded packets ...
Draining remaining packets ...
Time taken is 8036 cycles
Class 0:
Packet latency average = 18
	minimum = 7
	maximum = 37
Network latency average = 18
	minimum = 7
	maximum = 37
Slowest packet = 120258
Flit latency average = 18
	minimum = 7
	maximum = 37
Slowest flit = 120258
Fragmentation average = 0
	minimum = 0
	maximum = 0
Injected packet rate average = 0.0106875
	minimum = 0.007 (at node 7)
	maximum = 0.019 (at node 4)
Accepted packet rate average = 0.0101875
	minimum = 0.005 (at node 3)
	maximum = 0.018 (at node 1)
Injected flit rate average = 0.0106875
	minimum = 0.007 (at node 7)
	maximum = 0.019 (at node 4)
Accepted flit rate average= 0.0101875
	minimum = 0.005 (at node 3)
	maximum = 0.018 (at node 1)
Injected packet length average = 1
Accepted packet length average = 1
Total in-flight flits = 8 (0 measured)
latency change    = 1
throughput change = 1
Class 0:
Packet latency average = 18.396
	minimum = 7
	maximum = 37
Network latency average = 18.396
	minimum = 7
	maximum = 37
Slowest packet = 120258
Flit latency average = 18.396
	minimum = 7
	maximum = 37
Slowest flit = 120258
Fragmentation average = 0
	minimum = 0
	maximum = 0
Injected packet rate average = 0.0108437
	minimum = 0.007 (at node 7)
	maximum = 0.0145 (at node 4)
Accepted packet rate average = 0.0108125
	minimum = 0.007 (at node 13)
	maximum = 0.0145 (at node 1)
Injected flit rate average = 0.0108437
	minimum = 0.007 (at node 7)
	maximum = 0.0145 (at node 4)
Accepted flit rate average= 0.0108125
	minimum = 0.007 (at node 13)
	maximum = 0.0145 (at node 1)
Injected packet length average = 1
Accepted packet length average = 1
Total in-flight flits = 1 (0 measured)
latency change    = 0.021524
throughput change = 0.0578035
Class 0:
Packet latency average = 18.7576
	minimum = 7
	maximum = 37
Network latency average = 18.7576
	minimum = 7
	maximum = 37
Slowest packet = 120568
Flit latency average = 18.7576
	minimum = 7
	maximum = 37
Slowest flit = 120568
Fragmentation average = 0
	minimum = 0
	maximum = 0
Injected packet rate average = 0.010375
	minimum = 0.006 (at node 12)
	maximum = 0.017 (at node 2)
Accepted packet rate average = 0.0103125
	minimum = 0.005 (at node 3)
	maximum = 0.017 (at node 8)
Injected flit rate average = 0.010375
	minimum = 0.006 (at node 12)
	maximum = 0.017 (at node 2)
Accepted flit rate average= 0.0103125
	minimum = 0.005 (at node 3)
	maximum = 0.017 (at node 8)
Injected packet length average = 1
Accepted packet length average = 1
Total in-flight flits = 2 (0 measured)
latency change    = 0.0192787
throughput change = 0.0484848
Warmed up ...Time used is 3000 cycles
Class 0:
Packet latency average = 19.2078
	minimum = 7
	maximum = 37
Network latency average = 19.2078
	minimum = 7
	maximum = 37
Slowest packet = 120739
Flit latency average = 19.3718
	minimum = 7
	maximum = 37
Slowest flit = 120723
Fragmentation average = 0
	minimum = 0
	maximum = 0
Injected packet rate average = 0.00975
	minimum = 0.004 (at node 3)
	maximum = 0.016 (at node 1)
Accepted packet rate average = 0.00975
	minimum = 0.004 (at node 12)
	maximum = 0.016 (at node 4)
Injected flit rate average = 0.00975
	minimum = 0.004 (at node 3)
	maximum = 0.016 (at node 1)
Accepted flit rate average= 0.00975
	minimum = 0.004 (at node 12)
	maximum = 0.016 (at node 4)
Injected packet length average = 1
Accepted packet length average = 1
Total in-flight flits = 2 (2 measured)
latency change    = 0.0234393
throughput change = 0.0576923
Class 0:
Packet latency average = 19.5487
	minimum = 7
	maximum = 38
Network latency average = 19.5487
	minimum = 7
	maximum = 38
Slowest packet = 120916
Flit latency average = 19.629
	minimum = 7
	maximum = 38
Slowest flit = 120916
Fragmentation average = 0
	minimum = 0
	maximum = 0
Injected packet rate average = 0.0096875
	minimum = 0.006 (at node 3)
	maximum = 0.0145 (at node 1)
Accepted packet rate average = 0.0096875
	minimum = 0.006 (at node 12)
	maximum = 0.014 (at node 4)
Injected flit rate average = 0.0096875
	minimum = 0.006 (at node 3)
	maximum = 0.0145 (at node 1)
Accepted flit rate average= 0.0096875
	minimum = 0.006 (at node 12)
	maximum = 0.014 (at node 4)
Injected packet length average = 1
Accepted packet length average = 1
Total in-flight flits = 2 (2 measured)
latency change    = 0.017439
throughput change = 0.00645161
Class 0:
Packet latency average = 19.3052
	minimum = 7
	maximum = 38
Network latency average = 19.3052
	minimum = 7
	maximum = 38
Slowest packet = 120916
Flit latency average = 19.3599
	minimum = 7
	maximum = 38
Slowest flit = 120916
Fragmentation average = 0
	minimum = 0
	maximum = 0
Injected packet rate average = 0.00972917
	minimum = 0.00633333 (at node 3)
	maximum = 0.0146667 (at node 1)
Accepted packet rate average = 0.00966667
	minimum = 0.006 (at node 12)
	maximum = 0.014 (at node 4)
Injected flit rate average = 0.00972917
	minimum = 0.00633333 (at node 3)
	maximum = 0.0146667 (at node 1)
Accepted flit rate average= 0.00966667
	minimum = 0.006 (at node 12)
	maximum = 0.014 (at node 4)
Injected packet length average = 1
Accepted packet length average = 1
Total in-flight flits = 5 (5 measured)
latency change    = 0.0126135
throughput change = 0.00215517
Class 0:
Packet latency average = 19.6414
	minimum = 7
	maximum = 38
Network latency average = 19.6414
	minimum = 7
	maximum = 38
Slowest packet = 120916
Flit latency average = 19.6812
	minimum = 7
	maximum = 38
Slowest flit = 120916
Fragmentation average = 0
	minimum = 0
	maximum = 0
Injected packet rate average = 0.00970312
	minimum = 0.00725 (at node 9)
	maximum = 0.0145 (at node 1)
Accepted packet rate average = 0.00970312
	minimum = 0.007 (at node 6)
	maximum = 0.0145 (at node 4)
Injected flit rate average = 0.00970312
	minimum = 0.00725 (at node 9)
	maximum = 0.0145 (at node 1)
Accepted flit rate average= 0.00970312
	minimum = 0.007 (at node 6)
	maximum = 0.0145 (at node 4)
Injected packet length average = 1
Accepted packet length average = 1
Total in-flight flits = 2 (2 measured)
latency change    = 0.017115
throughput change = 0.00375738
Draining all recorded packets ...
Draining remaining packets ...
Time taken is 7049 cycles
====== Overall Traffic Statistics ======
====== Traffic class 0 ======
Packet latency average = 19.52 (100 samples)
	minimum = 7 (100 samples)
	maximum = 39.54 (100 samples)
Network latency average = 19.52 (100 samples)
	minimum = 7 (100 samples)
	maximum = 39.54 (100 samples)
Flit latency average = 19.5418 (100 samples)
	minimum = 7 (100 samples)
	maximum = 39.54 (100 samples)
Fragmentation average = 0 (100 samples)
	minimum = 0 (100 samples)
	maximum = 0 (100 samples)
Injected packet rate average = 0.0100172 (100 samples)
	minimum = 0.007529 (100 samples)
	maximum = 0.012712 (100 samples)
Accepted packet rate average = 0.0100179 (100 samples)
	minimum = 0.0075225 (100 samples)
	maximum = 0.0127137 (100 samples)
Injected flit rate average = 0.0100172 (100 samples)
	minimum = 0.007529 (100 samples)
	maximum = 0.012712 (100 samples)
Accepted flit rate average = 0.0100179 (100 samples)
	minimum = 0.0075225 (100 samples)
	maximum = 0.0127137 (100 samples)
Injected packet size average = 1 (100 samples)
Accepted packet size average = 1 (100 samples)
Hops average = 3.50052 (100 samples)
Total run time 8.893
