BEGIN Configuration File: /tmp/tmp_inedu0w.cfg
topology = mesh;
k = 4;
n = 2;
routing_function = romm;
num_vcs = 4;
vc_buf_size = 4;
wait_for_tail_credit = 1;
vc_allocator = islip;
sw_allocator = islip;
alloc_iters = 1;
credit_delay = 2;
routing_delay = 1;
vc_alloc_delay = 1;
sw_alloc_delay = 1;
input_speedup = 2;
output_speedup = 1;
internal_speedup = 1.0;
traffic = uniform;
packet_size = 1;
sim_type = latency;
injection_rate = 0.02;
warmup_periods = 3;
sample_period = 1000;
sim_count = 100;
seed = 3;

END Configuration File: /tmp/tmp_inedu0w.cfg
Class 0:
Packet latency average = 19.5132
	minimum = 7
	maximum = 37
Network latency average = 19.5132
	minimum = 7
	maximum = 37
Slowest packet = 91
Flit latency average = 19.5132
	minimum = 7
	maximum = 37
Slowest flit = 91
Fragmentation average = 0
	minimum = 0
	maximum = 0
Injected packet rate average = 0.0194375
	minimum = 0.011 (at node 12)
	maximum = 0.032 (at node 13)
Accepted packet rate average = 0.019
	minimum = 0.012 (at node 12)
	maximum = 0.03 (at node 11)
Injected flit rate average = 0.0194375
	minimum = 0.011 (at node 12)
	maximum = 0.032 (at node 13)
Accepted flit rate average= 0.019
	minimum = 0.012 (at node 12)
	maximum = 0.03 (at node 11)
Injected packet length average = 1
Accepted packet length average = 1
Total in-flight flits = 7 (0 measured)
latency change    = 1
throughput change = 1
Class 0:
Packet latency average = 19.6761
	minimum = 7
	maximum = 37
Network latency average = 19.6761
	minimum = 7
	maximum = 37
Slowest packet = 91
Flit latency average = 19.6761
	minimum = 7
	maximum = 37
Slowest flit = 91
Fragmentation average = 0
	minimum = 0
	maximum = 0
Injected packet rate average = 0.019
	minimum = 0.014 (at node 12)
	maximum = 0.025 (at node 11)
Accepted packet rate average = 0.0188125
	minimum = 0.0145 (at node 10)
	maximum = 0.024 (at node 11)
Injected flit rate average = 0.019
	minimum = 0.014 (at node 12)
	maximum = 0.025 (at node 11)
Accepted flit rate average= 0.0188125
	minimum = 0.0145 (at node 10)
	maximum = 0.024 (at node 11)
Injected packet length average = 1
Accepted packet length average = 1
Total in-flight flits = 6 (0 measured)
latency change    = 0.0082802
throughput change = 0.00996678
Class 0:
Packet latency average = 20.4476
	minimum = 7
	maximum = 37
Network latency average = 20.4476
	minimum = 7
	maximum = 37
Slowest packet = 639
Flit latency average = 20.4476
	minimum = 7
	maximum = 37
Slowest flit = 639
Fragmentation average = 0
	minimum = 0
	maximum = 0
Injected packet rate average = 0.019625
	minimum = 0.013 (at node 9)
	maximum = 0.027 (at node 12)
Accepted packet rate average = 0.0196875
	minimum = 0.013 (at node 6)
	maximum = 0.03 (at node 8)
Injected flit rate average = 0.019625
	minimum = 0.013 (at node 9)
	maximum = 0.027 (at node 12)
Accepted flit rate average= 0.0196875
	minimum = 0.013 (at node 6)
	maximum = 0.03 (at node 8)
Injected packet length average = 1
Accepted packet length average = 1
Total in-flight flits = 5 (0 measured)
latency change    = 0.0377325
throughput change = 0.0444444
Warmed up ...Time used is 3000 cycles
Class 0:
Packet latency average = 19.9764
	minimum = 7
	maximum = 41
Network latency average = 19.9764
	minimum = 7
	maximum = 41
Slowest packet = 1089
Flit latency average = 20.0099
	minimum = 7
	maximum = 41
Slowest flit = 1089
Fragmentation average = 0
	minimum = 0
	maximum = 0
Injected packet rate average = 0.018875
	minimum = 0.01 (at node 2)
	maximum = 0.027 (at node 8)
Accepted packet rate average = 0.018875
	minimum = 0.01 (at node 6)
	maximum = 0.028 (at node 15)
Injected flit rate average = 0.018875
	minimum = 0.01 (at node 2)
	maximum = 0.027 (at node 8)
Accepted flit rate average= 0.018875
	minimum = 0.01 (at node 6)
	maximum = 0.028 (at node 15)
Injected packet length average = 1
Accepted packet length average = 1
Total in-flight flits = 5 (5 measured)
latency change    = 0.0235872
throughput change = 0.0430464
Class 0:
Packet latency average = 19.811
	minimum = 7
	maximum = 41
Network latency average = 19.811
	minimum = 7
	maximum = 41
Slowest packet = 1089
Flit latency average = 19.8275
	minimum = 7
	maximum = 41
Slowest flit = 1089
Fragmentation average = 0
	minimum = 0
	maximum = 0
Injected packet rate average = 0.0207188
	minimum = 0.0155 (at node 2)
	maximum = 0.025 (at node 10)
Accepted packet rate average = 0.0206563
	minimum = 0.015 (at node 1)
	maximum = 0.026 (at node 15)
Injected flit rate average = 0.0207188
	minimum = 0.0155 (at node 2)
	maximum = 0.025 (at node 10)
Accepted flit rate average= 0.0206563
	minimum = 0.015 (at node 1)
	maximum = 0.026 (at node 15)
Injected packet length average = 1
Accepted packet length average = 1
Total in-flight flits = 7 (7 measured)
latency change    = 0.0083517
throughput change = 0.086233
Class 0:
Packet latency average = 19.6274
	minimum = 7
	maximum = 41
Network latency average = 19.6274
	minimum = 7
	maximum = 41
Slowest packet = 1089
Flit latency average = 19.6394
	minimum = 7
	maximum = 41
Slowest flit = 1089
Fragmentation average = 0
	minimum = 0
	maximum = 0
Injected packet rate average = 0.0208125
	minimum = 0.015 (at node 2)
	maximum = 0.0246667 (at node 9)
Accepted packet rate average = 0.020625
	minimum = 0.0173333 (at node 13)
	maximum = 0.025 (at node 8)
Injected flit rate average = 0.0208125
	minimum = 0.015 (at node 2)
	maximum = 0.0246667 (at node 9)
Accepted flit rate average= 0.020625
	minimum = 0.0173333 (at node 13)
	maximum = 0.025 (at node 8)
Injected packet length average = 1
Accepted packet length average = 1
Total in-flight flits = 14 (14 measured)
latency change    = 0.00935245
throughput change = 0.00151515
Class 0:
Packet latency average = 19.6748
	minimum = 7
	maximum = 41
Network latency average = 19.6748
	minimum = 7
	maximum = 41
Slowest packet = 1089
Flit latency average = 19.6837
	minimum = 7
	maximum = 41
Slowest flit = 1089
Fragmentation average = 0
	minimum = 0
	maximum = 0
Injected packet rate average = 0.0204531
	minimum = 0.01625 (at node 3)
	maximum = 0.02375 (at node 10)
Accepted packet rate average = 0.0204531
	minimum = 0.0175 (at node 13)
	maximum = 0.0245 (at node 2)
Injected flit rate average = 0.0204531
	minimum = 0.01625 (at node 3)
	maximum = 0.02375 (at node 10)
Accepted flit rate average= 0.0204531
	minimum = 0.0175 (at node 13)
	maximum = 0.0245 (at node 2)
Injected packet length average = 1
Accepted packet length average = 1
Total in-flight flits = 5 (5 measured)
latency change    = 0.00241097
throughput change = 0.00840336
Class 0:
Packet latency average = 19.6457
	minimum = 7
	maximum = 41
Network latency average = 19.6457
	minimum = 7
	maximum = 41
Slowest packet = 1089
Flit latency average = 19.6529
	minimum = 7
	maximum = 41
Slowest flit = 1089
Fragmentation average = 0
	minimum = 0
	maximum = 0
Injected packet rate average = 0.020575
	minimum = 0.0166 (at node 3)
	maximum = 0.0234 (at node 5)
Accepted packet rate average = 0.0205625
	minimum = 0.0176 (at node 10)
	maximum = 0.0232 (at node 3)
Injected flit rate average = 0.020575
	minimum = 0.0166 (at node 3)
	maximum = 0.0234 (at node 5)
Accepted flit rate average= 0.0205625
	minimum = 0.0176 (at node 10)
	maximum = 0.0232 (at node 3)
Injected packet length average = 1
Accepted packet length average = 1
Total in-flight flits = 6 (6 measured)
latency change    = 0.001482
throughput change = 0.00531915
Draining all recorded packets ...
Draining remaining packets ...
Time taken is 8049 cycles
Class 0:
Packet latency average = 19.06
	minimum = 7
	maximum = 42
Network latency average = 19.06
	minimum = 7
	maximum = 42
Slowest packet = 2777
Flit latency average = 19.06
	minimum = 7
	maximum = 42
Slowest flit = 2777
Fragmentation average = 0
	minimum = 0
	maximum = 0
Injected packet rate average = 0.0221875
	minimum = 0.01 (at node 8)
	maximum = 0.029 (at node 6)
Accepted packet rate average = 0.021875
	minimum = 0.016 (at node 3)
	maximum = 0.032 (at node 0)
Injected flit rate average = 0.0221875
	minimum = 0.01 (at node 8)
	maximum = 0.029 (at node 6)
Accepted flit rate average= 0.021875
	minimum = 0.016 (at node 3)
	maximum = 0.032 (at node 0)
Injected packet length average = 1
Accepted packet length average = 1
Total in-flight flits = 5 (0 measured)
latency change    = 1
throughput change = 1
Class 0:
Packet latency average = 19.2855
	minimum = 7
	maximum = 42
Network latency average = 19.2855
	minimum = 7
	maximum = 42
Slowest packet = 2777
Flit latency average = 19.2855
	minimum = 7
	maximum = 42
Slowest flit = 2777
Fragmentation average = 0
	minimum = 0
	maximum = 0
Injected packet rate average = 0.0213438
	minimum = 0.013 (at node 8)
	maximum = 0.0245 (at node 2)
Accepted packet rate average = 0.021125
	minimum = 0.0155 (at node 1)
	maximum = 0.028 (at node 6)
Injected flit rate average = 0.0213438
	minimum = 0.013 (at node 8)
	maximum = 0.0245 (at node 2)
Accepted flit rate average= 0.021125
	minimum = 0.0155 (at node 1)
	maximum = 0.028 (at node 6)
Injected packet length average = 1
Accepted packet length average = 1
Total in-flight flits = 7 (0 measured)
latency change    = 0.0116929
throughput change = 0.035503
Class 0:
Packet latency average = 19.2704
	minimum = 7
	maximum = 37
Network latency average = 19.2704
	minimum = 7
	maximum = 37
Slowest packet = 3261
Flit latency average = 19.2704
	minimum = 7
	maximum = 37
Slowest flit = 3261
Fragmentation average = 0
	minimum = 0
	maximum = 0
Injected packet rate average = 0.0199375
	minimum = 0.013 (at node 1)
	maximum = 0.028 (at node 14)
Accepted packet rate average = 0.019875
	minimum = 0.013 (at node 2)
	maximum = 0.029 (at node 9)
Injected flit rate average = 0.0199375
	minimum = 0.013 (at node 1)
	maximum = 0.028 (at node 14)
Accepted flit rate average= 0.019875
	minimum = 0.013 (at node 2)
	maximum = 0.029 (at node 9)
Injected packet length average = 1
Accepted packet length average = 1
Total in-flight flits = 8 (0 measured)
latency change    = 0.000781648
throughput change = 0.0628931
Warmed up ...Time used is 3000 cycles
Class 0:
Packet latency average = 20.493
	minimum = 7
	maximum = 37
Network latency average = 20.493
	minimum = 7
	maximum = 37
Slowest packet = 3618
Flit latency average = 20.568
	minimum = 7
	maximum = 37
Slowest flit = 3569
Fragmentation average = 0
	minimum = 0
	maximum = 0
Injected packet rate average = 0.01825
	minimum = 0.014 (at node 2)
	maximum = 0.027 (at node 1)
Accepted packet rate average = 0.018375
	minimum = 0.008 (at node 6)
	maximum = 0.025 (at node 4)
Injected flit rate average = 0.01825
	minimum = 0.014 (at node 2)
	maximum = 0.027 (at node 1)
Accepted flit rate average= 0.018375
	minimum = 0.008 (at node 6)
	maximum = 0.025 (at node 4)
Injected packet length average = 1
Accepted packet length average = 1
Total in-flight flits = 6 (6 measured)
latency change    = 0.0596578
throughput change = 0.0816327
Class 0:
Packet latency average = 20.2968
	minimum = 7
	maximum = 37
Network latency average = 20.2968
	minimum = 7
	maximum = 37
Slowest packet = 3618
Flit latency average = 20.3344
	minimum = 7
	maximum = 37
Slowest flit = 3569
Fragmentation average = 0
	minimum = 0
	maximum = 0
Injected packet rate average = 0.0195625
	minimum = 0.015 (at node 14)
	maximum = 0.0265 (at node 1)
Accepted packet rate average = 0.019625
	minimum = 0.015 (at node 6)
	maximum = 0.0255 (at node 4)
Injected flit rate average = 0.0195625
	minimum = 0.015 (at node 14)
	maximum = 0.0265 (at node 1)
Accepted flit rate average= 0.019625
	minimum = 0.015 (at node 6)
	maximum = 0.0255 (at node 4)
Injected packet length average = 1
Accepted packet length average = 1
Total in-flight flits = 6 (6 measured)
latency change    = 0.00966818
throughput change = 0.0636943
Class 0:
Packet latency average = 19.9255
	minimum = 7
	maximum = 37
Network latency average = 19.9255
	minimum = 7
	maximum = 37
Slowest packet = 3618
Flit latency average = 19.9528
	minimum = 7
	maximum = 37
Slowest flit = 3569
Fragmentation average = 0
	minimum = 0
	maximum = 0
Injected packet rate average = 0.0201875
	minimum = 0.017 (at node 10)
	maximum = 0.0246667 (at node 1)
Accepted packet rate average = 0.0203125
	minimum = 0.0163333 (at node 12)
	maximum = 0.024 (at node 10)
Injected flit rate average = 0.0201875
	minimum = 0.017 (at node 10)
	maximum = 0.0246667 (at node 1)
Accepted flit rate average= 0.0203125
	minimum = 0.0163333 (at node 12)
	maximum = 0.024 (at node 10)
Injected packet length average = 1
Accepted packet length average = 1
Total in-flight flits = 2 (2 measured)
latency change    = 0.0186309
throughput change = 0.0338462
Class 0:
Packet latency average = 19.9341
	minimum = 7
	maximum = 37
Network latency average = 19.9341
	minimum = 7
	maximum = 37
Slowest packet = 3618
Flit latency average = 19.9548
	minimum = 7
	maximum = 37
Slowest flit = 3569
Fragmentation average = 0
	minimum = 0
	maximum = 0
Injected packet rate average = 0.0200625
	minimum = 0.01575 (at node 13)
	maximum = 0.02475 (at node 5)
Accepted packet rate average = 0.0200469
	minimum = 0.0155 (at node 6)
	maximum = 0.02325 (at node 11)
Injected flit rate average = 0.0200625
	minimum = 0.01575 (at node 13)
	maximum = 0.02475 (at node 5)
Accepted flit rate average= 0.0200469
	minimum = 0.0155 (at node 6)
	maximum = 0.02325 (at node 11)
Injected packet length average = 1
Accepted packet length average = 1
Total in-flight flits = 9 (9 measured)
latency change    = 0.000430154
throughput change = 0.0132502
Class 0:
Packet latency average = 19.874
	minimum = 7
	maximum = 38
Network latency average = 19.874
	minimum = 7
	maximum = 38
Slowest packet = 5129
Flit latency average = 19.8908
	minimum = 7
	maximum = 38
Slowest flit = 5129
Fragmentation average = 0
	minimum = 0
	maximum = 0
Injected packet rate average = 0.020025
	minimum = 0.017 (at node 11)
	maximum = 0.024 (at node 1)
Accepted packet rate average = 0.0200375
	minimum = 0.0152 (at node 6)
	maximum = 0.023 (at node 0)
Injected flit rate average = 0.020025
	minimum = 0.017 (at node 11)
	maximum = 0.024 (at node 1)
Accepted flit rate average= 0.0200375
	minimum = 0.0152 (at node 6)
	maximum = 0.023 (at node 0)
Injected packet length average = 1
Accepted packet length average = 1
Total in-flight flits = 7 (7 measured)
latency change    = 0.00302589
throughput change = 0.000467873
Draining all recorded packets ...
Draining remaining packets ...
Time taken is 8048 cycles
Class 0:
Packet latency average = 19.66
	minimum = 7
	maximum = 38
Network latency average = 19.66
	minimum = 7
	maximum = 38
Slowest packet = 5453
Flit latency average = 19.66
	minimum = 7
	maximum = 38
Slowest flit = 5453
Fragmentation average = 0
	minimum = 0
	maximum = 0
Injected packet rate average = 0.0221875
	minimum = 0.013 (at node 5)
	maximum = 0.03 (at node 11)
Accepted packet rate average = 0.021875
	minimum = 0.014 (at node 5)
	maximum = 0.031 (at node 9)
Injected flit rate average = 0.0221875
	minimum = 0.013 (at node 5)
	maximum = 0.03 (at node 11)
Accepted flit rate average= 0.021875
	minimum = 0.014 (at node 5)
	maximum = 0.031 (at node 9)
Injected packet length average = 1
Accepted packet length average = 1
Total in-flight flits = 5 (0 measured)
latency change    = 1
throughput change = 1
Class 0:
Packet latency average = 19.6773
	minimum = 7
	maximum = 38
Network latency average = 19.6773
	minimum = 7
	maximum = 38
Slowest packet = 5453
Flit latency average = 19.6773
	minimum = 7
	maximum = 38
Slowest flit = 5453
Fragmentation average = 0
	minimum = 0
	maximum = 0
Injected packet rate average = 0.02075
	minimum = 0.0145 (at node 5)
	maximum = 0.0285 (at node 11)
Accepted packet rate average = 0.0205313
	minimum = 0.0145 (at node 6)
	maximum = 0.025 (at node 9)
Injected flit rate average = 0.02075
	minimum = 0.0145 (at node 5)
	maximum = 0.0285 (at node 11)
Accepted flit rate average= 0.0205313
	minimum = 0.0145 (at node 6)
	maximum = 0.025 (at node 9)
Injected packet length average = 1
Accepted packet length average = 1
Total in-flight flits = 7 (0 measured)
latency change    = 0.00088026
throughput change = 0.065449
Class 0:
Packet latency average = 19.1157
	minimum = 7
	maximum = 38
Network latency average = 19.1157
	minimum = 7
	maximum = 38
Slowest packet = 5892
Flit latency average = 19.1157
	minimum = 7
	maximum = 38
Slowest flit = 5892
Fragmentation average = 0
	minimum = 0
	maximum = 0
Injected packet rate average = 0.021
	minimum = 0.014 (at node 9)
	maximum = 0.027 (at node 3)
Accepted packet rate average = 0.0210625
	minimum = 0.01 (at node 9)
	maximum = 0.03 (at node 11)
Injected flit rate average = 0.021
	minimum = 0.014 (at node 9)
	maximum = 0.027 (at node 3)
Accepted flit rate average= 0.0210625
	minimum = 0.01 (at node 9)
	maximum = 0.03 (at node 11)
Injected packet length average = 1
Accepted packet length average = 1
Total in-flight flits = 6 (0 measured)
latency change    = 0.0293786
throughput change = 0.0252226
Warmed up ...Time used is 3000 cycles
Class 0:
Packet latency average = 18.9514
	minimum = 7
	maximum = 37
Network latency average = 18.9514
	minimum = 7
	maximum = 37
Slowest packet = 6303
Flit latency average = 19.006
	minimum = 7
	maximum = 37
Slowest flit = 6303
Fragmentation average = 0
	minimum = 0
	maximum = 0
Injected packet rate average = 0.020875
	minimum = 0.015 (at node 1)
	maximum = 0.032 (at node 5)
Accepted packet rate average = 0.0209375
	minimum = 0.016 (at node 7)
	maximum = 0.031 (at node 5)
Injected flit rate average = 0.020875
	minimum = 0.015 (at node 1)
	maximum = 0.032 (at node 5)
Accepted flit rate average= 0.0209375
	minimum = 0.016 (at node 7)
	maximum = 0.031 (at node 5)
Injected packet length average = 1
Accepted packet length average = 1
Total in-flight flits = 5 (5 measured)
latency change    = 0.00867268
throughput change = 0.00597015
Class 0:
Packet latency average = 19.2372
	minimum = 7
	maximum = 38
Network latency average = 19.2372
	minimum = 7
	maximum = 38
Slowest packet = 6605
Flit latency average = 19.2619
	minimum = 7
	maximum = 38
Slowest flit = 6605
Fragmentation average = 0
	minimum = 0
	maximum = 0
Injected packet rate average = 0.021
	minimum = 0.017 (at node 15)
	maximum = 0.0255 (at node 5)
Accepted packet rate average = 0.021
	minimum = 0.015 (at node 0)
	maximum = 0.029 (at node 5)
Injected flit rate average = 0.021
	minimum = 0.017 (at node 15)
	maximum = 0.0255 (at node 5)
Accepted flit rate average= 0.021
	minimum = 0.015 (at node 0)
	maximum = 0.029 (at node 5)
Injected packet length average = 1
Accepted packet length average = 1
Total in-flight flits = 6 (6 measured)
latency change    = 0.0148602
throughput change = 0.00297619
Class 0:
Packet latency average = 19.4483
	minimum = 7
	maximum = 38
Network latency average = 19.4483
	minimum = 7
	maximum = 38
Slowest packet = 6605
Flit latency average = 19.4636
	minimum = 7
	maximum = 38
Slowest flit = 6605
Fragmentation average = 0
	minimum = 0
	maximum = 0
Injected packet rate average = 0.0208333
	minimum = 0.0183333 (at node 2)
	maximum = 0.0243333 (at node 5)
Accepted packet rate average = 0.0208958
	minimum = 0.0163333 (at node 0)
	maximum = 0.027 (at node 5)
Injected flit rate average = 0.0208333
	minimum = 0.0183333 (at node 2)
	maximum = 0.0243333 (at node 5)
Accepted flit rate average= 0.0208958
	minimum = 0.0163333 (at node 0)
	maximum = 0.027 (at node 5)
Injected packet length average = 1
Accepted packet length average = 1
Total in-flight flits = 3 (3 measured)
latency change    = 0.0108548
throughput change = 0.00498504
Draining all recorded packets ...
Draining remaining packets ...
Time taken is 6024 cycles
Class 0:
Packet latency average = 20.1852
	minimum = 7
	maximum = 37
Network latency average = 20.1852
	minimum = 7
	maximum = 37
Slowest packet = 7255
Flit latency average = 20.1852
	minimum = 7
	maximum = 37
Slowest flit = 7255
Fragmentation average = 0
	minimum = 0
	maximum = 0
Injected packet rate average = 0.020625
	minimum = 0.014 (at node 7)
	maximum = 0.028 (at node 9)
Accepted packet rate average = 0.02025
	minimum = 0.014 (at node 0)
	maximum = 0.026 (at node 1)
Injected flit rate average = 0.020625
	minimum = 0.014 (at node 7)
	maximum = 0.028 (at node 9)
Accepted flit rate average= 0.02025
	minimum = 0.014 (at node 0)
	maximum = 0.026 (at node 1)
Injected packet length average = 1
Accepted packet length average = 1
Total in-flight flits = 6 (0 measured)
latency change    = 1
throughput change = 1
Class 0:
Packet latency average = 19.7021
	minimum = 7
	maximum = 37
Network latency average = 19.7021
	minimum = 7
	maximum = 37
Slowest packet = 7255
Flit latency average = 19.7021
	minimum = 7
	maximum = 37
Slowest flit = 7255
Fragmentation average = 0
	minimum = 0
	maximum = 0
Injected packet rate average = 0.0206563
	minimum = 0.0145 (at node 7)
	maximum = 0.03 (at node 2)
Accepted packet rate average = 0.0205625
	minimum = 0.015 (at node 0)
	maximum = 0.0255 (at node 1)
Injected flit rate average = 0.0206563
	minimum = 0.0145 (at node 7)
	maximum = 0.03 (at node 2)
Accepted flit rate average= 0.0205625
	minimum = 0.015 (at node 0)
	maximum = 0.0255 (at node 1)
Injected packet length average = 1
Accepted packet length average = 1
Total in-flight flits = 3 (0 measured)
latency change    = 0.024518
throughput change = 0.0151976
Class 0:
Packet latency average = 19.3925
	minimum = 7
	maximum = 37
Network latency average = 19.3925
	minimum = 7
	maximum = 37
Slowest packet = 7927
Flit latency average = 19.3925
	minimum = 7
	maximum = 37
Slowest flit = 7927
Fragmentation average = 0
	minimum = 0
	maximum = 0
Injected packet rate average = 0.020125
	minimum = 0.011 (at node 10)
	maximum = 0.026 (at node 12)
Accepted packet rate average = 0.0200625
	minimum = 0.01 (at node 13)
	maximum = 0.025 (at node 1)
Injected flit rate average = 0.020125
	minimum = 0.011 (at node 10)
	maximum = 0.026 (at node 12)
Accepted flit rate average= 0.0200625
	minimum = 0.01 (at node 13)
	maximum = 0.025 (at node 1)
Injected packet length average = 1
Accepted packet length average = 1
Total in-flight flits = 4 (0 measured)
latency change    = 0.0159651
throughput change = 0.0249221
Warmed up ...Time used is 3000 cycles
Class 0:
Packet latency average = 19.5227
	minimum = 7
	maximum = 37
Network latency average = 19.5227
	minimum = 7
	maximum = 37
Slowest packet = 8271
Flit latency average = 19.6026
	minimum = 7
	maximum = 37
Slowest flit = 8162
Fragmentation average = 0
	minimum = 0
	maximum = 0
Injected packet rate average = 0.019625
	minimum = 0.015 (at node 1)
	maximum = 0.023 (at node 3)
Accepted packet rate average = 0.0195
	minimum = 0.014 (at node 11)
	maximum = 0.029 (at node 1)
Injected flit rate average = 0.019625
	minimum = 0.015 (at node 1)
	maximum = 0.023 (at node 3)
Accepted flit rate average= 0.0195
	minimum = 0.014 (at node 11)
	maximum = 0.029 (at node 1)
Injected packet length average = 1
Accepted packet length average = 1
Total in-flight flits = 6 (6 measured)
latency change    = 0.00666935
throughput change = 0.0288462
Class 0:
Packet latency average = 19.7741
	minimum = 7
	maximum = 37
Network latency average = 19.7741
	minimum = 7
	maximum = 37
Slowest packet = 8271
Flit latency average = 19.8099
	minimum = 7
	maximum = 37
Slowest flit = 8162
Fragmentation average = 0
	minimum = 0
	maximum = 0
Injected packet rate average = 0.0209063
	minimum = 0.0145 (at node 1)
	maximum = 0.025 (at node 7)
Accepted packet rate average = 0.020875
	minimum = 0.0175 (at node 6)
	maximum = 0.025 (at node 1)
Injected flit rate average = 0.0209063
	minimum = 0.0145 (at node 1)
	maximum = 0.025 (at node 7)
Accepted flit rate average= 0.020875
	minimum = 0.0175 (at node 6)
	maximum = 0.025 (at node 1)
Injected packet length average = 1
Accepted packet length average = 1
Total in-flight flits = 5 (5 measured)
latency change    = 0.012712
throughput change = 0.0658683
Class 0:
Packet latency average = 19.9087
	minimum = 7
	maximum = 39
Network latency average = 19.9087
	minimum = 7
	maximum = 39
Slowest packet = 8968
Flit latency average = 19.9323
	minimum = 7
	maximum = 39
Slowest flit = 8968
Fragmentation average = 0
	minimum = 0
	maximum = 0
Injected packet rate average = 0.0206875
	minimum = 0.0146667 (at node 1)
	maximum = 0.024 (at node 7)
Accepted packet rate average = 0.020625
	minimum = 0.0163333 (at node 6)
	maximum = 0.0256667 (at node 13)
Injected flit rate average = 0.0206875
	minimum = 0.0146667 (at node 1)
	maximum = 0.024 (at node 7)
Accepted flit rate average= 0.020625
	minimum = 0.0163333 (at node 6)
	maximum = 0.0256667 (at node 13)
Injected packet length average = 1
Accepted packet length average = 1
Total in-flight flits = 7 (7 measured)
latency change    = 0.00676215
throughput change = 0.0121212
Class 0:
Packet latency average = 19.6162
	minimum = 7
	maximum = 39
Network latency average = 19.6162
	minimum = 7
	maximum = 39
Slowest packet = 8968
Flit latency average = 19.6352
	minimum = 7
	maximum = 39
Slowest flit = 8968
Fragmentation average = 0
	minimum = 0
	maximum = 0
Injected packet rate average = 0.0201719
	minimum = 0.015 (at node 1)
	maximum = 0.02275 (at node 8)
Accepted packet rate average = 0.0201719
	minimum = 0.01725 (at node 11)
	maximum = 0.02575 (at node 13)
Injected flit rate average = 0.0201719
	minimum = 0.015 (at node 1)
	maximum = 0.02275 (at node 8)
Accepted flit rate average= 0.0201719
	minimum = 0.01725 (at node 11)
	maximum = 0.02575 (at node 13)
Injected packet length average = 1
Accepted packet length average = 1
Total in-flight flits = 4 (4 measured)
latency change    = 0.0149143
throughput change = 0.0224632
Class 0:
Packet latency average = 19.711
	minimum = 7
	maximum = 44
Network latency average = 19.711
	minimum = 7
	maximum = 44
Slowest packet = 9743
Flit latency average = 19.7261
	minimum = 7
	maximum = 44
Slowest flit = 9743
Fragmentation average = 0
	minimum = 0
	maximum = 0
Injected packet rate average = 0.020025
	minimum = 0.018 (at node 1)
	maximum = 0.0222 (at node 6)
Accepted packet rate average = 0.0199875
	minimum = 0.017 (at node 8)
	maximum = 0.0258 (at node 10)
Injected flit rate average = 0.020025
	minimum = 0.018 (at node 1)
	maximum = 0.0222 (at node 6)
Accepted flit rate average= 0.0199875
	minimum = 0.017 (at node 8)
	maximum = 0.0258 (at node 10)
Injected packet length average = 1
Accepted packet length average = 1
Total in-flight flits = 7 (7 measured)
latency change    = 0.00481002
throughput change = 0.00922452
Draining all recorded packets ...
Draining remaining packets ...
Time taken is 8038 cycles
Class 0:
Packet latency average = 19.8385
	minimum = 7
	maximum = 37
Network latency average = 19.8385
	minimum = 7
	maximum = 37
Slowest packet = 9888
Flit latency average = 19.8385
	minimum = 7
	maximum = 37
Slowest flit = 9888
Fragmentation average = 0
	minimum = 0
	maximum = 0
Injected packet rate average = 0.0204375
	minimum = 0.016 (at node 3)
	maximum = 0.025 (at node 12)
Accepted packet rate average = 0.020125
	minimum = 0.013 (at node 13)
	maximum = 0.025 (at node 10)
Injected flit rate average = 0.0204375
	minimum = 0.016 (at node 3)
	maximum = 0.025 (at node 12)
Accepted flit rate average= 0.020125
	minimum = 0.013 (at node 13)
	maximum = 0.025 (at node 10)
Injected packet length average = 1
Accepted packet length average = 1
Total in-flight flits = 5 (0 measured)
latency change    = 1
throughput change = 1
Class 0:
Packet latency average = 20.1116
	minimum = 7
	maximum = 37
Network latency average = 20.1116
	minimum = 7
	maximum = 37
Slowest packet = 9888
Flit latency average = 20.1116
	minimum = 7
	maximum = 37
Slowest flit = 9888
Fragmentation average = 0
	minimum = 0
	maximum = 0
Injected packet rate average = 0.0197188
	minimum = 0.0155 (at node 3)
	maximum = 0.0255 (at node 12)
Accepted packet rate average = 0.0195938
	minimum = 0.015 (at node 5)
	maximum = 0.0255 (at node 4)
Injected flit rate average = 0.0197188
	minimum = 0.0155 (at node 3)
	maximum = 0.0255 (at node 12)
Accepted flit rate average= 0.0195938
	minimum = 0.015 (at node 5)
	maximum = 0.0255 (at node 4)
Injected packet length average = 1
Accepted packet length average = 1
Total in-flight flits = 4 (0 measured)
latency change    = 0.0135809
throughput change = 0.0271132
Class 0:
Packet latency average = 19.2171
	minimum = 7
	maximum = 37
Network latency average = 19.2171
	minimum = 7
	maximum = 37
Slowest packet = 10431
Flit latency average = 19.2171
	minimum = 7
	maximum = 37
Slowest flit = 10431
Fragmentation average = 0
	minimum = 0
	maximum = 0
Injected packet rate average = 0.019125
	minimum = 0.011 (at node 8)
	maximum = 0.025 (at node 5)
Accepted packet rate average = 0.019
	minimum = 0.013 (at node 8)
	maximum = 0.028 (at node 7)
Injected flit rate average = 0.019125
	minimum = 0.011 (at node 8)
	maximum = 0.025 (at node 5)
Accepted flit rate average= 0.019
	minimum = 0.013 (at node 8)
	maximum = 0.028 (at node 7)
Injected packet length average = 1
Accepted packet length average = 1
Total in-flight flits = 6 (0 measured)
latency change    = 0.046549
throughput change = 0.03125
Warmed up ...Time used is 3000 cycles
Class 0:
Packet latency average = 20.087
	minimum = 7
	maximum = 37
Network latency average = 20.087
	minimum = 7
	maximum = 37
Slowest packet = 10720
Flit latency average = 20.0769
	minimum = 7
	maximum = 37
Slowest flit = 10720
Fragmentation average = 0
	minimum = 0
	maximum = 0
Injected packet rate average = 0.022
	minimum = 0.012 (at node 4)
	maximum = 0.03 (at node 13)
Accepted packet rate average = 0.0219375
	minimum = 0.013 (at node 9)
	maximum = 0.031 (at node 0)
Injected flit rate average = 0.022
	minimum = 0.012 (at node 4)
	maximum = 0.03 (at node 13)
Accepted flit rate average= 0.0219375
	minimum = 0.013 (at node 9)
	maximum = 0.031 (at node 0)
Injected packet length average = 1
Accepted packet length average = 1
Total in-flight flits = 7 (7 measured)
latency change    = 0.0433043
throughput change = 0.133903
Class 0:
Packet latency average = 19.6915
	minimum = 7
	maximum = 37
Network latency average = 19.6915
	minimum = 7
	maximum = 37
Slowest packet = 10720
Flit latency average = 19.6898
	minimum = 7
	maximum = 37
Slowest flit = 10720
Fragmentation average = 0
	minimum = 0
	maximum = 0
Injected packet rate average = 0.0207188
	minimum = 0.016 (at node 3)
	maximum = 0.0265 (at node 1)
Accepted packet rate average = 0.02075
	minimum = 0.015 (at node 5)
	maximum = 0.026 (at node 0)
Injected flit rate average = 0.0207188
	minimum = 0.016 (at node 3)
	maximum = 0.0265 (at node 1)
Accepted flit rate average= 0.02075
	minimum = 0.015 (at node 5)
	maximum = 0.026 (at node 0)
Injected packet length average = 1
Accepted packet length average = 1
Total in-flight flits = 5 (5 measured)
latency change    = 0.0200832
throughput change = 0.0572289
Class 0:
Packet latency average = 19.6387
	minimum = 7
	maximum = 37
Network latency average = 19.6387
	minimum = 7
	maximum = 37
Slowest packet = 10720
Flit latency average = 19.6379
	minimum = 7
	maximum = 37
Slowest flit = 10720
Fragmentation average = 0
	minimum = 0
	maximum = 0
Injected packet rate average = 0.0202708
	minimum = 0.015 (at node 3)
	maximum = 0.0246667 (at node 6)
Accepted packet rate average = 0.02025
	minimum = 0.0146667 (at node 5)
	maximum = 0.024 (at node 0)
Injected flit rate average = 0.0202708
	minimum = 0.015 (at node 3)
	maximum = 0.0246667 (at node 6)
Accepted flit rate average= 0.02025
	minimum = 0.0146667 (at node 5)
	maximum = 0.024 (at node 0)
Injected packet length average = 1
Accepted packet length average = 1
Total in-flight flits = 7 (7 measured)
latency change    = 0.00268719
throughput change = 0.0246914
Class 0:
Packet latency average = 19.6514
	minimum = 7
	maximum = 37
Network latency average = 19.6514
	minimum = 7
	maximum = 37
Slowest packet = 10720
Flit latency average = 19.6507
	minimum = 7
	maximum = 37
Slowest flit = 10720
Fragmentation average = 0
	minimum = 0
	maximum = 0
Injected packet rate average = 0.0202031
	minimum = 0.0155 (at node 3)
	maximum = 0.0235 (at node 6)
Accepted packet rate average = 0.0202188
	minimum = 0.0165 (at node 5)
	maximum = 0.0225 (at node 0)
Injected flit rate average = 0.0202031
	minimum = 0.0155 (at node 3)
	maximum = 0.0235 (at node 6)
Accepted flit rate average= 0.0202188
	minimum = 0.0165 (at node 5)
	maximum = 0.0225 (at node 0)
Injected packet length average = 1
Accepted packet length average = 1
Total in-flight flits = 5 (5 measured)
latency change    = 0.000645306
throughput change = 0.0015456
Class 0:
Packet latency average = 19.5586
	minimum = 7
	maximum = 37
Network latency average = 19.5586
	minimum = 7
	maximum = 37
Slowest packet = 10720
Flit latency average = 19.5584
	minimum = 7
	maximum = 37
Slowest flit = 10720
Fragmentation average = 0
	minimum = 0
	maximum = 0
Injected packet rate average = 0.020675
	minimum = 0.0174 (at node 10)
	maximum = 0.0242 (at node 6)
Accepted packet rate average = 0.0206625
	minimum = 0.0168 (at node 15)
	maximum = 0.0232 (at node 0)
Injected flit rate average = 0.020675
	minimum = 0.0174 (at node 10)
	maximum = 0.0242 (at node 6)
Accepted flit rate average= 0.0206625
	minimum = 0.0168 (at node 15)
	maximum = 0.0232 (at node 0)
Injected packet length average = 1
Accepted packet length average = 1
Total in-flight flits = 7 (7 measured)
latency change    = 0.00474503
throughput change = 0.0214761
Draining all recorded packets ...
Draining remaining packets ...
Time taken is 8049 cycles
Class 0:
Packet latency average = 19.6677
	minimum = 7
	maximum = 39
Network latency average = 19.6677
	minimum = 7
	maximum = 39
Slowest packet = 12542
Flit latency average = 19.6677
	minimum = 7
	maximum = 39
Slowest flit = 12542
Fragmentation average = 0
	minimum = 0
	maximum = 0
Injected packet rate average = 0.020375
	minimum = 0.015 (at node 14)
	maximum = 0.029 (at node 12)
Accepted packet rate average = 0.01975
	minimum = 0.011 (at node 14)
	maximum = 0.028 (at node 12)
Injected flit rate average = 0.020375
	minimum = 0.015 (at node 14)
	maximum = 0.029 (at node 12)
Accepted flit rate average= 0.01975
	minimum = 0.011 (at node 14)
	maximum = 0.028 (at node 12)
Injected packet length average = 1
Accepted packet length average = 1
Total in-flight flits = 10 (0 measured)
latency change    = 1
throughput change = 1
Class 0:
Packet latency average = 19.7205
	minimum = 7
	maximum = 39
Network latency average = 19.7205
	minimum = 7
	maximum = 39
Slowest packet = 12542
Flit latency average = 19.7205
	minimum = 7
	maximum = 39
Slowest flit = 12542
Fragmentation average = 0
	minimum = 0
	maximum = 0
Injected packet rate average = 0.0202188
	minimum = 0.0165 (at node 13)
	maximum = 0.0235 (at node 12)
Accepted packet rate average = 0.020125
	minimum = 0.0125 (at node 14)
	maximum = 0.024 (at node 5)
Injected flit rate average = 0.0202188
	minimum = 0.0165 (at node 13)
	maximum = 0.0235 (at node 12)
Accepted flit rate average= 0.020125
	minimum = 0.0125 (at node 14)
	maximum = 0.024 (at node 5)
Injected packet length average = 1
Accepted packet length average = 1
Total in-flight flits = 3 (0 measured)
latency change    = 0.00267617
throughput change = 0.0186335
Class 0:
Packet latency average = 19.5
	minimum = 7
	maximum = 37
Network latency average = 19.5
	minimum = 7
	maximum = 37
Slowest packet = 13139
Flit latency average = 19.5
	minimum = 7
	maximum = 37
Slowest flit = 13139
Fragmentation average = 0
	minimum = 0
	maximum = 0
Injected packet rate average = 0.0186875
	minimum = 0.012 (at node 4)
	maximum = 0.029 (at node 13)
Accepted packet rate average = 0.01875
	minimum = 0.014 (at node 4)
	maximum = 0.025 (at node 1)
Injected flit rate average = 0.0186875
	minimum = 0.012 (at node 4)
	maximum = 0.029 (at node 13)
Accepted flit rate average= 0.01875
	minimum = 0.014 (at node 4)
	maximum = 0.025 (at node 1)
Injected packet length average = 1
Accepted packet length average = 1
Total in-flight flits = 2 (0 measured)
latency change    = 0.0113075
throughput change = 0.0733333
Warmed up ...Time used is 3000 cycles
Class 0:
Packet latency average = 19.4938
	minimum = 7
	maximum = 37
Network latency average = 19.4938
	minimum = 7
	maximum = 37
Slowest packet = 13336
Flit latency average = 19.4938
	minimum = 7
	maximum = 37
Slowest flit = 13336
Fragmentation average = 0
	minimum = 0
	maximum = 0
Injected packet rate average = 0.0205
	minimum = 0.014 (at node 7)
	maximum = 0.028 (at node 6)
Accepted packet rate average = 0.02025
	minimum = 0.013 (at node 4)
	maximum = 0.029 (at node 0)
Injected flit rate average = 0.0205
	minimum = 0.014 (at node 7)
	maximum = 0.028 (at node 6)
Accepted flit rate average= 0.02025
	minimum = 0.013 (at node 4)
	maximum = 0.029 (at node 0)
Injected packet length average = 1
Accepted packet length average = 1
Total in-flight flits = 6 (6 measured)
latency change    = 0.000318624
throughput change = 0.0740741
Class 0:
Packet latency average = 19.6352
	minimum = 7
	maximum = 37
Network latency average = 19.6352
	minimum = 7
	maximum = 37
Slowest packet = 13336
Flit latency average = 19.6348
	minimum = 7
	maximum = 37
Slowest flit = 13336
Fragmentation average = 0
	minimum = 0
	maximum = 0
Injected packet rate average = 0.0205313
	minimum = 0.0175 (at node 4)
	maximum = 0.026 (at node 6)
Accepted packet rate average = 0.0202813
	minimum = 0.0145 (at node 7)
	maximum = 0.025 (at node 0)
Injected flit rate average = 0.0205313
	minimum = 0.0175 (at node 4)
	maximum = 0.026 (at node 6)
Accepted flit rate average= 0.0202813
	minimum = 0.0145 (at node 7)
	maximum = 0.025 (at node 0)
Injected packet length average = 1
Accepted packet length average = 1
Total in-flight flits = 10 (10 measured)
latency change    = 0.00720392
throughput change = 0.00154083
Class 0:
Packet latency average = 19.4883
	minimum = 7
	maximum = 37
Network latency average = 19.4883
	minimum = 7
	maximum = 37
Slowest packet = 13336
Flit latency average = 19.4883
	minimum = 7
	maximum = 37
Slowest flit = 13336
Fragmentation average = 0
	minimum = 0
	maximum = 0
Injected packet rate average = 0.0205417
	minimum = 0.018 (at node 0)
	maximum = 0.0253333 (at node 10)
Accepted packet rate average = 0.0204792
	minimum = 0.0153333 (at node 7)
	maximum = 0.0243333 (at node 6)
Injected flit rate average = 0.0205417
	minimum = 0.018 (at node 0)
	maximum = 0.0253333 (at node 10)
Accepted flit rate average= 0.0204792
	minimum = 0.0153333 (at node 7)
	maximum = 0.0243333 (at node 6)
Injected packet length average = 1
Accepted packet length average = 1
Total in-flight flits = 5 (5 measured)
latency change    = 0.00754106
throughput change = 0.00966429
Class 0:
Packet latency average = 19.4641
	minimum = 7
	maximum = 37
Network latency average = 19.4641
	minimum = 7
	maximum = 37
Slowest packet = 13336
Flit latency average = 19.4642
	minimum = 7
	maximum = 37
Slowest flit = 13336
Fragmentation average = 0
	minimum = 0
	maximum = 0
Injected packet rate average = 0.0203281
	minimum = 0.01725 (at node 12)
	maximum = 0.02325 (at node 6)
Accepted packet rate average = 0.0202969
	minimum = 0.017 (at node 7)
	maximum = 0.02375 (at node 13)
Injected flit rate average = 0.0203281
	minimum = 0.01725 (at node 12)
	maximum = 0.02325 (at node 6)
Accepted flit rate average= 0.0202969
	minimum = 0.017 (at node 7)
	maximum = 0.02375 (at node 13)
Injected packet length average = 1
Accepted packet length average = 1
Total in-flight flits = 4 (4 measured)
latency change    = 0.00123968
throughput change = 0.00898127
Draining all recorded packets ...
Draining remaining packets ...
Time taken is 7040 cycles
Class 0:
Packet latency average = 19.1331
	minimum = 7
	maximum = 38
Network latency average = 19.1331
	minimum = 7
	maximum = 38
Slowest packet = 14691
Flit latency average = 19.1331
	minimum = 7
	maximum = 38
Slowest flit = 14691
Fragmentation average = 0
	minimum = 0
	maximum = 0
Injected packet rate average = 0.019625
	minimum = 0.013 (at node 11)
	maximum = 0.03 (at node 1)
Accepted packet rate average = 0.01925
	minimum = 0.01 (at node 10)
	maximum = 0.026 (at node 1)
Injected flit rate average = 0.019625
	minimum = 0.013 (at node 11)
	maximum = 0.03 (at node 1)
Accepted flit rate average= 0.01925
	minimum = 0.01 (at node 10)
	maximum = 0.026 (at node 1)
Injected packet length average = 1
Accepted packet length average = 1
Total in-flight flits = 6 (0 measured)
latency change    = 1
throughput change = 1
Class 0:
Packet latency average = 19.5817
	minimum = 7
	maximum = 38
Network latency average = 19.5817
	minimum = 7
	maximum = 38
Slowest packet = 14691
Flit latency average = 19.5817
	minimum = 7
	maximum = 38
Slowest flit = 14691
Fragmentation average = 0
	minimum = 0
	maximum = 0
Injected packet rate average = 0.0198125
	minimum = 0.014 (at node 11)
	maximum = 0.027 (at node 1)
Accepted packet rate average = 0.0195
	minimum = 0.014 (at node 13)
	maximum = 0.027 (at node 11)
Injected flit rate average = 0.0198125
	minimum = 0.014 (at node 11)
	maximum = 0.027 (at node 1)
Accepted flit rate average= 0.0195
	minimum = 0.014 (at node 13)
	maximum = 0.027 (at node 11)
Injected packet length average = 1
Accepted packet length average = 1
Total in-flight flits = 10 (0 measured)
latency change    = 0.0229098
throughput change = 0.0128205
Class 0:
Packet latency average = 19.1775
	minimum = 7
	maximum = 37
Network latency average = 19.1775
	minimum = 7
	maximum = 37
Slowest packet = 15337
Flit latency average = 19.1775
	minimum = 7
	maximum = 37
Slowest flit = 15337
Fragmentation average = 0
	minimum = 0
	maximum = 0
Injected packet rate average = 0.0221875
	minimum = 0.008 (at node 4)
	maximum = 0.031 (at node 11)
Accepted packet rate average = 0.0221875
	minimum = 0.016 (at node 3)
	maximum = 0.029 (at node 14)
Injected flit rate average = 0.0221875
	minimum = 0.008 (at node 4)
	maximum = 0.031 (at node 11)
Accepted flit rate average= 0.0221875
	minimum = 0.016 (at node 3)
	maximum = 0.029 (at node 14)
Injected packet length average = 1
Accepted packet length average = 1
Total in-flight flits = 10 (0 measured)
latency change    = 0.0210803
throughput change = 0.121127
Warmed up ...Time used is 3000 cycles
Class 0:
Packet latency average = 20.179
	minimum = 7
	maximum = 37
Network latency average = 20.179
	minimum = 7
	maximum = 37
Slowest packet = 15908
Flit latency average = 20.2754
	minimum = 7
	maximum = 37
Slowest flit = 15908
Fragmentation average = 0
	minimum = 0
	maximum = 0
Injected packet rate average = 0.0204375
	minimum = 0.013 (at node 10)
	maximum = 0.027 (at node 5)
Accepted packet rate average = 0.020875
	minimum = 0.014 (at node 9)
	maximum = 0.03 (at node 7)
Injected flit rate average = 0.0204375
	minimum = 0.013 (at node 10)
	maximum = 0.027 (at node 5)
Accepted flit rate average= 0.020875
	minimum = 0.014 (at node 9)
	maximum = 0.03 (at node 7)
Injected packet length average = 1
Accepted packet length average = 1
Total in-flight flits = 3 (3 measured)
latency change    = 0.0496331
throughput change = 0.0628743
Class 0:
Packet latency average = 19.718
	minimum = 7
	maximum = 37
Network latency average = 19.718
	minimum = 7
	maximum = 37
Slowest packet = 15908
Flit latency average = 19.7767
	minimum = 7
	maximum = 37
Slowest flit = 15908
Fragmentation average = 0
	minimum = 0
	maximum = 0
Injected packet rate average = 0.0195938
	minimum = 0.014 (at node 10)
	maximum = 0.026 (at node 13)
Accepted packet rate average = 0.0195938
	minimum = 0.017 (at node 14)
	maximum = 0.025 (at node 7)
Injected flit rate average = 0.0195938
	minimum = 0.014 (at node 10)
	maximum = 0.026 (at node 13)
Accepted flit rate average= 0.0195938
	minimum = 0.017 (at node 14)
	maximum = 0.025 (at node 7)
Injected packet length average = 1
Accepted packet length average = 1
Total in-flight flits = 10 (10 measured)
latency change    = 0.0233808
throughput change = 0.0653907
Class 0:
Packet latency average = 19.5181
	minimum = 7
	maximum = 37
Network latency average = 19.5181
	minimum = 7
	maximum = 37
Slowest packet = 15908
Flit latency average = 19.5577
	minimum = 7
	maximum = 37
Slowest flit = 15908
Fragmentation average = 0
	minimum = 0
	maximum = 0
Injected packet rate average = 0.02025
	minimum = 0.0166667 (at node 11)
	maximum = 0.026 (at node 13)
Accepted packet rate average = 0.0203958
	minimum = 0.0176667 (at node 3)
	maximum = 0.0246667 (at node 7)
Injected flit rate average = 0.02025
	minimum = 0.0166667 (at node 11)
	maximum = 0.026 (at node 13)
Accepted flit rate average= 0.0203958
	minimum = 0.0176667 (at node 3)
	maximum = 0.0246667 (at node 7)
Injected packet length average = 1
Accepted packet length average = 1
Total in-flight flits = 3 (3 measured)
latency change    = 0.0102434
throughput change = 0.0393258
Class 0:
Packet latency average = 19.4098
	minimum = 7
	maximum = 37
Network latency average = 19.4098
	minimum = 7
	maximum = 37
Slowest packet = 15908
Flit latency average = 19.4404
	minimum = 7
	maximum = 37
Slowest flit = 15908
Fragmentation average = 0
	minimum = 0
	maximum = 0
Injected packet rate average = 0.02025
	minimum = 0.01725 (at node 11)
	maximum = 0.026 (at node 13)
Accepted packet rate average = 0.0203281
	minimum = 0.01625 (at node 3)
	maximum = 0.025 (at node 8)
Injected flit rate average = 0.02025
	minimum = 0.01725 (at node 11)
	maximum = 0.026 (at node 13)
Accepted flit rate average= 0.0203281
	minimum = 0.01625 (at node 3)
	maximum = 0.025 (at node 8)
Injected packet length average = 1
Accepted packet length average = 1
Total in-flight flits = 5 (5 measured)
latency change    = 0.00557967
throughput change = 0.00333077
Class 0:
Packet latency average = 19.3903
	minimum = 7
	maximum = 37
Network latency average = 19.3903
	minimum = 7
	maximum = 37
Slowest packet = 15908
Flit latency average = 19.4151
	minimum = 7
	maximum = 37
Slowest flit = 15908
Fragmentation average = 0
	minimum = 0
	maximum = 0
Injected packet rate average = 0.020175
	minimum = 0.0178 (at node 10)
	maximum = 0.025 (at node 13)
Accepted packet rate average = 0.0202375
	minimum = 0.0158 (at node 3)
	maximum = 0.0242 (at node 7)
Injected flit rate average = 0.020175
	minimum = 0.0178 (at node 10)
	maximum = 0.025 (at node 13)
Accepted flit rate average= 0.0202375
	minimum = 0.0158 (at node 3)
	maximum = 0.0242 (at node 7)
Injected packet length average = 1
Accepted packet length average = 1
Total in-flight flits = 5 (5 measured)
latency change    = 0.00100335
throughput change = 0.00447807
Draining all recorded packets ...
Draining remaining packets ...
Time taken is 8043 cycles
Class 0:
Packet latency average = 19.4954
	minimum = 7
	maximum = 37
Network latency average = 19.4954
	minimum = 7
	maximum = 37
Slowest packet = 17242
Flit latency average = 19.4954
	minimum = 7
	maximum = 37
Slowest flit = 17242
Fragmentation average = 0
	minimum = 0
	maximum = 0
Injected packet rate average = 0.02075
	minimum = 0.014 (at node 8)
	maximum = 0.028 (at node 6)
Accepted packet rate average = 0.0201875
	minimum = 0.014 (at node 10)
	maximum = 0.029 (at node 1)
Injected flit rate average = 0.02075
	minimum = 0.014 (at node 8)
	maximum = 0.028 (at node 6)
Accepted flit rate average= 0.0201875
	minimum = 0.014 (at node 10)
	maximum = 0.029 (at node 1)
Injected packet length average = 1
Accepted packet length average = 1
Total in-flight flits = 9 (0 measured)
latency change    = 1
throughput change = 1
Class 0:
Packet latency average = 19.5213
	minimum = 7
	maximum = 37
Network latency average = 19.5213
	minimum = 7
	maximum = 37
Slowest packet = 17242
Flit latency average = 19.5213
	minimum = 7
	maximum = 37
Slowest flit = 17242
Fragmentation average = 0
	minimum = 0
	maximum = 0
Injected packet rate average = 0.0200313
	minimum = 0.016 (at node 12)
	maximum = 0.0245 (at node 6)
Accepted packet rate average = 0.0198438
	minimum = 0.014 (at node 4)
	maximum = 0.0265 (at node 9)
Injected flit rate average = 0.0200313
	minimum = 0.016 (at node 12)
	maximum = 0.0245 (at node 6)
Accepted flit rate average= 0.0198438
	minimum = 0.014 (at node 4)
	maximum = 0.0265 (at node 9)
Injected packet length average = 1
Accepted packet length average = 1
Total in-flight flits = 6 (0 measured)
latency change    = 0.00132695
throughput change = 0.0173228
Class 0:
Packet latency average = 20.1351
	minimum = 7
	maximum = 37
Network latency average = 20.1351
	minimum = 7
	maximum = 37
Slowest packet = 17874
Flit latency average = 20.1351
	minimum = 7
	maximum = 37
Slowest flit = 17874
Fragmentation average = 0
	minimum = 0
	maximum = 0
Injected packet rate average = 0.0208125
	minimum = 0.012 (at node 10)
	maximum = 0.03 (at node 2)
Accepted packet rate average = 0.0208125
	minimum = 0.015 (at node 10)
	maximum = 0.031 (at node 5)
Injected flit rate average = 0.0208125
	minimum = 0.012 (at node 10)
	maximum = 0.03 (at node 2)
Accepted flit rate average= 0.0208125
	minimum = 0.015 (at node 10)
	maximum = 0.031 (at node 5)
Injected packet length average = 1
Accepted packet length average = 1
Total in-flight flits = 6 (0 measured)
latency change    = 0.0304878
throughput change = 0.0465465
Warmed up ...Time used is 3000 cycles
Class 0:
Packet latency average = 19.4089
	minimum = 7
	maximum = 37
Network latency average = 19.4089
	minimum = 7
	maximum = 37
Slowest packet = 18369
Flit latency average = 19.4473
	minimum = 7
	maximum = 37
Slowest flit = 18369
Fragmentation average = 0
	minimum = 0
	maximum = 0
Injected packet rate average = 0.0175
	minimum = 0.007 (at node 13)
	maximum = 0.024 (at node 4)
Accepted packet rate average = 0.0171875
	minimum = 0.009 (at node 13)
	maximum = 0.024 (at node 4)
Injected flit rate average = 0.0175
	minimum = 0.007 (at node 13)
	maximum = 0.024 (at node 4)
Accepted flit rate average= 0.0171875
	minimum = 0.009 (at node 13)
	maximum = 0.024 (at node 4)
Injected packet length average = 1
Accepted packet length average = 1
Total in-flight flits = 11 (11 measured)
latency change    = 0.0374165
throughput change = 0.210909
Class 0:
Packet latency average = 19.4777
	minimum = 7
	maximum = 37
Network latency average = 19.4777
	minimum = 7
	maximum = 37
Slowest packet = 18369
Flit latency average = 19.4956
	minimum = 7
	maximum = 37
Slowest flit = 18369
Fragmentation average = 0
	minimum = 0
	maximum = 0
Injected packet rate average = 0.0177187
	minimum = 0.0115 (at node 13)
	maximum = 0.0215 (at node 3)
Accepted packet rate average = 0.0177187
	minimum = 0.0125 (at node 2)
	maximum = 0.025 (at node 4)
Injected flit rate average = 0.0177187
	minimum = 0.0115 (at node 13)
	maximum = 0.0215 (at node 3)
Accepted flit rate average= 0.0177187
	minimum = 0.0125 (at node 2)
	maximum = 0.025 (at node 4)
Injected packet length average = 1
Accepted packet length average = 1
Total in-flight flits = 6 (6 measured)
latency change    = 0.00353206
throughput change = 0.0299824
Class 0:
Packet latency average = 19.3246
	minimum = 7
	maximum = 37
Network latency average = 19.3246
	minimum = 7
	maximum = 37
Slowest packet = 18369
Flit latency average = 19.3371
	minimum = 7
	maximum = 37
Slowest flit = 18369
Fragmentation average = 0
	minimum = 0
	maximum = 0
Injected packet rate average = 0.0185
	minimum = 0.0123333 (at node 13)
	maximum = 0.023 (at node 4)
Accepted packet rate average = 0.0184792
	minimum = 0.0123333 (at node 13)
	maximum = 0.0223333 (at node 9)
Injected flit rate average = 0.0185
	minimum = 0.0123333 (at node 13)
	maximum = 0.023 (at node 4)
Accepted flit rate average= 0.0184792
	minimum = 0.0123333 (at node 13)
	maximum = 0.0223333 (at node 9)
Injected packet length average = 1
Accepted packet length average = 1
Total in-flight flits = 7 (7 measured)
latency change    = 0.00792187
throughput change = 0.0411499
Class 0:
Packet latency average = 19.3486
	minimum = 7
	maximum = 37
Network latency average = 19.3486
	minimum = 7
	maximum = 37
Slowest packet = 18369
Flit latency average = 19.3575
	minimum = 7
	maximum = 37
Slowest flit = 18369
Fragmentation average = 0
	minimum = 0
	maximum = 0
Injected packet rate average = 0.019125
	minimum = 0.01325 (at node 15)
	maximum = 0.023 (at node 10)
Accepted packet rate average = 0.0191875
	minimum = 0.01425 (at node 13)
	maximum = 0.02325 (at node 9)
Injected flit rate average = 0.019125
	minimum = 0.01325 (at node 15)
	maximum = 0.023 (at node 10)
Accepted flit rate average= 0.0191875
	minimum = 0.01425 (at node 13)
	maximum = 0.02325 (at node 9)
Injected packet length average = 1
Accepted packet length average = 1
Total in-flight flits = 2 (2 measured)
latency change    = 0.00123925
throughput change = 0.0369164
Draining all recorded packets ...
Draining remaining packets ...
Time taken is 7012 cycles
Class 0:
Packet latency average = 19.0629
	minimum = 7
	maximum = 37
Network latency average = 19.0629
	minimum = 7
	maximum = 37
Slowest packet = 19443
Flit latency average = 19.0629
	minimum = 7
	maximum = 37
Slowest flit = 19443
Fragmentation average = 0
	minimum = 0
	maximum = 0
Injected packet rate average = 0.0183125
	minimum = 0.011 (at node 6)
	maximum = 0.026 (at node 13)
Accepted packet rate average = 0.017875
	minimum = 0.013 (at node 3)
	maximum = 0.023 (at node 8)
Injected flit rate average = 0.0183125
	minimum = 0.011 (at node 6)
	maximum = 0.026 (at node 13)
Accepted flit rate average= 0.017875
	minimum = 0.013 (at node 3)
	maximum = 0.023 (at node 8)
Injected packet length average = 1
Accepted packet length average = 1
Total in-flight flits = 7 (0 measured)
latency change    = 1
throughput change = 1
Class 0:
Packet latency average = 19.0428
	minimum = 7
	maximum = 37
Network latency average = 19.0428
	minimum = 7
	maximum = 37
Slowest packet = 19443
Flit latency average = 19.0428
	minimum = 7
	maximum = 37
Slowest flit = 19443
Fragmentation average = 0
	minimum = 0
	maximum = 0
Injected packet rate average = 0.0192187
	minimum = 0.014 (at node 8)
	maximum = 0.0265 (at node 0)
Accepted packet rate average = 0.0189687
	minimum = 0.014 (at node 3)
	maximum = 0.024 (at node 1)
Injected flit rate average = 0.0192187
	minimum = 0.014 (at node 8)
	maximum = 0.0265 (at node 0)
Accepted flit rate average= 0.0189687
	minimum = 0.014 (at node 3)
	maximum = 0.024 (at node 1)
Injected packet length average = 1
Accepted packet length average = 1
Total in-flight flits = 8 (0 measured)
latency change    = 0.0010557
throughput change = 0.0576606
Class 0:
Packet latency average = 20.0862
	minimum = 7
	maximum = 37
Network latency average = 20.0862
	minimum = 7
	maximum = 37
Slowest packet = 20068
Flit latency average = 20.0862
	minimum = 7
	maximum = 37
Slowest flit = 20068
Fragmentation average = 0
	minimum = 0
	maximum = 0
Injected packet rate average = 0.0214375
	minimum = 0.011 (at node 2)
	maximum = 0.035 (at node 14)
Accepted packet rate average = 0.02175
	minimum = 0.015 (at node 6)
	maximum = 0.03 (at node 4)
Injected flit rate average = 0.0214375
	minimum = 0.011 (at node 2)
	maximum = 0.035 (at node 14)
Accepted flit rate average= 0.02175
	minimum = 0.015 (at node 6)
	maximum = 0.03 (at node 4)
Injected packet length average = 1
Accepted packet length average = 1
Total in-flight flits = 3 (0 measured)
latency change    = 0.0519448
throughput change = 0.127874
Warmed up ...Time used is 3000 cycles
Class 0:
Packet latency average = 19.3636
	minimum = 7
	maximum = 37
Network latency average = 19.3636
	minimum = 7
	maximum = 37
Slowest packet = 20416
Flit latency average = 19.4256
	minimum = 7
	maximum = 37
Slowest flit = 20416
Fragmentation average = 0
	minimum = 0
	maximum = 0
Injected packet rate average = 0.0186875
	minimum = 0.01 (at node 14)
	maximum = 0.03 (at node 10)
Accepted packet rate average = 0.0180625
	minimum = 0.008 (at node 0)
	maximum = 0.027 (at node 4)
Injected flit rate average = 0.0186875
	minimum = 0.01 (at node 14)
	maximum = 0.03 (at node 10)
Accepted flit rate average= 0.0180625
	minimum = 0.008 (at node 0)
	maximum = 0.027 (at node 4)
Injected packet length average = 1
Accepted packet length average = 1
Total in-flight flits = 13 (13 measured)
latency change    = 0.0373158
throughput change = 0.204152
Class 0:
Packet latency average = 19.4525
	minimum = 7
	maximum = 37
Network latency average = 19.4525
	minimum = 7
	maximum = 37
Slowest packet = 20416
Flit latency average = 19.4812
	minimum = 7
	maximum = 37
Slowest flit = 20416
Fragmentation average = 0
	minimum = 0
	maximum = 0
Injected packet rate average = 0.0191562
	minimum = 0.0155 (at node 15)
	maximum = 0.0235 (at node 1)
Accepted packet rate average = 0.0191562
	minimum = 0.0135 (at node 6)
	maximum = 0.0255 (at node 14)
Injected flit rate average = 0.0191562
	minimum = 0.0155 (at node 15)
	maximum = 0.0235 (at node 1)
Accepted flit rate average= 0.0191562
	minimum = 0.0135 (at node 6)
	maximum = 0.0255 (at node 14)
Injected packet length average = 1
Accepted packet length average = 1
Total in-flight flits = 3 (3 measured)
latency change    = 0.00456614
throughput change = 0.0570962
Class 0:
Packet latency average = 19.4596
	minimum = 7
	maximum = 38
Network latency average = 19.4596
	minimum = 7
	maximum = 38
Slowest packet = 21154
Flit latency average = 19.4785
	minimum = 7
	maximum = 38
Slowest flit = 21154
Fragmentation average = 0
	minimum = 0
	maximum = 0
Injected packet rate average = 0.0194375
	minimum = 0.0166667 (at node 15)
	maximum = 0.0236667 (at node 0)
Accepted packet rate average = 0.0194167
	minimum = 0.0136667 (at node 6)
	maximum = 0.0263333 (at node 14)
Injected flit rate average = 0.0194375
	minimum = 0.0166667 (at node 15)
	maximum = 0.0236667 (at node 0)
Accepted flit rate average= 0.0194167
	minimum = 0.0136667 (at node 6)
	maximum = 0.0263333 (at node 14)
Injected packet length average = 1
Accepted packet length average = 1
Total in-flight flits = 4 (4 measured)
latency change    = 0.000368712
throughput change = 0.013412
Class 0:
Packet latency average = 19.5125
	minimum = 7
	maximum = 39
Network latency average = 19.5125
	minimum = 7
	maximum = 39
Slowest packet = 21615
Flit latency average = 19.5266
	minimum = 7
	maximum = 39
Slowest flit = 21615
Fragmentation average = 0
	minimum = 0
	maximum = 0
Injected packet rate average = 0.0193906
	minimum = 0.01575 (at node 15)
	maximum = 0.0225 (at node 1)
Accepted packet rate average = 0.0194062
	minimum = 0.01525 (at node 6)
	maximum = 0.02475 (at node 4)
Injected flit rate average = 0.0193906
	minimum = 0.01575 (at node 15)
	maximum = 0.0225 (at node 1)
Accepted flit rate average= 0.0194062
	minimum = 0.01525 (at node 6)
	maximum = 0.02475 (at node 4)
Injected packet length average = 1
Accepted packet length average = 1
Total in-flight flits = 2 (2 measured)
latency change    = 0.00270986
throughput change = 0.000536769
Class 0:
Packet latency average = 19.4732
	minimum = 7
	maximum = 40
Network latency average = 19.4732
	minimum = 7
	maximum = 40
Slowest packet = 21687
Flit latency average = 19.4844
	minimum = 7
	maximum = 40
Slowest flit = 21687
Fragmentation average = 0
	minimum = 0
	maximum = 0
Injected packet rate average = 0.019625
	minimum = 0.0164 (at node 4)
	maximum = 0.0234 (at node 10)
Accepted packet rate average = 0.0196125
	minimum = 0.0164 (at node 12)
	maximum = 0.0246 (at node 4)
Injected flit rate average = 0.019625
	minimum = 0.0164 (at node 4)
	maximum = 0.0234 (at node 10)
Accepted flit rate average= 0.0196125
	minimum = 0.0164 (at node 12)
	maximum = 0.0246 (at node 4)
Injected packet length average = 1
Accepted packet length average = 1
Total in-flight flits = 4 (4 measured)
latency change    = 0.0020197
throughput change = 0.0105163
Draining all recorded packets ...
Draining remaining packets ...
Time taken is 8046 cycles
Class 0:
Packet latency average = 19.2
	minimum = 7
	maximum = 37
Network latency average = 19.2
	minimum = 7
	maximum = 37
Slowest packet = 22125
Flit latency average = 19.2
	minimum = 7
	maximum = 37
Slowest flit = 22125
Fragmentation average = 0
	minimum = 0
	maximum = 0
Injected packet rate average = 0.0204375
	minimum = 0.015 (at node 2)
	maximum = 0.027 (at node 13)
Accepted packet rate average = 0.02
	minimum = 0.013 (at node 0)
	maximum = 0.026 (at node 3)
Injected flit rate average = 0.0204375
	minimum = 0.015 (at node 2)
	maximum = 0.027 (at node 13)
Accepted flit rate average= 0.02
	minimum = 0.013 (at node 0)
	maximum = 0.026 (at node 3)
Injected packet length average = 1
Accepted packet length average = 1
Total in-flight flits = 7 (0 measured)
latency change    = 1
throughput change = 1
Class 0:
Packet latency average = 19.4453
	minimum = 7
	maximum = 37
Network latency average = 19.4453
	minimum = 7
	maximum = 37
Slowest packet = 22125
Flit latency average = 19.4453
	minimum = 7
	maximum = 37
Slowest flit = 22125
Fragmentation average = 0
	minimum = 0
	maximum = 0
Injected packet rate average = 0.0204063
	minimum = 0.015 (at node 5)
	maximum = 0.025 (at node 1)
Accepted packet rate average = 0.0202813
	minimum = 0.0165 (at node 9)
	maximum = 0.0255 (at node 5)
Injected flit rate average = 0.0204063
	minimum = 0.015 (at node 5)
	maximum = 0.025 (at node 1)
Accepted flit rate average= 0.0202813
	minimum = 0.0165 (at node 9)
	maximum = 0.0255 (at node 5)
Injected packet length average = 1
Accepted packet length average = 1
Total in-flight flits = 4 (0 measured)
latency change    = 0.0126149
throughput change = 0.0138675
Class 0:
Packet latency average = 19.1858
	minimum = 7
	maximum = 37
Network latency average = 19.1858
	minimum = 7
	maximum = 37
Slowest packet = 22785
Flit latency average = 19.1858
	minimum = 7
	maximum = 37
Slowest flit = 22785
Fragmentation average = 0
	minimum = 0
	maximum = 0
Injected packet rate average = 0.0204375
	minimum = 0.012 (at node 9)
	maximum = 0.028 (at node 8)
Accepted packet rate average = 0.0201875
	minimum = 0.016 (at node 6)
	maximum = 0.031 (at node 8)
Injected flit rate average = 0.0204375
	minimum = 0.012 (at node 9)
	maximum = 0.028 (at node 8)
Accepted flit rate average= 0.0201875
	minimum = 0.016 (at node 6)
	maximum = 0.031 (at node 8)
Injected packet length average = 1
Accepted packet length average = 1
Total in-flight flits = 8 (0 measured)
latency change    = 0.0135278
throughput change = 0.00464396
Warmed up ...Time used is 3000 cycles
Class 0:
Packet latency average = 18.9296
	minimum = 7
	maximum = 37
Network latency average = 18.9296
	minimum = 7
	maximum = 37
Slowest packet = 23028
Flit latency average = 19.0479
	minimum = 7
	maximum = 37
Slowest flit = 22947
Fragmentation average = 0
	minimum = 0
	maximum = 0
Injected packet rate average = 0.018
	minimum = 0.008 (at node 14)
	maximum = 0.027 (at node 11)
Accepted packet rate average = 0.01825
	minimum = 0.009 (at node 9)
	maximum = 0.026 (at node 15)
Injected flit rate average = 0.018
	minimum = 0.008 (at node 14)
	maximum = 0.027 (at node 11)
Accepted flit rate average= 0.01825
	minimum = 0.009 (at node 9)
	maximum = 0.026 (at node 15)
Injected packet length average = 1
Accepted packet length average = 1
Total in-flight flits = 4 (4 measured)
latency change    = 0.0135334
throughput change = 0.106164
Class 0:
Packet latency average = 19.2516
	minimum = 7
	maximum = 37
Network latency average = 19.2516
	minimum = 7
	maximum = 37
Slowest packet = 23028
Flit latency average = 19.3019
	minimum = 7
	maximum = 37
Slowest flit = 22947
Fragmentation average = 0
	minimum = 0
	maximum = 0
Injected packet rate average = 0.0199063
	minimum = 0.0145 (at node 14)
	maximum = 0.0275 (at node 11)
Accepted packet rate average = 0.019875
	minimum = 0.014 (at node 9)
	maximum = 0.0235 (at node 13)
Injected flit rate average = 0.0199063
	minimum = 0.0145 (at node 14)
	maximum = 0.0275 (at node 11)
Accepted flit rate average= 0.019875
	minimum = 0.014 (at node 9)
	maximum = 0.0235 (at node 13)
Injected packet length average = 1
Accepted packet length average = 1
Total in-flight flits = 9 (9 measured)
latency change    = 0.0167267
throughput change = 0.081761
Class 0:
Packet latency average = 19.5242
	minimum = 7
	maximum = 38
Network latency average = 19.5242
	minimum = 7
	maximum = 38
Slowest packet = 23720
Flit latency average = 19.5545
	minimum = 7
	maximum = 38
Slowest flit = 23720
Fragmentation average = 0
	minimum = 0
	maximum = 0
Injected packet rate average = 0.020375
	minimum = 0.0166667 (at node 5)
	maximum = 0.025 (at node 11)
Accepted packet rate average = 0.0204375
	minimum = 0.0156667 (at node 9)
	maximum = 0.025 (at node 6)
Injected flit rate average = 0.020375
	minimum = 0.0166667 (at node 5)
	maximum = 0.025 (at node 11)
Accepted flit rate average= 0.0204375
	minimum = 0.0156667 (at node 9)
	maximum = 0.025 (at node 6)
Injected packet length average = 1
Accepted packet length average = 1
Total in-flight flits = 5 (5 measured)
latency change    = 0.0139601
throughput change = 0.0275229
Class 0:
Packet latency average = 19.7599
	minimum = 7
	maximum = 39
Network latency average = 19.7599
	minimum = 7
	maximum = 39
Slowest packet = 23969
Flit latency average = 19.7812
	minimum = 7
	maximum = 39
Slowest flit = 23969
Fragmentation average = 0
	minimum = 0
	maximum = 0
Injected packet rate average = 0.0205781
	minimum = 0.016 (at node 5)
	maximum = 0.02425 (at node 8)
Accepted packet rate average = 0.0205625
	minimum = 0.01575 (at node 9)
	maximum = 0.02525 (at node 6)
Injected flit rate average = 0.0205781
	minimum = 0.016 (at node 5)
	maximum = 0.02425 (at node 8)
Accepted flit rate average= 0.0205625
	minimum = 0.01575 (at node 9)
	maximum = 0.02525 (at node 6)
Injected packet length average = 1
Accepted packet length average = 1
Total in-flight flits = 9 (9 measured)
latency change    = 0.0119326
throughput change = 0.00607903
Class 0:
Packet latency average = 19.7204
	minimum = 7
	maximum = 39
Network latency average = 19.7204
	minimum = 7
	maximum = 39
Slowest packet = 23969
Flit latency average = 19.7379
	minimum = 7
	maximum = 39
Slowest flit = 23969
Fragmentation average = 0
	minimum = 0
	maximum = 0
Injected packet rate average = 0.020175
	minimum = 0.016 (at node 6)
	maximum = 0.0228 (at node 15)
Accepted packet rate average = 0.020175
	minimum = 0.0162 (at node 9)
	maximum = 0.0236 (at node 6)
Injected flit rate average = 0.020175
	minimum = 0.016 (at node 6)
	maximum = 0.0228 (at node 15)
Accepted flit rate average= 0.020175
	minimum = 0.0162 (at node 9)
	maximum = 0.0236 (at node 6)
Injected packet length average = 1
Accepted packet length average = 1
Total in-flight flits = 8 (8 measured)
latency change    = 0.00200378
throughput change = 0.0192069
Draining all recorded packets ...
Draining remaining packets ...
Time taken is 8035 cycles
Class 0:
Packet latency average = 19.2381
	minimum = 7
	maximum = 37
Network latency average = 19.2381
	minimum = 7
	maximum = 37
Slowest packet = 24696
Flit latency average = 19.2381
	minimum = 7
	maximum = 37
Slowest flit = 24696
Fragmentation average = 0
	minimum = 0
	maximum = 0
Injected packet rate average = 0.020375
	minimum = 0.016 (at node 4)
	maximum = 0.025 (at node 2)
Accepted packet rate average = 0.0196875
	minimum = 0.009 (at node 14)
	maximum = 0.029 (at node 15)
Injected flit rate average = 0.020375
	minimum = 0.016 (at node 4)
	maximum = 0.025 (at node 2)
Accepted flit rate average= 0.0196875
	minimum = 0.009 (at node 14)
	maximum = 0.029 (at node 15)
Injected packet length average = 1
Accepted packet length average = 1
Total in-flight flits = 11 (0 measured)
latency change    = 1
throughput change = 1
Class 0:
Packet latency average = 19.473
	minimum = 7
	maximum = 38
Network latency average = 19.473
	minimum = 7
	maximum = 38
Slowest packet = 25081
Flit latency average = 19.473
	minimum = 7
	maximum = 38
Slowest flit = 25081
Fragmentation average = 0
	minimum = 0
	maximum = 0
Injected packet rate average = 0.0198438
	minimum = 0.016 (at node 4)
	maximum = 0.0255 (at node 2)
Accepted packet rate average = 0.0196875
	minimum = 0.0155 (at node 10)
	maximum = 0.026 (at node 9)
Injected flit rate average = 0.0198438
	minimum = 0.016 (at node 4)
	maximum = 0.0255 (at node 2)
Accepted flit rate average= 0.0196875
	minimum = 0.0155 (at node 10)
	maximum = 0.026 (at node 9)
Injected packet length average = 1
Accepted packet length average = 1
Total in-flight flits = 5 (0 measured)
latency change    = 0.0120639
throughput change = 0
Class 0:
Packet latency average = 19.9965
	minimum = 7
	maximum = 37
Network latency average = 19.9965
	minimum = 7
	maximum = 37
Slowest packet = 25249
Flit latency average = 19.9965
	minimum = 7
	maximum = 37
Slowest flit = 25249
Fragmentation average = 0
	minimum = 0
	maximum = 0
Injected packet rate average = 0.01825
	minimum = 0.01 (at node 12)
	maximum = 0.028 (at node 1)
Accepted packet rate average = 0.017875
	minimum = 0.012 (at node 6)
	maximum = 0.023 (at node 11)
Injected flit rate average = 0.01825
	minimum = 0.01 (at node 12)
	maximum = 0.028 (at node 1)
Accepted flit rate average= 0.017875
	minimum = 0.012 (at node 6)
	maximum = 0.023 (at node 11)
Injected packet length average = 1
Accepted packet length average = 1
Total in-flight flits = 11 (0 measured)
latency change    = 0.026179
throughput change = 0.101399
Warmed up ...Time used is 3000 cycles
Class 0:
Packet latency average = 19.723
	minimum = 7
	maximum = 37
Network latency average = 19.723
	minimum = 7
	maximum = 37
Slowest packet = 25510
Flit latency average = 19.7938
	minimum = 7
	maximum = 37
Slowest flit = 25510
Fragmentation average = 0
	minimum = 0
	maximum = 0
Injected packet rate average = 0.021625
	minimum = 0.012 (at node 4)
	maximum = 0.028 (at node 15)
Accepted packet rate average = 0.022125
	minimum = 0.014 (at node 13)
	maximum = 0.032 (at node 15)
Injected flit rate average = 0.021625
	minimum = 0.012 (at node 4)
	maximum = 0.028 (at node 15)
Accepted flit rate average= 0.022125
	minimum = 0.014 (at node 13)
	maximum = 0.032 (at node 15)
Injected packet length average = 1
Accepted packet length average = 1
Total in-flight flits = 3 (3 measured)
latency change    = 0.0138656
throughput change = 0.19209
Class 0:
Packet latency average = 19.5327
	minimum = 7
	maximum = 37
Network latency average = 19.5327
	minimum = 7
	maximum = 37
Slowest packet = 25510
Flit latency average = 19.5734
	minimum = 7
	maximum = 37
Slowest flit = 25510
Fragmentation average = 0
	minimum = 0
	maximum = 0
Injected packet rate average = 0.0207188
	minimum = 0.0155 (at node 4)
	maximum = 0.025 (at node 3)
Accepted packet rate average = 0.020875
	minimum = 0.0155 (at node 10)
	maximum = 0.0285 (at node 9)
Injected flit rate average = 0.0207188
	minimum = 0.0155 (at node 4)
	maximum = 0.025 (at node 3)
Accepted flit rate average= 0.020875
	minimum = 0.0155 (at node 10)
	maximum = 0.0285 (at node 9)
Injected packet length average = 1
Accepted packet length average = 1
Total in-flight flits = 6 (6 measured)
latency change    = 0.00974301
throughput change = 0.0598802
Class 0:
Packet latency average = 19.8529
	minimum = 7
	maximum = 37
Network latency average = 19.8529
	minimum = 7
	maximum = 37
Slowest packet = 25510
Flit latency average = 19.8769
	minimum = 7
	maximum = 37
Slowest flit = 25510
Fragmentation average = 0
	minimum = 0
	maximum = 0
Injected packet rate average = 0.0204167
	minimum = 0.0163333 (at node 4)
	maximum = 0.024 (at node 0)
Accepted packet rate average = 0.0204792
	minimum = 0.0163333 (at node 2)
	maximum = 0.025 (at node 15)
Injected flit rate average = 0.0204167
	minimum = 0.0163333 (at node 4)
	maximum = 0.024 (at node 0)
Accepted flit rate average= 0.0204792
	minimum = 0.0163333 (at node 2)
	maximum = 0.025 (at node 15)
Injected packet length average = 1
Accepted packet length average = 1
Total in-flight flits = 8 (8 measured)
latency change    = 0.0161264
throughput change = 0.0193286
Class 0:
Packet latency average = 19.5805
	minimum = 7
	maximum = 37
Network latency average = 19.5805
	minimum = 7
	maximum = 37
Slowest packet = 25510
Flit latency average = 19.6008
	minimum = 7
	maximum = 37
Slowest flit = 25510
Fragmentation average = 0
	minimum = 0
	maximum = 0
Injected packet rate average = 0.0204688
	minimum = 0.01625 (at node 4)
	maximum = 0.02375 (at node 0)
Accepted packet rate average = 0.0205469
	minimum = 0.0165 (at node 14)
	maximum = 0.02325 (at node 9)
Injected flit rate average = 0.0204688
	minimum = 0.01625 (at node 4)
	maximum = 0.02375 (at node 0)
Accepted flit rate average= 0.0205469
	minimum = 0.0165 (at node 14)
	maximum = 0.02325 (at node 9)
Injected packet length average = 1
Accepted packet length average = 1
Total in-flight flits = 6 (6 measured)
latency change    = 0.0139097
throughput change = 0.00329531
Class 0:
Packet latency average = 19.4623
	minimum = 7
	maximum = 38
Network latency average = 19.4623
	minimum = 7
	maximum = 38
Slowest packet = 26829
Flit latency average = 19.4795
	minimum = 7
	maximum = 38
Slowest flit = 26829
Fragmentation average = 0
	minimum = 0
	maximum = 0
Injected packet rate average = 0.0203125
	minimum = 0.0168 (at node 4)
	maximum = 0.0232 (at node 0)
Accepted packet rate average = 0.0203875
	minimum = 0.0162 (at node 14)
	maximum = 0.0242 (at node 5)
Injected flit rate average = 0.0203125
	minimum = 0.0168 (at node 4)
	maximum = 0.0232 (at node 0)
Accepted flit rate average= 0.0203875
	minimum = 0.0162 (at node 14)
	maximum = 0.0242 (at node 5)
Injected packet length average = 1
Accepted packet length average = 1
Total in-flight flits = 5 (5 measured)
latency change    = 0.00607202
throughput change = 0.00781729
Draining all recorded packets ...
Draining remaining packets ...
Time taken is 8046 cycles
Class 0:
Packet latency average = 18.9241
	minimum = 7
	maximum = 37
Network latency average = 18.9241
	minimum = 7
	maximum = 37
Slowest packet = 27139
Flit latency average = 18.9241
	minimum = 7
	maximum = 37
Slowest flit = 27139
Fragmentation average = 0
	minimum = 0
	maximum = 0
Injected packet rate average = 0.0194375
	minimum = 0.013 (at node 1)
	maximum = 0.026 (at node 5)
Accepted packet rate average = 0.0189375
	minimum = 0.012 (at node 11)
	maximum = 0.027 (at node 3)
Injected flit rate average = 0.0194375
	minimum = 0.013 (at node 1)
	maximum = 0.026 (at node 5)
Accepted flit rate average= 0.0189375
	minimum = 0.012 (at node 11)
	maximum = 0.027 (at node 3)
Injected packet length average = 1
Accepted packet length average = 1
Total in-flight flits = 8 (0 measured)
latency change    = 1
throughput change = 1
Class 0:
Packet latency average = 19.5248
	minimum = 7
	maximum = 39
Network latency average = 19.5248
	minimum = 7
	maximum = 39
Slowest packet = 27768
Flit latency average = 19.5248
	minimum = 7
	maximum = 39
Slowest flit = 27768
Fragmentation average = 0
	minimum = 0
	maximum = 0
Injected packet rate average = 0.02025
	minimum = 0.0155 (at node 8)
	maximum = 0.0255 (at node 2)
Accepted packet rate average = 0.020125
	minimum = 0.0145 (at node 7)
	maximum = 0.0235 (at node 2)
Injected flit rate average = 0.02025
	minimum = 0.0155 (at node 8)
	maximum = 0.0255 (at node 2)
Accepted flit rate average= 0.020125
	minimum = 0.0145 (at node 7)
	maximum = 0.0235 (at node 2)
Injected packet length average = 1
Accepted packet length average = 1
Total in-flight flits = 4 (0 measured)
latency change    = 0.0307686
throughput change = 0.0590062
Class 0:
Packet latency average = 19.0991
	minimum = 7
	maximum = 38
Network latency average = 19.0991
	minimum = 7
	maximum = 38
Slowest packet = 27802
Flit latency average = 19.0991
	minimum = 7
	maximum = 38
Slowest flit = 27802
Fragmentation average = 0
	minimum = 0
	maximum = 0
Injected packet rate average = 0.0204375
	minimum = 0.014 (at node 15)
	maximum = 0.03 (at node 4)
Accepted packet rate average = 0.0201875
	minimum = 0.014 (at node 7)
	maximum = 0.03 (at node 13)
Injected flit rate average = 0.0204375
	minimum = 0.014 (at node 15)
	maximum = 0.03 (at node 4)
Accepted flit rate average= 0.0201875
	minimum = 0.014 (at node 7)
	maximum = 0.03 (at node 13)
Injected packet length average = 1
Accepted packet length average = 1
Total in-flight flits = 8 (0 measured)
latency change    = 0.0222929
throughput change = 0.00309598
Warmed up ...Time used is 3000 cycles
Class 0:
Packet latency average = 19.3525
	minimum = 7
	maximum = 37
Network latency average = 19.3525
	minimum = 7
	maximum = 37
Slowest packet = 28232
Flit latency average = 19.3102
	minimum = 7
	maximum = 37
Slowest flit = 28232
Fragmentation average = 0
	minimum = 0
	maximum = 0
Injected packet rate average = 0.0188125
	minimum = 0.011 (at node 7)
	maximum = 0.026 (at node 9)
Accepted packet rate average = 0.0189375
	minimum = 0.013 (at node 3)
	maximum = 0.03 (at node 4)
Injected flit rate average = 0.0188125
	minimum = 0.011 (at node 7)
	maximum = 0.026 (at node 9)
Accepted flit rate average= 0.0189375
	minimum = 0.013 (at node 3)
	maximum = 0.03 (at node 4)
Injected packet length average = 1
Accepted packet length average = 1
Total in-flight flits = 6 (6 measured)
latency change    = 0.0130976
throughput change = 0.0660066
Class 0:
Packet latency average = 19.4872
	minimum = 7
	maximum = 37
Network latency average = 19.4872
	minimum = 7
	maximum = 37
Slowest packet = 28232
Flit latency average = 19.4639
	minimum = 7
	maximum = 37
Slowest flit = 28232
Fragmentation average = 0
	minimum = 0
	maximum = 0
Injected packet rate average = 0.0184062
	minimum = 0.013 (at node 3)
	maximum = 0.023 (at node 9)
Accepted packet rate average = 0.0185937
	minimum = 0.014 (at node 1)
	maximum = 0.022 (at node 4)
Injected flit rate average = 0.0184062
	minimum = 0.013 (at node 3)
	maximum = 0.023 (at node 9)
Accepted flit rate average= 0.0185937
	minimum = 0.014 (at node 1)
	maximum = 0.022 (at node 4)
Injected packet length average = 1
Accepted packet length average = 1
Total in-flight flits = 2 (2 measured)
latency change    = 0.00691124
throughput change = 0.0184874
Class 0:
Packet latency average = 19.3912
	minimum = 7
	maximum = 37
Network latency average = 19.3912
	minimum = 7
	maximum = 37
Slowest packet = 28232
Flit latency average = 19.3764
	minimum = 7
	maximum = 37
Slowest flit = 28232
Fragmentation average = 0
	minimum = 0
	maximum = 0
Injected packet rate average = 0.0184792
	minimum = 0.0156667 (at node 7)
	maximum = 0.022 (at node 8)
Accepted packet rate average = 0.0185417
	minimum = 0.0136667 (at node 3)
	maximum = 0.0243333 (at node 4)
Injected flit rate average = 0.0184792
	minimum = 0.0156667 (at node 7)
	maximum = 0.022 (at node 8)
Accepted flit rate average= 0.0185417
	minimum = 0.0136667 (at node 3)
	maximum = 0.0243333 (at node 4)
Injected packet length average = 1
Accepted packet length average = 1
Total in-flight flits = 5 (5 measured)
latency change    = 0.00495415
throughput change = 0.00280899
Class 0:
Packet latency average = 19.4783
	minimum = 7
	maximum = 37
Network latency average = 19.4783
	minimum = 7
	maximum = 37
Slowest packet = 28232
Flit latency average = 19.4671
	minimum = 7
	maximum = 37
Slowest flit = 28232
Fragmentation average = 0
	minimum = 0
	maximum = 0
Injected packet rate average = 0.01925
	minimum = 0.01525 (at node 7)
	maximum = 0.02175 (at node 9)
Accepted packet rate average = 0.0192344
	minimum = 0.01525 (at node 1)
	maximum = 0.022 (at node 4)
Injected flit rate average = 0.01925
	minimum = 0.01525 (at node 7)
	maximum = 0.02175 (at node 9)
Accepted flit rate average= 0.0192344
	minimum = 0.01525 (at node 1)
	maximum = 0.022 (at node 4)
Injected packet length average = 1
Accepted packet length average = 1
Total in-flight flits = 9 (9 measured)
latency change    = 0.00447551
throughput change = 0.0360141
Draining all recorded packets ...
Draining remaining packets ...
Time taken is 7054 cycles
Class 0:
Packet latency average = 19.1065
	minimum = 7
	maximum = 37
Network latency average = 19.1065
	minimum = 7
	maximum = 37
Slowest packet = 29388
Flit latency average = 19.1065
	minimum = 7
	maximum = 37
Slowest flit = 29388
Fragmentation average = 0
	minimum = 0
	maximum = 0
Injected packet rate average = 0.019875
	minimum = 0.012 (at node 8)
	maximum = 0.029 (at node 6)
Accepted packet rate average = 0.019375
	minimum = 0.01 (at node 4)
	maximum = 0.029 (at node 2)
Injected flit rate average = 0.019875
	minimum = 0.012 (at node 8)
	maximum = 0.029 (at node 6)
Accepted flit rate average= 0.019375
	minimum = 0.01 (at node 4)
	maximum = 0.029 (at node 2)
Injected packet length average = 1
Accepted packet length average = 1
Total in-flight flits = 8 (0 measured)
latency change    = 1
throughput change = 1
Class 0:
Packet latency average = 19.1534
	minimum = 7
	maximum = 37
[...]
	minimum = 0.0143333 (at node 7)
	maximum = 0.0246667 (at node 13)
Accepted packet rate average = 0.019875
	minimum = 0.0153333 (at node 9)
	maximum = 0.0243333 (at node 8)
Injected flit rate average = 0.0198125
	minimum = 0.0143333 (at node 7)
	maximum = 0.0246667 (at node 13)
Accepted flit rate average= 0.019875
	minimum = 0.0153333 (at node 9)
	maximum = 0.0243333 (at node 8)
Injected packet length average = 1
Accepted packet length average = 1
Total in-flight flits = 6 (6 measured)
latency change    = 0.00199591
throughput change = 0.0330189
Class 0:
Packet latency average = 19.706
	minimum = 7
	maximum = 38
Network latency average = 19.706
	minimum = 7
	maximum = 38
Slowest packet = 219589
Flit latency average = 19.7376
	minimum = 7
	maximum = 38
Slowest flit = 219589
Fragmentation average = 0
	minimum = 0
	maximum = 0
Injected packet rate average = 0.0200938
	minimum = 0.014 (at node 7)
	maximum = 0.0255 (at node 13)
Accepted packet rate average = 0.020125
	minimum = 0.01625 (at node 4)
	maximum = 0.02525 (at node 11)
Injected flit rate average = 0.0200938
	minimum = 0.014 (at node 7)
	maximum = 0.0255 (at node 13)
Accepted flit rate average= 0.020125
	minimum = 0.01625 (at node 4)
	maximum = 0.02525 (at node 11)
Injected packet length average = 1
Accepted packet length average = 1
Total in-flight flits = 7 (7 measured)
latency change    = 0.00172854
throughput change = 0.0124224
Class 0:
Packet latency average = 19.641
	minimum = 7
	maximum = 38
Network latency average = 19.641
	minimum = 7
	maximum = 38
Slowest packet = 219589
Flit latency average = 19.6669
	minimum = 7
	maximum = 38
Slowest flit = 219589
Fragmentation average = 0
	minimum = 0
	maximum = 0
Injected packet rate average = 0.0198625
	minimum = 0.0158 (at node 7)
	maximum = 0.0244 (at node 13)
Accepted packet rate average = 0.0198875
	minimum = 0.0164 (at node 9)
	maximum = 0.0254 (at node 11)
Injected flit rate average = 0.0198625
	minimum = 0.0158 (at node 7)
	maximum = 0.0244 (at node 13)
Accepted flit rate average= 0.0198875
	minimum = 0.0164 (at node 9)
	maximum = 0.0254 (at node 11)
Injected packet length average = 1
Accepted packet length average = 1
Total in-flight flits = 7 (7 measured)
latency change    = 0.00331244
throughput change = 0.0119422
Draining all recorded packets ...
Draining remaining packets ...
Time taken is 8051 cycles
Class 0:
Packet latency average = 20.0857
	minimum = 7
	maximum = 37
Network latency average = 20.0857
	minimum = 7
	maximum = 37
Slowest packet = 220727
Flit latency average = 20.0857
	minimum = 7
	maximum = 37
Slowest flit = 220727
Fragmentation average = 0
	minimum = 0
	maximum = 0
Injected packet rate average = 0.0200625
	minimum = 0.011 (at node 14)
	maximum = 0.025 (at node 8)
Accepted packet rate average = 0.0196875
	minimum = 0.014 (at node 15)
	maximum = 0.025 (at node 3)
Injected flit rate average = 0.0200625
	minimum = 0.011 (at node 14)
	maximum = 0.025 (at node 8)
Accepted flit rate average= 0.0196875
	minimum = 0.014 (at node 15)
	maximum = 0.025 (at node 3)
Injected packet length average = 1
Accepted packet length average = 1
Total in-flight flits = 6 (0 measured)
latency change    = 1
throughput change = 1
Class 0:
Packet latency average = 19.8974
	minimum = 7
	maximum = 37
Network latency average = 19.8974
	minimum = 7
	maximum = 37
Slowest packet = 220727
Flit latency average = 19.8974
	minimum = 7
	maximum = 37
Slowest flit = 220727
Fragmentation average = 0
	minimum = 0
	maximum = 0
Injected packet rate average = 0.0202813
	minimum = 0.0155 (at node 14)
	maximum = 0.0245 (at node 6)
Accepted packet rate average = 0.0200938
	minimum = 0.016 (at node 10)
	maximum = 0.025 (at node 5)
Injected flit rate average = 0.0202813
	minimum = 0.0155 (at node 14)
	maximum = 0.0245 (at node 6)
Accepted flit rate average= 0.0200938
	minimum = 0.016 (at node 10)
	maximum = 0.025 (at node 5)
Injected packet length average = 1
Accepted packet length average = 1
Total in-flight flits = 6 (0 measured)
latency change    = 0.00946649
throughput change = 0.0202177
Class 0:
Packet latency average = 19.7565
	minimum = 7
	maximum = 37
Network latency average = 19.7565
	minimum = 7
	maximum = 37
Slowest packet = 221488
Flit latency average = 19.7565
	minimum = 7
	maximum = 37
Slowest flit = 221488
Fragmentation average = 0
	minimum = 0
	maximum = 0
Injected packet rate average = 0.0219375
	minimum = 0.015 (at node 14)
	maximum = 0.03 (at node 0)
Accepted packet rate average = 0.0215625
	minimum = 0.012 (at node 1)
	maximum = 0.032 (at node 8)
Injected flit rate average = 0.0219375
	minimum = 0.015 (at node 14)
	maximum = 0.03 (at node 0)
Accepted flit rate average= 0.0215625
	minimum = 0.012 (at node 1)
	maximum = 0.032 (at node 8)
Injected packet length average = 1
Accepted packet length average = 1
Total in-flight flits = 12 (0 measured)
latency change    = 0.0071285
throughput change = 0.0681159
Warmed up ...Time used is 3000 cycles
Class 0:
Packet latency average = 19.9
	minimum = 7
	maximum = 37
Network latency average = 19.9
	minimum = 7
	maximum = 37
Slowest packet = 221705
Flit latency average = 19.9783
	minimum = 7
	maximum = 37
Slowest flit = 221705
Fragmentation average = 0
	minimum = 0
	maximum = 0
Injected packet rate average = 0.0195625
	minimum = 0.011 (at node 10)
	maximum = 0.027 (at node 13)
Accepted packet rate average = 0.020125
	minimum = 0.015 (at node 14)
	maximum = 0.028 (at node 4)
Injected flit rate average = 0.0195625
	minimum = 0.011 (at node 10)
	maximum = 0.027 (at node 13)
Accepted flit rate average= 0.020125
	minimum = 0.015 (at node 14)
	maximum = 0.028 (at node 4)
Injected packet length average = 1
Accepted packet length average = 1
Total in-flight flits = 3 (3 measured)
latency change    = 0.00720996
throughput change = 0.0714286
Class 0:
Packet latency average = 19.378
	minimum = 7
	maximum = 38
Network latency average = 19.378
	minimum = 7
	maximum = 38
Slowest packet = 222109
Flit latency average = 19.4266
	minimum = 7
	maximum = 38
Slowest flit = 222109
Fragmentation average = 0
	minimum = 0
	maximum = 0
Injected packet rate average = 0.0199375
	minimum = 0.0175 (at node 3)
	maximum = 0.0225 (at node 13)
Accepted packet rate average = 0.0202188
	minimum = 0.016 (at node 9)
	maximum = 0.027 (at node 5)
Injected flit rate average = 0.0199375
	minimum = 0.0175 (at node 3)
	maximum = 0.0225 (at node 13)
Accepted flit rate average= 0.0202188
	minimum = 0.016 (at node 9)
	maximum = 0.027 (at node 5)
Injected packet length average = 1
Accepted packet length average = 1
Total in-flight flits = 3 (3 measured)
latency change    = 0.0269403
throughput change = 0.00463679
Class 0:
Packet latency average = 19.333
	minimum = 7
	maximum = 38
Network latency average = 19.333
	minimum = 7
	maximum = 38
Slowest packet = 222109
Flit latency average = 19.3673
	minimum = 7
	maximum = 38
Slowest flit = 222109
Fragmentation average = 0
	minimum = 0
	maximum = 0
Injected packet rate average = 0.0192083
	minimum = 0.0166667 (at node 1)
	maximum = 0.0216667 (at node 13)
Accepted packet rate average = 0.0193958
	minimum = 0.016 (at node 1)
	maximum = 0.0263333 (at node 5)
Injected flit rate average = 0.0192083
	minimum = 0.0166667 (at node 1)
	maximum = 0.0216667 (at node 13)
Accepted flit rate average= 0.0193958
	minimum = 0.016 (at node 1)
	maximum = 0.0263333 (at node 5)
Injected packet length average = 1
Accepted packet length average = 1
Total in-flight flits = 3 (3 measured)
latency change    = 0.00232671
throughput change = 0.0424275
Class 0:
Packet latency average = 19.2516
	minimum = 7
	maximum = 38
Network latency average = 19.2516
	minimum = 7
	maximum = 38
Slowest packet = 222109
Flit latency average = 19.278
	minimum = 7
	maximum = 38
Slowest flit = 222109
Fragmentation average = 0
	minimum = 0
	maximum = 0
Injected packet rate average = 0.0194375
	minimum = 0.0165 (at node 7)
	maximum = 0.02225 (at node 14)
Accepted packet rate average = 0.0195625
	minimum = 0.01625 (at node 14)
	maximum = 0.02375 (at node 2)
Injected flit rate average = 0.0194375
	minimum = 0.0165 (at node 7)
	maximum = 0.02225 (at node 14)
Accepted flit rate average= 0.0195625
	minimum = 0.01625 (at node 14)
	maximum = 0.02375 (at node 2)
Injected packet length average = 1
Accepted packet length average = 1
Total in-flight flits = 4 (4 measured)
latency change    = 0.00422602
throughput change = 0.0085197
Draining all recorded packets ...
Draining remaining packets ...
Time taken is 7049 cycles
Class 0:
Packet latency average = 20.4482
	minimum = 7
	maximum = 43
Network latency average = 20.4482
	minimum = 7
	maximum = 43
Slowest packet = 223069
Flit latency average = 20.4482
	minimum = 7
	maximum = 43
Slowest flit = 223069
Fragmentation average = 0
	minimum = 0
	maximum = 0
Injected packet rate average = 0.021125
	minimum = 0.013 (at node 1)
	maximum = 0.029 (at node 5)
Accepted packet rate average = 0.0205
	minimum = 0.01 (at node 7)
	maximum = 0.027 (at node 15)
Injected flit rate average = 0.021125
	minimum = 0.013 (at node 1)
	maximum = 0.029 (at node 5)
Accepted flit rate average= 0.0205
	minimum = 0.01 (at node 7)
	maximum = 0.027 (at node 15)
Injected packet length average = 1
Accepted packet length average = 1
Total in-flight flits = 10 (0 measured)
latency change    = 1
throughput change = 1
Class 0:
Packet latency average = 19.8155
	minimum = 7
	maximum = 43
Network latency average = 19.8155
	minimum = 7
	maximum = 43
Slowest packet = 223069
Flit latency average = 19.8155
	minimum = 7
	maximum = 43
Slowest flit = 223069
Fragmentation average = 0
	minimum = 0
	maximum = 0
Injected packet rate average = 0.0202813
	minimum = 0.0105 (at node 1)
	maximum = 0.025 (at node 12)
Accepted packet rate average = 0.0201563
	minimum = 0.012 (at node 7)
	maximum = 0.0275 (at node 12)
Injected flit rate average = 0.0202813
	minimum = 0.0105 (at node 1)
	maximum = 0.025 (at node 12)
Accepted flit rate average= 0.0201563
	minimum = 0.012 (at node 7)
	maximum = 0.0275 (at node 12)
Injected packet length average = 1
Accepted packet length average = 1
Total in-flight flits = 4 (0 measured)
latency change    = 0.0319279
throughput change = 0.0170543
Class 0:
Packet latency average = 19.6957
	minimum = 7
	maximum = 37
Network latency average = 19.6957
	minimum = 7
	maximum = 37
Slowest packet = 223614
Flit latency average = 19.6957
	minimum = 7
	maximum = 37
Slowest flit = 223614
Fragmentation average = 0
	minimum = 0
	maximum = 0
Injected packet rate average = 0.02025
	minimum = 0.012 (at node 9)
	maximum = 0.027 (at node 3)
Accepted packet rate average = 0.020125
	minimum = 0.015 (at node 1)
	maximum = 0.029 (at node 3)
Injected flit rate average = 0.02025
	minimum = 0.012 (at node 9)
	maximum = 0.027 (at node 3)
Accepted flit rate average= 0.020125
	minimum = 0.015 (at node 1)
	maximum = 0.029 (at node 3)
Injected packet length average = 1
Accepted packet length average = 1
Total in-flight flits = 6 (0 measured)
latency change    = 0.00608519
throughput change = 0.0015528
Warmed up ...Time used is 3000 cycles
Class 0:
Packet latency average = 18.8964
	minimum = 7
	maximum = 37
Network latency average = 18.8964
	minimum = 7
	maximum = 37
Slowest packet = 223897
Flit latency average = 19.019
	minimum = 7
	maximum = 37
Slowest flit = 223883
Fragmentation average = 0
	minimum = 0
	maximum = 0
Injected packet rate average = 0.02
	minimum = 0.014 (at node 4)
	maximum = 0.026 (at node 15)
Accepted packet rate average = 0.0196875
	minimum = 0.014 (at node 2)
	maximum = 0.026 (at node 6)
Injected flit rate average = 0.02
	minimum = 0.014 (at node 4)
	maximum = 0.026 (at node 15)
Accepted flit rate average= 0.0196875
	minimum = 0.014 (at node 2)
	maximum = 0.026 (at node 6)
Injected packet length average = 1
Accepted packet length average = 1
Total in-flight flits = 11 (11 measured)
latency change    = 0.0422943
throughput change = 0.0222222
Class 0:
Packet latency average = 19.534
	minimum = 7
	maximum = 38
Network latency average = 19.534
	minimum = 7
	maximum = 38
Slowest packet = 224366
Flit latency average = 19.5884
	minimum = 7
	maximum = 38
Slowest flit = 224366
Fragmentation average = 0
	minimum = 0
	maximum = 0
Injected packet rate average = 0.0200313
	minimum = 0.0175 (at node 0)
	maximum = 0.025 (at node 12)
Accepted packet rate average = 0.0199688
	minimum = 0.0135 (at node 13)
	maximum = 0.026 (at node 6)
Injected flit rate average = 0.0200313
	minimum = 0.0175 (at node 0)
	maximum = 0.025 (at node 12)
Accepted flit rate average= 0.0199688
	minimum = 0.0135 (at node 13)
	maximum = 0.026 (at node 6)
Injected packet length average = 1
Accepted packet length average = 1
Total in-flight flits = 8 (8 measured)
latency change    = 0.0326367
throughput change = 0.0140845
Class 0:
Packet latency average = 19.3891
	minimum = 7
	maximum = 38
Network latency average = 19.3891
	minimum = 7
	maximum = 38
Slowest packet = 224366
Flit latency average = 19.4263
	minimum = 7
	maximum = 38
Slowest flit = 224366
Fragmentation average = 0
	minimum = 0
	maximum = 0
Injected packet rate average = 0.0199792
	minimum = 0.0163333 (at node 3)
	maximum = 0.0243333 (at node 11)
Accepted packet rate average = 0.0199375
	minimum = 0.0146667 (at node 13)
	maximum = 0.025 (at node 6)
Injected flit rate average = 0.0199792
	minimum = 0.0163333 (at node 3)
	maximum = 0.0243333 (at node 11)
Accepted flit rate average= 0.0199375
	minimum = 0.0146667 (at node 13)
	maximum = 0.025 (at node 6)
Injected packet length average = 1
Accepted packet length average = 1
Total in-flight flits = 8 (8 measured)
latency change    = 0.00747334
throughput change = 0.0015674
Draining all recorded packets ...
Draining remaining packets ...
Time taken is 6052 cycles
Class 0:
Packet latency average = 19.7036
	minimum = 7
	maximum = 37
Network latency average = 19.7036
	minimum = 7
	maximum = 37
Slowest packet = 224899
Flit latency average = 19.7036
	minimum = 7
	maximum = 37
Slowest flit = 224899
Fragmentation average = 0
	minimum = 0
	maximum = 0
Injected packet rate average = 0.0195625
	minimum = 0.014 (at node 9)
	maximum = 0.025 (at node 2)
Accepted packet rate average = 0.0191875
	minimum = 0.013 (at node 15)
	maximum = 0.031 (at node 7)
Injected flit rate average = 0.0195625
	minimum = 0.014 (at node 9)
	maximum = 0.025 (at node 2)
Accepted flit rate average= 0.0191875
	minimum = 0.013 (at node 15)
	maximum = 0.031 (at node 7)
Injected packet length average = 1
Accepted packet length average = 1
Total in-flight flits = 6 (0 measured)
latency change    = 1
throughput change = 1
Class 0:
Packet latency average = 19.8149
	minimum = 7
	maximum = 37
Network latency average = 19.8149
	minimum = 7
	maximum = 37
Slowest packet = 224899
Flit latency average = 19.8149
	minimum = 7
	maximum = 37
Slowest flit = 224899
Fragmentation average = 0
	minimum = 0
	maximum = 0
Injected packet rate average = 0.0189687
	minimum = 0.015 (at node 9)
	maximum = 0.025 (at node 12)
Accepted packet rate average = 0.0189062
	minimum = 0.015 (at node 9)
	maximum = 0.026 (at node 7)
Injected flit rate average = 0.0189687
	minimum = 0.015 (at node 9)
	maximum = 0.025 (at node 12)
Accepted flit rate average= 0.0189062
	minimum = 0.015 (at node 9)
	maximum = 0.026 (at node 7)
Injected packet length average = 1
Accepted packet length average = 1
Total in-flight flits = 2 (0 measured)
latency change    = 0.00561664
throughput change = 0.014876
Class 0:
Packet latency average = 19.7594
	minimum = 7
	maximum = 37
Network latency average = 19.7594
	minimum = 7
	maximum = 37
Slowest packet = 225545
Flit latency average = 19.7594
	minimum = 7
	maximum = 37
Slowest flit = 225545
Fragmentation average = 0
	minimum = 0
	maximum = 0
Injected packet rate average = 0.02025
	minimum = 0.015 (at node 13)
	maximum = 0.031 (at node 15)
Accepted packet rate average = 0.02
	minimum = 0.011 (at node 2)
	maximum = 0.028 (at node 7)
Injected flit rate average = 0.02025
	minimum = 0.015 (at node 13)
	maximum = 0.031 (at node 15)
Accepted flit rate average= 0.02
	minimum = 0.011 (at node 2)
	maximum = 0.028 (at node 7)
Injected packet length average = 1
Accepted packet length average = 1
Total in-flight flits = 6 (0 measured)
latency change    = 0.00280885
throughput change = 0.0546875
Warmed up ...Time used is 3000 cycles
Class 0:
Packet latency average = 19.3365
	minimum = 7
	maximum = 37
Network latency average = 19.3365
	minimum = 7
	maximum = 37
Slowest packet = 225899
Flit latency average = 19.4352
	minimum = 7
	maximum = 37
Slowest flit = 225899
Fragmentation average = 0
	minimum = 0
	maximum = 0
Injected packet rate average = 0.020375
	minimum = 0.015 (at node 6)
	maximum = 0.03 (at node 12)
Accepted packet rate average = 0.02025
	minimum = 0.014 (at node 4)
	maximum = 0.024 (at node 1)
Injected flit rate average = 0.020375
	minimum = 0.015 (at node 6)
	maximum = 0.03 (at node 12)
Accepted flit rate average= 0.02025
	minimum = 0.014 (at node 4)
	maximum = 0.024 (at node 1)
Injected packet length average = 1
Accepted packet length average = 1
Total in-flight flits = 8 (8 measured)
latency change    = 0.0218704
throughput change = 0.0123457
Class 0:
Packet latency average = 19.5096
	minimum = 7
	maximum = 37
Network latency average = 19.5096
	minimum = 7
	maximum = 37
Slowest packet = 225899
Flit latency average = 19.5589
	minimum = 7
	maximum = 37
Slowest flit = 225899
Fragmentation average = 0
	minimum = 0
	maximum = 0
Injected packet rate average = 0.0195312
	minimum = 0.015 (at node 11)
	maximum = 0.024 (at node 12)
Accepted packet rate average = 0.019625
	minimum = 0.016 (at node 6)
	maximum = 0.0235 (at node 7)
Injected flit rate average = 0.0195312
	minimum = 0.015 (at node 11)
	maximum = 0.024 (at node 12)
Accepted flit rate average= 0.019625
	minimum = 0.016 (at node 6)
	maximum = 0.0235 (at node 7)
Injected packet length average = 1
Accepted packet length average = 1
Total in-flight flits = 3 (3 measured)
latency change    = 0.00887604
throughput change = 0.0318471
Class 0:
Packet latency average = 19.5113
	minimum = 7
	maximum = 43
Network latency average = 19.5113
	minimum = 7
	maximum = 43
Slowest packet = 226638
Flit latency average = 19.5442
	minimum = 7
	maximum = 43
Slowest flit = 226638
Fragmentation average = 0
	minimum = 0
	maximum = 0
Injected packet rate average = 0.0195
	minimum = 0.0143333 (at node 11)
	maximum = 0.023 (at node 5)
Accepted packet rate average = 0.0195625
	minimum = 0.0146667 (at node 6)
	maximum = 0.0243333 (at node 0)
Injected flit rate average = 0.0195
	minimum = 0.0143333 (at node 11)
	maximum = 0.023 (at node 5)
Accepted flit rate average= 0.0195625
	minimum = 0.0146667 (at node 6)
	maximum = 0.0243333 (at node 0)
Injected packet length average = 1
Accepted packet length average = 1
Total in-flight flits = 3 (3 measured)
latency change    = 8.23995e-05
throughput change = 0.00319489
Draining all recorded packets ...
Draining remaining packets ...
Time taken is 6035 cycles
====== Overall Traffic Statistics ======
====== Traffic class 0 ======
Packet latency average = 19.5417 (100 samples)
	minimum = 7 (100 samples)
	maximum = 38.81 (100 samples)
Network latency average = 19.5417 (100 samples)
	minimum = 7 (100 samples)
	maximum = 38.81 (100 samples)
Flit latency average = 19.5538 (100 samples)
	minimum = 7 (100 samples)
	maximum = 38.81 (100 samples)
Fragmentation average = 0 (100 samples)
	minimum = 0 (100 samples)
	maximum = 0 (100 samples)
Injected packet rate average = 0.0200517 (100 samples)
	minimum = 0.0162057 (100 samples)
	maximum = 0.0240035 (100 samples)
Accepted packet rate average = 0.0200684 (100 samples)
	minimum = 0.016129 (100 samples)
	maximum = 0.0243442 (100 samples)
Injected flit rate average = 0.0200517 (100 samples)
	minimum = 0.0162057 (100 samples)
	maximum = 0.0240035 (100 samples)
Accepted flit rate average = 0.0200684 (100 samples)
	minimum = 0.016129 (100 samples)
	maximum = 0.0243442 (100 samples)
Injected packet size average = 1 (100 samples)
Accepted packet size average = 1 (100 samples)
Hops average = 3.49911 (100 samples)
Total run time 5.07166
