BEGIN Configuration File: /tmp/tmpbkxaw9ua.cfg
topology = mesh;
k = 4;
n = 2;
routing_function = min_adapt;
num_vcs = 4;
vc_buf_size = 4;
wait_for_tail_credit = 1;
vc_allocator = islip;
sw_allocator = islip;
alloc_iters = 1;
credit_delay = 2;
routing_delay = 1;
vc_alloc_delay = 1;
sw_alloc_delay = 1;
input_speedup = 2;
output_speedup = 1;
internal_speedup = 1.0;
traffic = transpose;
packet_size = 1;
sim_type = latency;
injection_rate = 0.01;
warmup_periods = 3;
sample_period = 1000;
sim_count = 100;
seed = 3;

END Configuration File: /tmp/tmpbkxaw9ua.cfg
Class 0:
Packet latency average = 19.8662
	minimum = 7
	maximum = 44
Network latency average = 19.8662
	minimum = 7
	maximum = 44
Slowest packet = 3
Flit latency average = 19.8662
	minimum = 7
	maximum = 44
Slowest flit = 3
Fragmentation average = 0
	minimum = 0
	maximum = 0
Injected packet rate average = 0.0100625
	minimum = 0.006 (at node 10)
	maximum = 0.017 (at node 1)
Accepted packet rate average = 0.0098125
	minimum = 0.006 (at node 10)
	maximum = 0.017 (at node 4)
Injected flit rate average = 0.0100625
	minimum = 0.006 (at node 10)
	maximum = 0.017 (at node 1)
Accepted flit rate average= 0.0098125
	minimum = 0.006 (at node 10)
	maximum = 0.017 (at node 4)
Injected packet length average = 1
Accepted packet length average = 1
Total in-flight flits = 4 (0 measured)
latency change    = 1
throughput change = 1
Class 0:
Packet latency average = 19.5689
	minimum = 7
	maximum = 44
Network latency average = 19.5689
	minimum = 7
	maximum = 44
Slowest packet = 3
Flit latency average = 19.5689
	minimum = 7
	maximum = 44
Slowest flit = 3
Fragmentation average = 0
	minimum = 0
	maximum = 0
Injected packet rate average = 0.0089375
	minimum = 0.006 (at node 10)
	maximum = 0.014 (at node 11)
Accepted packet rate average = 0.00884375
	minimum = 0.006 (at node 10)
	maximum = 0.0135 (at node 14)
Injected flit rate average = 0.0089375
	minimum = 0.006 (at node 10)
	maximum = 0.014 (at node 11)
Accepted flit rate average= 0.00884375
	minimum = 0.006 (at node 10)
	maximum = 0.0135 (at node 14)
Injected packet length average = 1
Accepted packet length average = 1
Total in-flight flits = 3 (0 measured)
latency change    = 0.0151944
throughput change = 0.109541
Class 0:
Packet latency average = 20.5278
	minimum = 7
	maximum = 43
Network latency average = 20.5278
	minimum = 7
	maximum = 43
Slowest packet = 373
Flit latency average = 20.5278
	minimum = 7
	maximum = 43
Slowest flit = 373
Fragmentation average = 0
	minimum = 0
	maximum = 0
Injected packet rate average = 0.009125
	minimum = 0.003 (at node 11)
	maximum = 0.016 (at node 12)
Accepted packet rate average = 0.009
	minimum = 0.004 (at node 14)
	maximum = 0.015 (at node 3)
Injected flit rate average = 0.009125
	minimum = 0.003 (at node 11)
	maximum = 0.016 (at node 12)
Accepted flit rate average= 0.009
	minimum = 0.004 (at node 14)
	maximum = 0.015 (at node 3)
Injected packet length average = 1
Accepted packet length average = 1
Total in-flight flits = 5 (0 measured)
latency change    = 0.046711
throughput change = 0.0173611
Warmed up ...Time used is 3000 cycles
Class 0:
Packet latency average = 19.2484
	minimum = 7
	maximum = 39
Network latency average = 19.2484
	minimum = 7
	maximum = 39
Slowest packet = 437
Flit latency average = 19.4937
	minimum = 7
	maximum = 39
Slowest flit = 437
Fragmentation average = 0
	minimum = 0
	maximum = 0
Injected packet rate average = 0.0098125
	minimum = 0.006 (at node 2)
	maximum = 0.014 (at node 8)
Accepted packet rate average = 0.009875
	minimum = 0.006 (at node 1)
	maximum = 0.015 (at node 2)
Injected flit rate average = 0.0098125
	minimum = 0.006 (at node 2)
	maximum = 0.014 (at node 8)
Accepted flit rate average= 0.009875
	minimum = 0.006 (at node 1)
	maximum = 0.015 (at node 2)
Injected packet length average = 1
Accepted packet length average = 1
Total in-flight flits = 4 (4 measured)
latency change    = 0.0664686
throughput change = 0.0886076
Class 0:
Packet latency average = 18.9627
	minimum = 7
	maximum = 44
Network latency average = 18.9627
	minimum = 7
	maximum = 44
Slowest packet = 643
Flit latency average = 19.0856
	minimum = 7
	maximum = 44
Slowest flit = 643
Fragmentation average = 0
	minimum = 0
	maximum = 0
Injected packet rate average = 0.0101563
	minimum = 0.008 (at node 2)
	maximum = 0.0125 (at node 1)
Accepted packet rate average = 0.0102188
	minimum = 0.008 (at node 1)
	maximum = 0.013 (at node 4)
Injected flit rate average = 0.0101563
	minimum = 0.008 (at node 2)
	maximum = 0.0125 (at node 1)
Accepted flit rate average= 0.0102188
	minimum = 0.008 (at node 1)
	maximum = 0.013 (at node 4)
Injected packet length average = 1
Accepted packet length average = 1
Total in-flight flits = 3 (3 measured)
latency change    = 0.0150629
throughput change = 0.0336391
Class 0:
Packet latency average = 18.9242
	minimum = 7
	maximum = 46
Network latency average = 18.9242
	minimum = 7
	maximum = 46
Slowest packet = 792
Flit latency average = 19.004
	minimum = 7
	maximum = 46
Slowest flit = 792
Fragmentation average = 0
	minimum = 0
	maximum = 0
Injected packet rate average = 0.0105833
	minimum = 0.00666667 (at node 2)
	maximum = 0.013 (at node 10)
Accepted packet rate average = 0.0105417
	minimum = 0.00666667 (at node 8)
	maximum = 0.013 (at node 10)
Injected flit rate average = 0.0105833
	minimum = 0.00666667 (at node 2)
	maximum = 0.013 (at node 10)
Accepted flit rate average= 0.0105417
	minimum = 0.00666667 (at node 8)
	maximum = 0.013 (at node 10)
Injected packet length average = 1
Accepted packet length average = 1
Total in-flight flits = 7 (7 measured)
latency change    = 0.00203873
throughput change = 0.0306324
Class 0:
Packet latency average = 19.003
	minimum = 7
	maximum = 46
Network latency average = 19.003
	minimum = 7
	maximum = 46
Slowest packet = 792
Flit latency average = 19.0633
	minimum = 7
	maximum = 46
Slowest flit = 792
Fragmentation average = 0
	minimum = 0
	maximum = 0
Injected packet rate average = 0.0103281
	minimum = 0.007 (at node 2)
	maximum = 0.0125 (at node 6)
Accepted packet rate average = 0.0103594
	minimum = 0.007 (at node 8)
	maximum = 0.01275 (at node 9)
Injected flit rate average = 0.0103281
	minimum = 0.007 (at node 2)
	maximum = 0.0125 (at node 6)
Accepted flit rate average= 0.0103594
	minimum = 0.007 (at node 8)
	maximum = 0.01275 (at node 9)
Injected packet length average = 1
Accepted packet length average = 1
Total in-flight flits = 3 (3 measured)
latency change    = 0.00415133
throughput change = 0.0175968
Draining all recorded packets ...
Draining remaining packets ...
Time taken is 7041 cycles
Class 0:
Packet latency average = 18.8155
	minimum = 7
	maximum = 51
Network latency average = 18.8155
	minimum = 7
	maximum = 51
Slowest packet = 1191
Flit latency average = 18.8155
	minimum = 7
	maximum = 51
Slowest flit = 1191
Fragmentation average = 0
	minimum = 0
	maximum = 0
Injected packet rate average = 0.0105625
	minimum = 0.005 (at node 4)
	maximum = 0.019 (at node 0)
Accepted packet rate average = 0.0105
	minimum = 0.005 (at node 1)
	maximum = 0.019 (at node 0)
Injected flit rate average = 0.0105625
	minimum = 0.005 (at node 4)
	maximum = 0.019 (at node 0)
Accepted flit rate average= 0.0105
	minimum = 0.005 (at node 1)
	maximum = 0.019 (at node 0)
Injected packet length average = 1
Accepted packet length average = 1
Total in-flight flits = 1 (0 measured)
latency change    = 1
throughput change = 1
Class 0:
Packet latency average = 18.4688
	minimum = 7
	maximum = 51
Network latency average = 18.4688
	minimum = 7
	maximum = 51
Slowest packet = 1191
Flit latency average = 18.4688
	minimum = 7
	maximum = 51
Slowest flit = 1191
Fragmentation average = 0
	minimum = 0
	maximum = 0
Injected packet rate average = 0.0105938
	minimum = 0.0055 (at node 14)
	maximum = 0.016 (at node 0)
Accepted packet rate average = 0.0105313
	minimum = 0.0055 (at node 11)
	maximum = 0.016 (at node 0)
Injected flit rate average = 0.0105938
	minimum = 0.0055 (at node 14)
	maximum = 0.016 (at node 0)
Accepted flit rate average= 0.0105313
	minimum = 0.0055 (at node 11)
	maximum = 0.016 (at node 0)
Injected packet length average = 1
Accepted packet length average = 1
Total in-flight flits = 2 (0 measured)
latency change    = 0.0187686
throughput change = 0.00296736
Class 0:
Packet latency average = 18.5515
	minimum = 7
	maximum = 39
Network latency average = 18.5515
	minimum = 7
	maximum = 39
Slowest packet = 1534
Flit latency average = 18.5515
	minimum = 7
	maximum = 39
Slowest flit = 1534
Fragmentation average = 0
	minimum = 0
	maximum = 0
Injected packet rate average = 0.0105
	minimum = 0.004 (at node 8)
	maximum = 0.014 (at node 11)
Accepted packet rate average = 0.0103125
	minimum = 0.004 (at node 2)
	maximum = 0.014 (at node 14)
Injected flit rate average = 0.0105
	minimum = 0.004 (at node 8)
	maximum = 0.014 (at node 11)
Accepted flit rate average= 0.0103125
	minimum = 0.004 (at node 2)
	maximum = 0.014 (at node 14)
Injected packet length average = 1
Accepted packet length average = 1
Total in-flight flits = 5 (0 measured)
latency change    = 0.00445637
throughput change = 0.0212121
Warmed up ...Time used is 3000 cycles
Class 0:
Packet latency average = 19.7353
	minimum = 7
	maximum = 45
Network latency average = 19.7353
	minimum = 7
	maximum = 45
Slowest packet = 1674
Flit latency average = 20
	minimum = 7
	maximum = 45
Slowest flit = 1674
Fragmentation average = 0
	minimum = 0
	maximum = 0
Injected packet rate average = 0.0106875
	minimum = 0.006 (at node 1)
	maximum = 0.016 (at node 8)
Accepted packet rate average = 0.0109375
	minimum = 0.006 (at node 4)
	maximum = 0.016 (at node 0)
Injected flit rate average = 0.0106875
	minimum = 0.006 (at node 1)
	maximum = 0.016 (at node 8)
Accepted flit rate average= 0.0109375
	minimum = 0.006 (at node 4)
	maximum = 0.016 (at node 0)
Injected packet length average = 1
Accepted packet length average = 1
Total in-flight flits = 1 (1 measured)
latency change    = 0.0599828
throughput change = 0.0571429
Class 0:
Packet latency average = 20.0882
	minimum = 7
	maximum = 45
Network latency average = 20.0882
	minimum = 7
	maximum = 45
Slowest packet = 1674
Flit latency average = 20.2315
	minimum = 7
	maximum = 45
Slowest flit = 1674
Fragmentation average = 0
	minimum = 0
	maximum = 0
Injected packet rate average = 0.009625
	minimum = 0.0045 (at node 15)
	maximum = 0.0125 (at node 0)
Accepted packet rate average = 0.00971875
	minimum = 0.0045 (at node 15)
	maximum = 0.013 (at node 0)
Injected flit rate average = 0.009625
	minimum = 0.0045 (at node 15)
	maximum = 0.0125 (at node 0)
Accepted flit rate average= 0.00971875
	minimum = 0.0045 (at node 15)
	maximum = 0.013 (at node 0)
Injected packet length average = 1
Accepted packet length average = 1
Total in-flight flits = 2 (2 measured)
latency change    = 0.0175695
throughput change = 0.125402
Class 0:
Packet latency average = 20.2393
	minimum = 7
	maximum = 49
Network latency average = 20.2393
	minimum = 7
	maximum = 49
Slowest packet = 2019
Flit latency average = 20.3319
	minimum = 7
	maximum = 49
Slowest flit = 2019
Fragmentation average = 0
	minimum = 0
	maximum = 0
Injected packet rate average = 0.00979167
	minimum = 0.00533333 (at node 15)
	maximum = 0.0123333 (at node 9)
Accepted packet rate average = 0.00985417
	minimum = 0.00533333 (at node 15)
	maximum = 0.0123333 (at node 0)
Injected flit rate average = 0.00979167
	minimum = 0.00533333 (at node 15)
	maximum = 0.0123333 (at node 9)
Accepted flit rate average= 0.00985417
	minimum = 0.00533333 (at node 15)
	maximum = 0.0123333 (at node 0)
Injected packet length average = 1
Accepted packet length average = 1
Total in-flight flits = 2 (2 measured)
latency change    = 0.00746473
throughput change = 0.0137421
Class 0:
Packet latency average = 20.1424
	minimum = 7
	maximum = 49
Network latency average = 20.1424
	minimum = 7
	maximum = 49
Slowest packet = 2019
Flit latency average = 20.2112
	minimum = 7
	maximum = 49
Slowest flit = 2019
Fragmentation average = 0
	minimum = 0
	maximum = 0
Injected packet rate average = 0.0100625
	minimum = 0.0065 (at node 15)
	maximum = 0.01275 (at node 9)
Accepted packet rate average = 0.0100625
	minimum = 0.0065 (at node 15)
	maximum = 0.01275 (at node 6)
Injected flit rate average = 0.0100625
	minimum = 0.0065 (at node 15)
	maximum = 0.01275 (at node 9)
Accepted flit rate average= 0.0100625
	minimum = 0.0065 (at node 15)
	maximum = 0.01275 (at node 6)
Injected packet length average = 1
Accepted packet length average = 1
Total in-flight flits = 5 (5 measured)
latency change    = 0.00481105
throughput change = 0.0207039
Class 0:
Packet latency average = 20.2124
	minimum = 7
	maximum = 49
Network latency average = 20.2124
	minimum = 7
	maximum = 49
Slowest packet = 2019
Flit latency average = 20.2667
	minimum = 7
	maximum = 49
Slowest flit = 2019
Fragmentation average = 0
	minimum = 0
	maximum = 0
Injected packet rate average = 0.0101125
	minimum = 0.0064 (at node 15)
	maximum = 0.0134 (at node 9)
Accepted packet rate average = 0.010125
	minimum = 0.0064 (at node 15)
	maximum = 0.0132 (at node 6)
Injected flit rate average = 0.0101125
	minimum = 0.0064 (at node 15)
	maximum = 0.0134 (at node 9)
Accepted flit rate average= 0.010125
	minimum = 0.0064 (at node 15)
	maximum = 0.0132 (at node 6)
Injected packet length average = 1
Accepted packet length average = 1
Total in-flight flits = 4 (4 measured)
latency change    = 0.00346383
throughput change = 0.00617284
Draining all recorded packets ...
Draining remaining packets ...
Time taken is 8053 cycles
Class 0:
Packet latency average = 19.7124
	minimum = 7
	maximum = 58
Network latency average = 19.7124
	minimum = 7
	maximum = 58
Slowest packet = 2542
Flit latency average = 19.7124
	minimum = 7
	maximum = 58
Slowest flit = 2542
Fragmentation average = 0
	minimum = 0
	maximum = 0
Injected packet rate average = 0.0098125
	minimum = 0.005 (at node 10)
	maximum = 0.015 (at node 1)
Accepted packet rate average = 0.0095625
	minimum = 0.005 (at node 10)
	maximum = 0.015 (at node 4)
Injected flit rate average = 0.0098125
	minimum = 0.005 (at node 10)
	maximum = 0.015 (at node 1)
Accepted flit rate average= 0.0095625
	minimum = 0.005 (at node 10)
	maximum = 0.015 (at node 4)
Injected packet length average = 1
Accepted packet length average = 1
Total in-flight flits = 4 (0 measured)
latency change    = 1
throughput change = 1
Class 0:
Packet latency average = 20.0095
	minimum = 7
	maximum = 58
Network latency average = 20.0095
	minimum = 7
	maximum = 58
Slowest packet = 2542
Flit latency average = 20.0095
	minimum = 7
	maximum = 58
Slowest flit = 2542
Fragmentation average = 0
	minimum = 0
	maximum = 0
Injected packet rate average = 0.00996875
	minimum = 0.0075 (at node 5)
	maximum = 0.0135 (at node 9)
Accepted packet rate average = 0.00990625
	minimum = 0.0075 (at node 2)
	maximum = 0.0135 (at node 6)
Injected flit rate average = 0.00996875
	minimum = 0.0075 (at node 5)
	maximum = 0.0135 (at node 9)
Accepted flit rate average= 0.00990625
	minimum = 0.0075 (at node 2)
	maximum = 0.0135 (at node 6)
Injected packet length average = 1
Accepted packet length average = 1
Total in-flight flits = 2 (0 measured)
latency change    = 0.0148452
throughput change = 0.0347003
Class 0:
Packet latency average = 19.638
	minimum = 7
	maximum = 50
Network latency average = 19.638
	minimum = 7
	maximum = 50
Slowest packet = 2776
Flit latency average = 19.638
	minimum = 7
	maximum = 50
Slowest flit = 2776
Fragmentation average = 0
	minimum = 0
	maximum = 0
Injected packet rate average = 0.0103125
	minimum = 0.004 (at node 4)
	maximum = 0.016 (at node 11)
Accepted packet rate average = 0.0101875
	minimum = 0.004 (at node 1)
	maximum = 0.016 (at node 14)
Injected flit rate average = 0.0103125
	minimum = 0.004 (at node 4)
	maximum = 0.016 (at node 11)
Accepted flit rate average= 0.0101875
	minimum = 0.004 (at node 1)
	maximum = 0.016 (at node 14)
Injected packet length average = 1
Accepted packet length average = 1
Total in-flight flits = 4 (0 measured)
latency change    = 0.0189136
throughput change = 0.0276074
Warmed up ...Time used is 3000 cycles
Class 0:
Packet latency average = 19.5155
	minimum = 7
	maximum = 46
Network latency average = 19.5155
	minimum = 7
	maximum = 46
Slowest packet = 2939
Flit latency average = 19.6364
	minimum = 7
	maximum = 46
Slowest flit = 2939
Fragmentation average = 0
	minimum = 0
	maximum = 0
Injected packet rate average = 0.0104375
	minimum = 0.006 (at node 1)
	maximum = 0.016 (at node 4)
Accepted packet rate average = 0.0103125
	minimum = 0.006 (at node 4)
	maximum = 0.015 (at node 1)
Injected flit rate average = 0.0104375
	minimum = 0.006 (at node 1)
	maximum = 0.016 (at node 4)
Accepted flit rate average= 0.0103125
	minimum = 0.006 (at node 4)
	maximum = 0.015 (at node 1)
Injected packet length average = 1
Accepted packet length average = 1
Total in-flight flits = 6 (6 measured)
latency change    = 0.00627751
throughput change = 0.0121212
Class 0:
Packet latency average = 19.5123
	minimum = 7
	maximum = 46
Network latency average = 19.5123
	minimum = 7
	maximum = 46
Slowest packet = 2939
Flit latency average = 19.5732
	minimum = 7
	maximum = 46
Slowest flit = 2939
Fragmentation average = 0
	minimum = 0
	maximum = 0
Injected packet rate average = 0.0102813
	minimum = 0.006 (at node 15)
	maximum = 0.015 (at node 5)
Accepted packet rate average = 0.01025
	minimum = 0.006 (at node 15)
	maximum = 0.015 (at node 5)
Injected flit rate average = 0.0102813
	minimum = 0.006 (at node 15)
	maximum = 0.015 (at node 5)
Accepted flit rate average= 0.01025
	minimum = 0.006 (at node 15)
	maximum = 0.015 (at node 5)
Injected packet length average = 1
Accepted packet length average = 1
Total in-flight flits = 5 (5 measured)
latency change    = 0.00016309
throughput change = 0.00609756
Class 0:
Packet latency average = 20.022
	minimum = 7
	maximum = 46
Network latency average = 20.022
	minimum = 7
	maximum = 46
Slowest packet = 2939
Flit latency average = 20.0577
	minimum = 7
	maximum = 46
Slowest flit = 2939
Fragmentation average = 0
	minimum = 0
	maximum = 0
Injected packet rate average = 0.0104583
	minimum = 0.00666667 (at node 15)
	maximum = 0.0136667 (at node 13)
Accepted packet rate average = 0.0104792
	minimum = 0.00666667 (at node 15)
	maximum = 0.014 (at node 7)
Injected flit rate average = 0.0104583
	minimum = 0.00666667 (at node 15)
	maximum = 0.0136667 (at node 13)
Accepted flit rate average= 0.0104792
	minimum = 0.00666667 (at node 15)
	maximum = 0.014 (at node 7)
Injected packet length average = 1
Accepted packet length average = 1
Total in-flight flits = 3 (3 measured)
latency change    = 0.0254569
throughput change = 0.0218688
Draining all recorded packets ...
Draining remaining packets ...
Time taken is 6052 cycles
Class 0:
Packet latency average = 18.9
	minimum = 7
	maximum = 46
Network latency average = 18.9
	minimum = 7
	maximum = 46
Slowest packet = 3439
Flit latency average = 18.9
	minimum = 7
	maximum = 46
Slowest flit = 3439
Fragmentation average = 0
	minimum = 0
	maximum = 0
Injected packet rate average = 0.0114375
	minimum = 0.007 (at node 14)
	maximum = 0.016 (at node 11)
Accepted packet rate average = 0.01125
	minimum = 0.007 (at node 11)
	maximum = 0.016 (at node 14)
Injected flit rate average = 0.0114375
	minimum = 0.007 (at node 14)
	maximum = 0.016 (at node 11)
Accepted flit rate average= 0.01125
	minimum = 0.007 (at node 11)
	maximum = 0.016 (at node 14)
Injected packet length average = 1
Accepted packet length average = 1
Total in-flight flits = 3 (0 measured)
latency change    = 1
throughput change = 1
Class 0:
Packet latency average = 19.1247
	minimum = 7
	maximum = 46
Network latency average = 19.1247
	minimum = 7
	maximum = 46
Slowest packet = 3439
Flit latency average = 19.1247
	minimum = 7
	maximum = 46
Slowest flit = 3439
Fragmentation average = 0
	minimum = 0
	maximum = 0
Injected packet rate average = 0.0114062
	minimum = 0.008 (at node 14)
	maximum = 0.0145 (at node 0)
Accepted packet rate average = 0.0112812
	minimum = 0.008 (at node 11)
	maximum = 0.0145 (at node 0)
Injected flit rate average = 0.0114062
	minimum = 0.008 (at node 14)
	maximum = 0.0145 (at node 0)
Accepted flit rate average= 0.0112812
	minimum = 0.008 (at node 11)
	maximum = 0.0145 (at node 0)
Injected packet length average = 1
Accepted packet length average = 1
Total in-flight flits = 4 (0 measured)
latency change    = 0.0117468
throughput change = 0.00277008
Class 0:
Packet latency average = 19.7151
	minimum = 7
	maximum = 43
Network latency average = 19.7151
	minimum = 7
	maximum = 43
Slowest packet = 3816
Flit latency average = 19.7151
	minimum = 7
	maximum = 43
Slowest flit = 3816
Fragmentation average = 0
	minimum = 0
	maximum = 0
Injected packet rate average = 0.0105
	minimum = 0.004 (at node 12)
	maximum = 0.021 (at node 2)
Accepted packet rate average = 0.01075
	minimum = 0.004 (at node 3)
	maximum = 0.021 (at node 8)
Injected flit rate average = 0.0105
	minimum = 0.004 (at node 12)
	maximum = 0.021 (at node 2)
Accepted flit rate average= 0.01075
	minimum = 0.004 (at node 3)
	maximum = 0.021 (at node 8)
Injected packet length average = 1
Accepted packet length average = 1
Total in-flight flits = 0 (0 measured)
latency change    = 0.0299497
throughput change = 0.0494186
Warmed up ...Time used is 3000 cycles
Class 0:
Packet latency average = 20.325
	minimum = 7
	maximum = 44
Network latency average = 20.325
	minimum = 7
	maximum = 44
Slowest packet = 4023
Flit latency average = 20.325
	minimum = 7
	maximum = 44
Slowest flit = 4023
Fragmentation average = 0
	minimum = 0
	maximum = 0
Injected packet rate average = 0.0100625
	minimum = 0.006 (at node 7)
	maximum = 0.014 (at node 9)
Accepted packet rate average = 0.01
	minimum = 0.006 (at node 5)
	maximum = 0.014 (at node 6)
Injected flit rate average = 0.0100625
	minimum = 0.006 (at node 7)
	maximum = 0.014 (at node 9)
Accepted flit rate average= 0.01
	minimum = 0.006 (at node 5)
	maximum = 0.014 (at node 6)
Injected packet length average = 1
Accepted packet length average = 1
Total in-flight flits = 1 (1 measured)
latency change    = 0.0300066
throughput change = 0.075
Class 0:
Packet latency average = 19.9385
	minimum = 7
	maximum = 45
Network latency average = 19.9385
	minimum = 7
	maximum = 45
Slowest packet = 4143
Flit latency average = 19.9385
	minimum = 7
	maximum = 45
Slowest flit = 4143
Fragmentation average = 0
	minimum = 0
	maximum = 0
Injected packet rate average = 0.0102813
	minimum = 0.007 (at node 15)
	maximum = 0.015 (at node 9)
Accepted packet rate average = 0.0101563
	minimum = 0.007 (at node 15)
	maximum = 0.015 (at node 6)
Injected flit rate average = 0.0102813
	minimum = 0.007 (at node 15)
	maximum = 0.015 (at node 9)
Accepted flit rate average= 0.0101563
	minimum = 0.007 (at node 15)
	maximum = 0.015 (at node 6)
Injected packet length average = 1
Accepted packet length average = 1
Total in-flight flits = 4 (4 measured)
latency change    = 0.0193866
throughput change = 0.0153846
Class 0:
Packet latency average = 20.1406
	minimum = 7
	maximum = 45
Network latency average = 20.1406
	minimum = 7
	maximum = 45
Slowest packet = 4143
Flit latency average = 20.1406
	minimum = 7
	maximum = 45
Slowest flit = 4143
Fragmentation average = 0
	minimum = 0
	maximum = 0
Injected packet rate average = 0.0104583
	minimum = 0.007 (at node 1)
	maximum = 0.015 (at node 9)
Accepted packet rate average = 0.010375
	minimum = 0.007 (at node 4)
	maximum = 0.0146667 (at node 6)
Injected flit rate average = 0.0104583
	minimum = 0.007 (at node 1)
	maximum = 0.015 (at node 9)
Accepted flit rate average= 0.010375
	minimum = 0.007 (at node 4)
	maximum = 0.0146667 (at node 6)
Injected packet length average = 1
Accepted packet length average = 1
Total in-flight flits = 4 (4 measured)
latency change    = 0.0100345
throughput change = 0.0210843
Class 0:
Packet latency average = 20.3563
	minimum = 7
	maximum = 46
Network latency average = 20.3563
	minimum = 7
	maximum = 46
Slowest packet = 4457
Flit latency average = 20.3563
	minimum = 7
	maximum = 46
Slowest flit = 4457
Fragmentation average = 0
	minimum = 0
	maximum = 0
Injected packet rate average = 0.0103125
	minimum = 0.00775 (at node 1)
	maximum = 0.0135 (at node 9)
Accepted packet rate average = 0.0102188
	minimum = 0.00775 (at node 4)
	maximum = 0.0135 (at node 6)
Injected flit rate average = 0.0103125
	minimum = 0.00775 (at node 1)
	maximum = 0.0135 (at node 9)
Accepted flit rate average= 0.0102188
	minimum = 0.00775 (at node 4)
	maximum = 0.0135 (at node 6)
Injected packet length average = 1
Accepted packet length average = 1
Total in-flight flits = 6 (6 measured)
latency change    = 0.0105966
throughput change = 0.0152905
Draining all recorded packets ...
Draining remaining packets ...
Time taken is 7050 cycles
Class 0:
Packet latency average = 18.6917
	minimum = 7
	maximum = 43
Network latency average = 18.6917
	minimum = 7
	maximum = 43
Slowest packet = 4700
Flit latency average = 18.6917
	minimum = 7
	maximum = 43
Slowest flit = 4700
Fragmentation average = 0
	minimum = 0
	maximum = 0
Injected packet rate average = 0.0085625
	minimum = 0.003 (at node 3)
	maximum = 0.011 (at node 4)
Accepted packet rate average = 0.0083125
	minimum = 0.003 (at node 12)
	maximum = 0.011 (at node 2)
Injected flit rate average = 0.0085625
	minimum = 0.003 (at node 3)
	maximum = 0.011 (at node 4)
Accepted flit rate average= 0.0083125
	minimum = 0.003 (at node 12)
	maximum = 0.011 (at node 2)
Injected packet length average = 1
Accepted packet length average = 1
Total in-flight flits = 4 (0 measured)
latency change    = 1
throughput change = 1
Class 0:
Packet latency average = 18.7993
	minimum = 7
	maximum = 45
Network latency average = 18.7993
	minimum = 7
	maximum = 45
Slowest packet = 4833
Flit latency average = 18.7993
	minimum = 7
	maximum = 45
Slowest flit = 4833
Fragmentation average = 0
	minimum = 0
	maximum = 0
Injected packet rate average = 0.00878125
	minimum = 0.005 (at node 3)
	maximum = 0.0125 (at node 15)
Accepted packet rate average = 0.00871875
	minimum = 0.005 (at node 12)
	maximum = 0.0125 (at node 15)
Injected flit rate average = 0.00878125
	minimum = 0.005 (at node 3)
	maximum = 0.0125 (at node 15)
Accepted flit rate average= 0.00871875
	minimum = 0.005 (at node 12)
	maximum = 0.0125 (at node 15)
Injected packet length average = 1
Accepted packet length average = 1
Total in-flight flits = 2 (0 measured)
latency change    = 0.00572117
throughput change = 0.046595
Class 0:
Packet latency average = 19.1138
	minimum = 7
	maximum = 38
Network latency average = 19.1138
	minimum = 7
	maximum = 38
Slowest packet = 4966
Flit latency average = 19.1138
	minimum = 7
	maximum = 38
Slowest flit = 4966
Fragmentation average = 0
	minimum = 0
	maximum = 0
Injected packet rate average = 0.0105
	minimum = 0.007 (at node 11)
	maximum = 0.015 (at node 1)
Accepted packet rate average = 0.0104375
	minimum = 0.007 (at node 14)
	maximum = 0.015 (at node 4)
Injected flit rate average = 0.0105
	minimum = 0.007 (at node 11)
	maximum = 0.015 (at node 1)
Accepted flit rate average= 0.0104375
	minimum = 0.007 (at node 14)
	maximum = 0.015 (at node 4)
Injected packet length average = 1
Accepted packet length average = 1
Total in-flight flits = 3 (0 measured)
latency change    = 0.0164535
throughput change = 0.164671
Warmed up ...Time used is 3000 cycles
Class 0:
Packet latency average = 20.7386
	minimum = 7
	maximum = 46
Network latency average = 20.7386
	minimum = 7
	maximum = 46
Slowest packet = 5103
Flit latency average = 20.7949
	minimum = 7
	maximum = 46
Slowest flit = 5103
Fragmentation average = 0
	minimum = 0
	maximum = 0
Injected packet rate average = 0.0098125
	minimum = 0.004 (at node 9)
	maximum = 0.013 (at node 1)
Accepted packet rate average = 0.00975
	minimum = 0.005 (at node 6)
	maximum = 0.014 (at node 3)
Injected flit rate average = 0.0098125
	minimum = 0.004 (at node 9)
	maximum = 0.013 (at node 1)
Accepted flit rate average= 0.00975
	minimum = 0.005 (at node 6)
	maximum = 0.014 (at node 3)
Injected packet length average = 1
Accepted packet length average = 1
Total in-flight flits = 4 (4 measured)
latency change    = 0.0783463
throughput change = 0.0705128
Class 0:
Packet latency average = 20.4133
	minimum = 7
	maximum = 46
Network latency average = 20.4133
	minimum = 7
	maximum = 46
Slowest packet = 5103
Flit latency average = 20.4455
	minimum = 7
	maximum = 46
Slowest flit = 5103
Fragmentation average = 0
	minimum = 0
	maximum = 0
Injected packet rate average = 0.00953125
	minimum = 0.0055 (at node 9)
	maximum = 0.013 (at node 3)
Accepted packet rate average = 0.00946875
	minimum = 0.006 (at node 6)
	maximum = 0.013 (at node 12)
Injected flit rate average = 0.00953125
	minimum = 0.0055 (at node 9)
	maximum = 0.013 (at node 3)
Accepted flit rate average= 0.00946875
	minimum = 0.006 (at node 6)
	maximum = 0.013 (at node 12)
Injected packet length average = 1
Accepted packet length average = 1
Total in-flight flits = 5 (5 measured)
latency change    = 0.0159322
throughput change = 0.029703
Class 0:
Packet latency average = 20.7402
	minimum = 7
	maximum = 46
Network latency average = 20.7402
	minimum = 7
	maximum = 46
Slowest packet = 5103
Flit latency average = 20.7582
	minimum = 7
	maximum = 46
Slowest flit = 5103
Fragmentation average = 0
	minimum = 0
	maximum = 0
Injected packet rate average = 0.010125
	minimum = 0.007 (at node 4)
	maximum = 0.0133333 (at node 13)
Accepted packet rate average = 0.0101667
	minimum = 0.007 (at node 1)
	maximum = 0.0133333 (at node 3)
Injected flit rate average = 0.010125
	minimum = 0.007 (at node 4)
	maximum = 0.0133333 (at node 13)
Accepted flit rate average= 0.0101667
	minimum = 0.007 (at node 1)
	maximum = 0.0133333 (at node 3)
Injected packet length average = 1
Accepted packet length average = 1
Total in-flight flits = 1 (1 measured)
latency change    = 0.0157603
throughput change = 0.0686475
Class 0:
Packet latency average = 20.3109
	minimum = 7
	maximum = 47
Network latency average = 20.3109
	minimum = 7
	maximum = 47
Slowest packet = 5542
Flit latency average = 20.3266
	minimum = 7
	maximum = 47
Slowest flit = 5542
Fragmentation average = 0
	minimum = 0
	maximum = 0
Injected packet rate average = 0.01
	minimum = 0.008 (at node 9)
	maximum = 0.013 (at node 13)
Accepted packet rate average = 0.0100469
	minimum = 0.00825 (at node 6)
	maximum = 0.013 (at node 7)
Injected flit rate average = 0.01
	minimum = 0.008 (at node 9)
	maximum = 0.013 (at node 13)
Accepted flit rate average= 0.0100469
	minimum = 0.00825 (at node 6)
	maximum = 0.013 (at node 7)
Injected packet length average = 1
Accepted packet length average = 1
Total in-flight flits = 0 (0 measured)
latency change    = 0.0211349
throughput change = 0.0119233
Class 0:
Packet latency average = 19.78
	minimum = 7
	maximum = 47
Network latency average = 19.78
	minimum = 7
	maximum = 47
Slowest packet = 5542
Flit latency average = 19.7945
	minimum = 7
	maximum = 47
Slowest flit = 5542
Fragmentation average = 0
	minimum = 0
	maximum = 0
Injected packet rate average = 0.0100375
	minimum = 0.0086 (at node 9)
	maximum = 0.0122 (at node 13)
Accepted packet rate average = 0.0100375
	minimum = 0.0086 (at node 6)
	maximum = 0.0122 (at node 7)
Injected flit rate average = 0.0100375
	minimum = 0.0086 (at node 9)
	maximum = 0.0122 (at node 13)
Accepted flit rate average= 0.0100375
	minimum = 0.0086 (at node 6)
	maximum = 0.0122 (at node 7)
Injected packet length average = 1
Accepted packet length average = 1
Total in-flight flits = 3 (3 measured)
latency change    = 0.0268421
throughput change = 0.000933998
Class 0:
Packet latency average = 19.7904
	minimum = 7
	maximum = 47
Network latency average = 19.7904
	minimum = 7
	maximum = 47
Slowest packet = 5542
Flit latency average = 19.8025
	minimum = 7
	maximum = 47
Slowest flit = 5542
Fragmentation average = 0
	minimum = 0
	maximum = 0
Injected packet rate average = 0.00998958
	minimum = 0.00833333 (at node 7)
	maximum = 0.0118333 (at node 13)
Accepted packet rate average = 0.00996875
	minimum = 0.00833333 (at node 10)
	maximum = 0.0118333 (at node 7)
Injected flit rate average = 0.00998958
	minimum = 0.00833333 (at node 7)
	maximum = 0.0118333 (at node 13)
Accepted flit rate average= 0.00996875
	minimum = 0.00833333 (at node 10)
	maximum = 0.0118333 (at node 7)
Injected packet length average = 1
Accepted packet length average = 1
Total in-flight flits = 5 (5 measured)
latency change    = 0.000523305
throughput change = 0.00689655
Draining all recorded packets ...
Draining remaining packets ...
Time taken is 9040 cycles
Class 0:
Packet latency average = 19.4918
	minimum = 7
	maximum = 42
Network latency average = 19.4918
	minimum = 7
	maximum = 42
Slowest packet = 6167
Flit latency average = 19.4918
	minimum = 7
	maximum = 42
Slowest flit = 6167
Fragmentation average = 0
	minimum = 0
	maximum = 0
Injected packet rate average = 0.01175
	minimum = 0.006 (at node 2)
	maximum = 0.017 (at node 15)
Accepted packet rate average = 0.0114375
	minimum = 0.006 (at node 8)
	maximum = 0.017 (at node 15)
Injected flit rate average = 0.01175
	minimum = 0.006 (at node 2)
	maximum = 0.017 (at node 15)
Accepted flit rate average= 0.0114375
	minimum = 0.006 (at node 8)
	maximum = 0.017 (at node 15)
Injected packet length average = 1
Accepted packet length average = 1
Total in-flight flits = 5 (0 measured)
latency change    = 1
throughput change = 1
Class 0:
Packet latency average = 19.5279
	minimum = 7
	maximum = 42
Network latency average = 19.5279
	minimum = 7
	maximum = 42
Slowest packet = 6167
Flit latency average = 19.5279
	minimum = 7
	maximum = 42
Slowest flit = 6167
Fragmentation average = 0
	minimum = 0
	maximum = 0
Injected packet rate average = 0.011375
	minimum = 0.0065 (at node 2)
	maximum = 0.017 (at node 12)
Accepted packet rate average = 0.0111875
	minimum = 0.0065 (at node 8)
	maximum = 0.0165 (at node 3)
Injected flit rate average = 0.011375
	minimum = 0.0065 (at node 2)
	maximum = 0.017 (at node 12)
Accepted flit rate average= 0.0111875
	minimum = 0.0065 (at node 8)
	maximum = 0.0165 (at node 3)
Injected packet length average = 1
Accepted packet length average = 1
Total in-flight flits = 6 (0 measured)
latency change    = 0.00185015
throughput change = 0.0223464
Class 0:
Packet latency average = 20.3289
	minimum = 7
	maximum = 40
Network latency average = 20.3289
	minimum = 7
	maximum = 40
Slowest packet = 6433
Flit latency average = 20.3289
	minimum = 7
	maximum = 40
Slowest flit = 6433
Fragmentation average = 0
	minimum = 0
	maximum = 0
Injected packet rate average = 0.0095
	minimum = 0.006 (at node 0)
	maximum = 0.015 (at node 8)
Accepted packet rate average = 0.0095
	minimum = 0.006 (at node 0)
	maximum = 0.016 (at node 12)
Injected flit rate average = 0.0095
	minimum = 0.006 (at node 0)
	maximum = 0.015 (at node 8)
Accepted flit rate average= 0.0095
	minimum = 0.006 (at node 0)
	maximum = 0.016 (at node 12)
Injected packet length average = 1
Accepted packet length average = 1
Total in-flight flits = 6 (0 measured)
latency change    = 0.0394027
throughput change = 0.177632
Warmed up ...Time used is 3000 cycles
Class 0:
Packet latency average = 18.5507
	minimum = 7
	maximum = 37
Network latency average = 18.5507
	minimum = 7
	maximum = 37
Slowest packet = 6547
Flit latency average = 18.6944
	minimum = 7
	maximum = 37
Slowest flit = 6547
Fragmentation average = 0
	minimum = 0
	maximum = 0
Injected packet rate average = 0.00875
	minimum = 0.003 (at node 7)
	maximum = 0.014 (at node 13)
Accepted packet rate average = 0.009
	minimum = 0.004 (at node 13)
	maximum = 0.014 (at node 7)
Injected flit rate average = 0.00875
	minimum = 0.003 (at node 7)
	maximum = 0.014 (at node 13)
Accepted flit rate average= 0.009
	minimum = 0.004 (at node 13)
	maximum = 0.014 (at node 7)
Injected packet length average = 1
Accepted packet length average = 1
Total in-flight flits = 2 (2 measured)
latency change    = 0.0958573
throughput change = 0.0555556
Class 0:
Packet latency average = 19.2739
	minimum = 7
	maximum = 47
Network latency average = 19.2739
	minimum = 7
	maximum = 47
Slowest packet = 6743
Flit latency average = 19.325
	minimum = 7
	maximum = 47
Slowest flit = 6743
Fragmentation average = 0
	minimum = 0
	maximum = 0
Injected packet rate average = 0.00996875
	minimum = 0.0055 (at node 7)
	maximum = 0.013 (at node 15)
Accepted packet rate average = 0.01
	minimum = 0.006 (at node 13)
	maximum = 0.013 (at node 15)
Injected flit rate average = 0.00996875
	minimum = 0.0055 (at node 7)
	maximum = 0.013 (at node 15)
Accepted flit rate average= 0.01
	minimum = 0.006 (at node 13)
	maximum = 0.013 (at node 15)
Injected packet length average = 1
Accepted packet length average = 1
Total in-flight flits = 5 (5 measured)
latency change    = 0.0375202
throughput change = 0.1
Class 0:
Packet latency average = 19.1715
	minimum = 7
	maximum = 47
Network latency average = 19.1715
	minimum = 7
	maximum = 47
Slowest packet = 6743
Flit latency average = 19.2066
	minimum = 7
	maximum = 47
Slowest flit = 6743
Fragmentation average = 0
	minimum = 0
	maximum = 0
Injected packet rate average = 0.0100208
	minimum = 0.00666667 (at node 7)
	maximum = 0.0126667 (at node 13)
Accepted packet rate average = 0.0100833
	minimum = 0.007 (at node 13)
	maximum = 0.0126667 (at node 7)
Injected flit rate average = 0.0100208
	minimum = 0.00666667 (at node 7)
	maximum = 0.0126667 (at node 13)
Accepted flit rate average= 0.0100833
	minimum = 0.007 (at node 13)
	maximum = 0.0126667 (at node 7)
Injected packet length average = 1
Accepted packet length average = 1
Total in-flight flits = 3 (3 measured)
latency change    = 0.00533797
throughput change = 0.00826446
Class 0:
Packet latency average = 19.3328
	minimum = 7
	maximum = 47
Network latency average = 19.3328
	minimum = 7
	maximum = 47
Slowest packet = 6743
Flit latency average = 19.3574
	minimum = 7
	maximum = 47
Slowest flit = 6743
Fragmentation average = 0
	minimum = 0
	maximum = 0
Injected packet rate average = 0.010125
	minimum = 0.00825 (at node 7)
	maximum = 0.01325 (at node 13)
Accepted packet rate average = 0.0101875
	minimum = 0.00825 (at node 6)
	maximum = 0.01325 (at node 7)
Injected flit rate average = 0.010125
	minimum = 0.00825 (at node 7)
	maximum = 0.01325 (at node 13)
Accepted flit rate average= 0.0101875
	minimum = 0.00825 (at node 6)
	maximum = 0.01325 (at node 7)
Injected packet length average = 1
Accepted packet length average = 1
Total in-flight flits = 2 (2 measured)
latency change    = 0.00834173
throughput change = 0.0102249
Class 0:
Packet latency average = 19.0112
	minimum = 7
	maximum = 47
Network latency average = 19.0112
	minimum = 7
	maximum = 47
Slowest packet = 6743
Flit latency average = 19.0333
	minimum = 7
	maximum = 47
Slowest flit = 6743
Fragmentation average = 0
	minimum = 0
	maximum = 0
Injected packet rate average = 0.0100875
	minimum = 0.0082 (at node 12)
	maximum = 0.0132 (at node 15)
Accepted packet rate average = 0.010125
	minimum = 0.0082 (at node 3)
	maximum = 0.0132 (at node 15)
Injected flit rate average = 0.0100875
	minimum = 0.0082 (at node 12)
	maximum = 0.0132 (at node 15)
Accepted flit rate average= 0.010125
	minimum = 0.0082 (at node 3)
	maximum = 0.0132 (at node 15)
Injected packet length average = 1
Accepted packet length average = 1
Total in-flight flits = 3 (3 measured)
latency change    = 0.0169176
throughput change = 0.00617284
Draining all recorded packets ...
Draining remaining packets ...
Time taken is 8052 cycles
Class 0:
Packet latency average = 18.8803
	minimum = 7
	maximum = 47
Network latency average = 18.8803
	minimum = 7
	maximum = 47
Slowest packet = 7436
Flit latency average = 18.8803
	minimum = 7
	maximum = 47
Slowest flit = 7436
Fragmentation average = 0
	minimum = 0
	maximum = 0
Injected packet rate average = 0.0091875
	minimum = 0.005 (at node 11)
	maximum = 0.013 (at node 4)
Accepted packet rate average = 0.008875
	minimum = 0.004 (at node 12)
	maximum = 0.013 (at node 1)
Injected flit rate average = 0.0091875
	minimum = 0.005 (at node 11)
	maximum = 0.013 (at node 4)
Accepted flit rate average= 0.008875
	minimum = 0.004 (at node 12)
	maximum = 0.013 (at node 1)
Injected packet length average = 1
Accepted packet length average = 1
Total in-flight flits = 5 (0 measured)
latency change    = 1
throughput change = 1
Class 0:
Packet latency average = 19.6865
	minimum = 7
	maximum = 47
Network latency average = 19.6865
	minimum = 7
	maximum = 47
Slowest packet = 7436
Flit latency average = 19.6865
	minimum = 7
	maximum = 47
Slowest flit = 7436
Fragmentation average = 0
	minimum = 0
	maximum = 0
Injected packet rate average = 0.00959375
	minimum = 0.005 (at node 11)
	maximum = 0.0125 (at node 9)
Accepted packet rate average = 0.00946875
	minimum = 0.005 (at node 14)
	maximum = 0.012 (at node 3)
Injected flit rate average = 0.00959375
	minimum = 0.005 (at node 11)
	maximum = 0.0125 (at node 9)
Accepted flit rate average= 0.00946875
	minimum = 0.005 (at node 14)
	maximum = 0.012 (at node 3)
Injected packet length average = 1
Accepted packet length average = 1
Total in-flight flits = 4 (0 measured)
latency change    = 0.0409513
throughput change = 0.0627063
Class 0:
Packet latency average = 19.0663
	minimum = 7
	maximum = 47
Network latency average = 19.0663
	minimum = 7
	maximum = 47
Slowest packet = 7698
Flit latency average = 19.0663
	minimum = 7
	maximum = 47
Slowest flit = 7698
Fragmentation average = 0
	minimum = 0
	maximum = 0
Injected packet rate average = 0.01125
	minimum = 0.004 (at node 4)
	maximum = 0.017 (at node 10)
Accepted packet rate average = 0.0113125
	minimum = 0.004 (at node 1)
	maximum = 0.018 (at node 10)
Injected flit rate average = 0.01125
	minimum = 0.004 (at node 4)
	maximum = 0.017 (at node 10)
Accepted flit rate average= 0.0113125
	minimum = 0.004 (at node 1)
	maximum = 0.018 (at node 10)
Injected packet length average = 1
Accepted packet length average = 1
Total in-flight flits = 3 (0 measured)
latency change    = 0.032527
throughput change = 0.162983
Warmed up ...Time used is 3000 cycles
Class 0:
Packet latency average = 18.9938
	minimum = 7
	maximum = 37
Network latency average = 18.9938
	minimum = 7
	maximum = 37
Slowest packet = 7831
Flit latency average = 19.2134
	minimum = 7
	maximum = 39
Slowest flit = 7821
Fragmentation average = 0
	minimum = 0
	maximum = 0
Injected packet rate average = 0.0100625
	minimum = 0.005 (at node 10)
	maximum = 0.016 (at node 5)
Accepted packet rate average = 0.01025
	minimum = 0.005 (at node 10)
	maximum = 0.016 (at node 5)
Injected flit rate average = 0.0100625
	minimum = 0.005 (at node 10)
	maximum = 0.016 (at node 5)
Accepted flit rate average= 0.01025
	minimum = 0.005 (at node 10)
	maximum = 0.016 (at node 5)
Injected packet length average = 1
Accepted packet length average = 1
Total in-flight flits = 0 (0 measured)
latency change    = 0.00381754
throughput change = 0.103659
Class 0:
Packet latency average = 19.5112
	minimum = 7
	maximum = 41
Network latency average = 19.5112
	minimum = 7
	maximum = 41
Slowest packet = 8121
Flit latency average = 19.6203
	minimum = 7
	maximum = 41
Slowest flit = 8121
Fragmentation average = 0
	minimum = 0
	maximum = 0
Injected packet rate average = 0.00984375
	minimum = 0.007 (at node 10)
	maximum = 0.0135 (at node 1)
Accepted packet rate average = 0.009875
	minimum = 0.007 (at node 10)
	maximum = 0.0135 (at node 4)
Injected flit rate average = 0.00984375
	minimum = 0.007 (at node 10)
	maximum = 0.0135 (at node 1)
Accepted flit rate average= 0.009875
	minimum = 0.007 (at node 10)
	maximum = 0.0135 (at node 4)
Injected packet length average = 1
Accepted packet length average = 1
Total in-flight flits = 2 (2 measured)
latency change    = 0.0265178
throughput change = 0.0379747
Class 0:
Packet latency average = 19.7175
	minimum = 7
	maximum = 46
Network latency average = 19.7175
	minimum = 7
	maximum = 46
Slowest packet = 8197
Flit latency average = 19.7869
	minimum = 7
	maximum = 46
Slowest flit = 8197
Fragmentation average = 0
	minimum = 0
	maximum = 0
Injected packet rate average = 0.0101667
	minimum = 0.00733333 (at node 10)
	maximum = 0.013 (at node 5)
Accepted packet rate average = 0.0101667
	minimum = 0.00733333 (at node 10)
	maximum = 0.013 (at node 5)
Injected flit rate average = 0.0101667
	minimum = 0.00733333 (at node 10)
	maximum = 0.013 (at node 5)
Accepted flit rate average= 0.0101667
	minimum = 0.00733333 (at node 10)
	maximum = 0.013 (at node 5)
Injected packet length average = 1
Accepted packet length average = 1
Total in-flight flits = 3 (3 measured)
latency change    = 0.010465
throughput change = 0.0286885
Class 0:
Packet latency average = 19.5807
	minimum = 7
	maximum = 46
Network latency average = 19.5807
	minimum = 7
	maximum = 46
Slowest packet = 8197
Flit latency average = 19.6321
	minimum = 7
	maximum = 46
Slowest flit = 8197
Fragmentation average = 0
	minimum = 0
	maximum = 0
Injected packet rate average = 0.0104063
	minimum = 0.0085 (at node 8)
	maximum = 0.01325 (at node 5)
Accepted packet rate average = 0.0104063
	minimum = 0.0085 (at node 2)
	maximum = 0.01325 (at node 5)
Injected flit rate average = 0.0104063
	minimum = 0.0085 (at node 8)
	maximum = 0.01325 (at node 5)
Accepted flit rate average= 0.0104063
	minimum = 0.0085 (at node 2)
	maximum = 0.01325 (at node 5)
Injected packet length average = 1
Accepted packet length average = 1
Total in-flight flits = 3 (3 measured)
latency change    = 0.00698811
throughput change = 0.023023
Draining all recorded packets ...
Draining remaining packets ...
Time taken is 7047 cycles
Class 0:
Packet latency average = 19.1375
	minimum = 7
	maximum = 40
Network latency average = 19.1375
	minimum = 7
	maximum = 40
Slowest packet = 8606
Flit latency average = 19.1375
	minimum = 7
	maximum = 40
Slowest flit = 8606
Fragmentation average = 0
	minimum = 0
	maximum = 0
Injected packet rate average = 0.0103125
	minimum = 0.005 (at node 4)
	maximum = 0.018 (at node 0)
Accepted packet rate average = 0.01
	minimum = 0.005 (at node 1)
	maximum = 0.017 (at node 0)
Injected flit rate average = 0.0103125
	minimum = 0.005 (at node 4)
	maximum = 0.018 (at node 0)
Accepted flit rate average= 0.01
	minimum = 0.005 (at node 1)
	maximum = 0.017 (at node 0)
Injected packet length average = 1
Accepted packet length average = 1
Total in-flight flits = 5 (0 measured)
latency change    = 1
throughput change = 1
Class 0:
Packet latency average = 19.1835
	minimum = 7
	maximum = 47
Network latency average = 19.1835
	minimum = 7
	maximum = 47
Slowest packet = 8664
Flit latency average = 19.1835
	minimum = 7
	maximum = 47
Slowest flit = 8664
Fragmentation average = 0
	minimum = 0
	maximum = 0
Injected packet rate average = 0.0103438
	minimum = 0.0065 (at node 4)
	maximum = 0.015 (at node 0)
Accepted packet rate average = 0.0102188
	minimum = 0.0065 (at node 1)
	maximum = 0.015 (at node 0)
Injected flit rate average = 0.0103438
	minimum = 0.0065 (at node 4)
	maximum = 0.015 (at node 0)
Accepted flit rate average= 0.0102188
	minimum = 0.0065 (at node 1)
	maximum = 0.015 (at node 0)
Injected packet length average = 1
Accepted packet length average = 1
Total in-flight flits = 4 (0 measured)
latency change    = 0.00239718
throughput change = 0.0214067
Class 0:
Packet latency average = 19.9724
	minimum = 7
	maximum = 37
Network latency average = 19.9724
	minimum = 7
	maximum = 37
Slowest packet = 8823
Flit latency average = 19.9724
	minimum = 7
	maximum = 37
Slowest flit = 8823
Fragmentation average = 0
	minimum = 0
	maximum = 0
Injected packet rate average = 0.0090625
	minimum = 0.003 (at node 1)
	maximum = 0.012 (at node 8)
Accepted packet rate average = 0.0090625
	minimum = 0.003 (at node 4)
	maximum = 0.013 (at node 12)
Injected flit rate average = 0.0090625
	minimum = 0.003 (at node 1)
	maximum = 0.012 (at node 8)
Accepted flit rate average= 0.0090625
	minimum = 0.003 (at node 4)
	maximum = 0.013 (at node 12)
Injected packet length average = 1
Accepted packet length average = 1
Total in-flight flits = 4 (0 measured)
latency change    = 0.0395009
throughput change = 0.127586
Warmed up ...Time used is 3000 cycles
Class 0:
Packet latency average = 21.3439
	minimum = 7
	maximum = 55
Network latency average = 21.3439
	minimum = 7
	maximum = 55
Slowest packet = 9088
Flit latency average = 21.3602
	minimum = 7
	maximum = 55
Slowest flit = 9088
Fragmentation average = 0
	minimum = 0
	maximum = 0
Injected packet rate average = 0.0100625
	minimum = 0.004 (at node 6)
	maximum = 0.016 (at node 2)
Accepted packet rate average = 0.0100625
	minimum = 0.004 (at node 9)
	maximum = 0.017 (at node 8)
Injected flit rate average = 0.0100625
	minimum = 0.004 (at node 6)
	maximum = 0.016 (at node 2)
Accepted flit rate average= 0.0100625
	minimum = 0.004 (at node 9)
	maximum = 0.017 (at node 8)
Injected packet length average = 1
Accepted packet length average = 1
Total in-flight flits = 4 (4 measured)
latency change    = 0.0642587
throughput change = 0.0993789
Class 0:
Packet latency average = 20.7152
	minimum = 7
	maximum = 55
Network latency average = 20.7152
	minimum = 7
	maximum = 55
Slowest packet = 9088
Flit latency average = 20.732
	minimum = 7
	maximum = 55
Slowest flit = 9088
Fragmentation average = 0
	minimum = 0
	maximum = 0
Injected packet rate average = 0.009625
	minimum = 0.0045 (at node 6)
	maximum = 0.014 (at node 12)
Accepted packet rate average = 0.0095625
	minimum = 0.0045 (at node 9)
	maximum = 0.0145 (at node 8)
Injected flit rate average = 0.009625
	minimum = 0.0045 (at node 6)
	maximum = 0.014 (at node 12)
Accepted flit rate average= 0.0095625
	minimum = 0.0045 (at node 9)
	maximum = 0.0145 (at node 8)
Injected packet length average = 1
Accepted packet length average = 1
Total in-flight flits = 6 (6 measured)
latency change    = 0.0303505
throughput change = 0.0522876
Class 0:
Packet latency average = 20.7859
	minimum = 7
	maximum = 55
Network latency average = 20.7859
	minimum = 7
	maximum = 55
Slowest packet = 9088
Flit latency average = 20.7965
	minimum = 7
	maximum = 55
Slowest flit = 9088
Fragmentation average = 0
	minimum = 0
	maximum = 0
Injected packet rate average = 0.00954167
	minimum = 0.00533333 (at node 6)
	maximum = 0.013 (at node 2)
Accepted packet rate average = 0.00952083
	minimum = 0.00533333 (at node 9)
	maximum = 0.0133333 (at node 8)
Injected flit rate average = 0.00954167
	minimum = 0.00533333 (at node 6)
	maximum = 0.013 (at node 2)
Accepted flit rate average= 0.00952083
	minimum = 0.00533333 (at node 9)
	maximum = 0.0133333 (at node 8)
Injected packet length average = 1
Accepted packet length average = 1
Total in-flight flits = 5 (5 measured)
latency change    = 0.00339847
throughput change = 0.00437637
Class 0:
Packet latency average = 20.7049
	minimum = 7
	maximum = 55
Network latency average = 20.7049
	minimum = 7
	maximum = 55
Slowest packet = 9088
Flit latency average = 20.7132
	minimum = 7
	maximum = 55
Slowest flit = 9088
Fragmentation average = 0
	minimum = 0
	maximum = 0
Injected packet rate average = 0.00989063
	minimum = 0.00575 (at node 15)
	maximum = 0.0135 (at node 12)
Accepted packet rate average = 0.00985938
	minimum = 0.00575 (at node 15)
	maximum = 0.0135 (at node 8)
Injected flit rate average = 0.00989063
	minimum = 0.00575 (at node 15)
	maximum = 0.0135 (at node 12)
Accepted flit rate average= 0.00985938
	minimum = 0.00575 (at node 15)
	maximum = 0.0135 (at node 8)
Injected packet length average = 1
Accepted packet length average = 1
Total in-flight flits = 6 (6 measured)
latency change    = 0.00390862
throughput change = 0.034337
Class 0:
Packet latency average = 20.5422
	minimum = 7
	maximum = 55
Network latency average = 20.5422
	minimum = 7
	maximum = 55
Slowest packet = 9088
Flit latency average = 20.5494
	minimum = 7
	maximum = 55
Slowest flit = 9088
Fragmentation average = 0
	minimum = 0
	maximum = 0
Injected packet rate average = 0.0101
	minimum = 0.0058 (at node 15)
	maximum = 0.0132 (at node 2)
Accepted packet rate average = 0.010125
	minimum = 0.0058 (at node 15)
	maximum = 0.0136 (at node 8)
Injected flit rate average = 0.0101
	minimum = 0.0058 (at node 15)
	maximum = 0.0132 (at node 2)
Accepted flit rate average= 0.010125
	minimum = 0.0058 (at node 15)
	maximum = 0.0136 (at node 8)
Injected packet length average = 1
Accepted packet length average = 1
Total in-flight flits = 2 (2 measured)
latency change    = 0.00792324
throughput change = 0.0262346
Draining all recorded packets ...
Draining remaining packets ...
Time taken is 8027 cycles
Class 0:
Packet latency average = 19.8312
	minimum = 7
	maximum = 45
Network latency average = 19.8312
	minimum = 7
	maximum = 45
Slowest packet = 9788
Flit latency average = 19.8312
	minimum = 7
	maximum = 45
Slowest flit = 9788
Fragmentation average = 0
	minimum = 0
	maximum = 0
Injected packet rate average = 0.00975
	minimum = 0.004 (at node 1)
	maximum = 0.016 (at node 5)
Accepted packet rate average = 0.009625
	minimum = 0.004 (at node 4)
	maximum = 0.016 (at node 5)
Injected flit rate average = 0.00975
	minimum = 0.004 (at node 1)
	maximum = 0.016 (at node 5)
Accepted flit rate average= 0.009625
	minimum = 0.004 (at node 4)
	maximum = 0.016 (at node 5)
Injected packet length average = 1
Accepted packet length average = 1
Total in-flight flits = 2 (0 measured)
latency change    = 1
throughput change = 1
Class 0:
Packet latency average = 19.2083
	minimum = 7
	maximum = 45
Network latency average = 19.2083
	minimum = 7
	maximum = 45
Slowest packet = 9788
Flit latency average = 19.2083
	minimum = 7
	maximum = 45
Slowest flit = 9788
Fragmentation average = 0
	minimum = 0
	maximum = 0
Injected packet rate average = 0.0098125
	minimum = 0.0055 (at node 8)
	maximum = 0.014 (at node 0)
Accepted packet rate average = 0.00975
	minimum = 0.0055 (at node 2)
	maximum = 0.014 (at node 0)
Injected flit rate average = 0.0098125
	minimum = 0.0055 (at node 8)
	maximum = 0.014 (at node 0)
Accepted flit rate average= 0.00975
	minimum = 0.0055 (at node 2)
	maximum = 0.014 (at node 0)
Injected packet length average = 1
Accepted packet length average = 1
Total in-flight flits = 2 (0 measured)
latency change    = 0.0324253
throughput change = 0.0128205
Class 0:
Packet latency average = 18.3434
	minimum = 7
	maximum = 37
Network latency average = 18.3434
	minimum = 7
	maximum = 37
Slowest packet = 10100
Flit latency average = 18.3434
	minimum = 7
	maximum = 37
Slowest flit = 10100
Fragmentation average = 0
	minimum = 0
	maximum = 0
Injected packet rate average = 0.0103125
	minimum = 0.005 (at node 13)
	maximum = 0.016 (at node 15)
Accepted packet rate average = 0.010375
	minimum = 0.006 (at node 7)
	maximum = 0.016 (at node 15)
Injected flit rate average = 0.0103125
	minimum = 0.005 (at node 13)
	maximum = 0.016 (at node 15)
Accepted flit rate average= 0.010375
	minimum = 0.006 (at node 7)
	maximum = 0.016 (at node 15)
Injected packet length average = 1
Accepted packet length average = 1
Total in-flight flits = 1 (0 measured)
latency change    = 0.0471538
throughput change = 0.060241
Warmed up ...Time used is 3000 cycles
Class 0:
Packet latency average = 19.4934
	minimum = 7
	maximum = 46
Network latency average = 19.4934
	minimum = 7
	maximum = 46
Slowest packet = 10296
Flit latency average = 19.6078
	minimum = 7
	maximum = 46
Slowest flit = 10296
Fragmentation average = 0
	minimum = 0
	maximum = 0
Injected packet rate average = 0.01
	minimum = 0.005 (at node 7)
	maximum = 0.018 (at node 10)
Accepted packet rate average = 0.0095625
	minimum = 0.005 (at node 11)
	maximum = 0.018 (at node 10)
Injected flit rate average = 0.01
	minimum = 0.005 (at node 7)
	maximum = 0.018 (at node 10)
Accepted flit rate average= 0.0095625
	minimum = 0.005 (at node 11)
	maximum = 0.018 (at node 10)
Injected packet length average = 1
Accepted packet length average = 1
Total in-flight flits = 8 (8 measured)
latency change    = 0.0589967
throughput change = 0.0849673
Class 0:
Packet latency average = 19.2516
	minimum = 7
	maximum = 46
Network latency average = 19.2516
	minimum = 7
	maximum = 46
Slowest packet = 10296
Flit latency average = 19.3094
	minimum = 7
	maximum = 46
Slowest flit = 10296
Fragmentation average = 0
	minimum = 0
	maximum = 0
Injected packet rate average = 0.0096875
	minimum = 0.0065 (at node 3)
	maximum = 0.0145 (at node 10)
Accepted packet rate average = 0.00959375
	minimum = 0.006 (at node 12)
	maximum = 0.0145 (at node 10)
Injected flit rate average = 0.0096875
	minimum = 0.0065 (at node 3)
	maximum = 0.0145 (at node 10)
Accepted flit rate average= 0.00959375
	minimum = 0.006 (at node 12)
	maximum = 0.0145 (at node 10)
Injected packet length average = 1
Accepted packet length average = 1
Total in-flight flits = 4 (4 measured)
latency change    = 0.0125593
throughput change = 0.00325733
Class 0:
Packet latency average = 19.3161
	minimum = 7
	maximum = 46
Network latency average = 19.3161
	minimum = 7
	maximum = 46
Slowest packet = 10296
Flit latency average = 19.3541
	minimum = 7
	maximum = 46
Slowest flit = 10296
Fragmentation average = 0
	minimum = 0
	maximum = 0
Injected packet rate average = 0.00975
	minimum = 0.00733333 (at node 13)
	maximum = 0.013 (at node 10)
Accepted packet rate average = 0.00970833
	minimum = 0.00733333 (at node 7)
	maximum = 0.013 (at node 10)
Injected flit rate average = 0.00975
	minimum = 0.00733333 (at node 13)
	maximum = 0.013 (at node 10)
Accepted flit rate average= 0.00970833
	minimum = 0.00733333 (at node 7)
	maximum = 0.013 (at node 10)
Injected packet length average = 1
Accepted packet length average = 1
Total in-flight flits = 3 (3 measured)
latency change    = 0.00333892
throughput change = 0.0118026
Class 0:
Packet latency average = 19.6019
	minimum = 7
	maximum = 51
Network latency average = 19.6019
	minimum = 7
	maximum = 51
Slowest packet = 10825
Flit latency average = 19.63
	minimum = 7
	maximum = 51
Slowest flit = 10825
Fragmentation average = 0
	minimum = 0
	maximum = 0
Injected packet rate average = 0.00971875
	minimum = 0.00775 (at node 13)
	maximum = 0.01175 (at node 10)
Accepted packet rate average = 0.00967187
	minimum = 0.0075 (at node 7)
	maximum = 0.01175 (at node 10)
Injected flit rate average = 0.00971875
	minimum = 0.00775 (at node 13)
	maximum = 0.01175 (at node 10)
Accepted flit rate average= 0.00967187
	minimum = 0.0075 (at node 7)
	maximum = 0.01175 (at node 10)
Injected packet length average = 1
Accepted packet length average = 1
Total in-flight flits = 4 (4 measured)
latency change    = 0.0145808
throughput change = 0.00376952
Draining all recorded packets ...
Draining remaining packets ...
Time taken is 7048 cycles
Class 0:
Packet latency average = 19.2622
	minimum = 7
	maximum = 44
Network latency average = 19.2622
	minimum = 7
	maximum = 44
Slowest packet = 10953
Flit latency average = 19.2622
	minimum = 7
	maximum = 44
Slowest flit = 10953
Fragmentation average = 0
	minimum = 0
	maximum = 0
Injected packet rate average = 0.010375
	minimum = 0.004 (at node 9)
	maximum = 0.016 (at node 1)
Accepted packet rate average = 0.01025
	minimum = 0.004 (at node 6)
	maximum = 0.016 (at node 4)
Injected flit rate average = 0.010375
	minimum = 0.004 (at node 9)
	maximum = 0.016 (at node 1)
Accepted flit rate average= 0.01025
	minimum = 0.004 (at node 6)
	maximum = 0.016 (at node 4)
Injected packet length average = 1
Accepted packet length average = 1
Total in-flight flits = 2 (0 measured)
latency change    = 1
throughput change = 1
Class 0:
Packet latency average = 19.3793
	minimum = 7
	maximum = 44
Network latency average = 19.3793
	minimum = 7
	maximum = 44
Slowest packet = 10953
Flit latency average = 19.3793
	minimum = 7
	maximum = 44
Slowest flit = 10953
Fragmentation average = 0
	minimum = 0
	maximum = 0
Injected packet rate average = 0.0100313
	minimum = 0.0065 (at node 9)
	maximum = 0.018 (at node 1)
Accepted packet rate average = 0.00996875
	minimum = 0.0065 (at node 6)
	maximum = 0.0175 (at node 4)
Injected flit rate average = 0.0100313
	minimum = 0.0065 (at node 9)
	maximum = 0.018 (at node 1)
Accepted flit rate average= 0.00996875
	minimum = 0.0065 (at node 6)
	maximum = 0.0175 (at node 4)
Injected packet length average = 1
Accepted packet length average = 1
Total in-flight flits = 2 (0 measured)
latency change    = 0.00604331
throughput change = 0.0282132
Class 0:
Packet latency average = 19.8072
	minimum = 7
	maximum = 44
Network latency average = 19.8072
	minimum = 7
	maximum = 44
Slowest packet = 11268
Flit latency average = 19.8072
	minimum = 7
	maximum = 44
Slowest flit = 11268
Fragmentation average = 0
	minimum = 0
	maximum = 0
Injected packet rate average = 0.0105625
	minimum = 0.004 (at node 5)
	maximum = 0.015 (at node 7)
Accepted packet rate average = 0.010375
	minimum = 0.004 (at node 5)
	maximum = 0.015 (at node 13)
Injected flit rate average = 0.0105625
	minimum = 0.004 (at node 5)
	maximum = 0.015 (at node 7)
Accepted flit rate average= 0.010375
	minimum = 0.004 (at node 5)
	maximum = 0.015 (at node 13)
Injected packet length average = 1
Accepted packet length average = 1
Total in-flight flits = 5 (0 measured)
latency change    = 0.0216042
throughput change = 0.0391566
Warmed up ...Time used is 3000 cycles
Class 0:
Packet latency average = 19.6062
	minimum = 7
	maximum = 37
Network latency average = 19.6062
	minimum = 7
	maximum = 37
Slowest packet = 11381
Flit latency average = 19.6485
	minimum = 7
	maximum = 37
Slowest flit = 11381
Fragmentation average = 0
	minimum = 0
	maximum = 0
Injected packet rate average = 0.0103125
	minimum = 0.006 (at node 1)
	maximum = 0.016 (at node 4)
Accepted packet rate average = 0.0103125
	minimum = 0.006 (at node 4)
	maximum = 0.016 (at node 1)
Injected flit rate average = 0.0103125
	minimum = 0.006 (at node 1)
	maximum = 0.016 (at node 4)
Accepted flit rate average= 0.0103125
	minimum = 0.006 (at node 4)
	maximum = 0.016 (at node 1)
Injected packet length average = 1
Accepted packet length average = 1
Total in-flight flits = 5 (5 measured)
latency change    = 0.0102508
throughput change = 0.00606061
Class 0:
Packet latency average = 20.0033
	minimum = 7
	maximum = 43
Network latency average = 20.0033
	minimum = 7
	maximum = 43
Slowest packet = 11536
Flit latency average = 20.0194
	minimum = 7
	maximum = 43
Slowest flit = 11536
Fragmentation average = 0
	minimum = 0
	maximum = 0
Injected packet rate average = 0.009625
	minimum = 0.006 (at node 5)
	maximum = 0.0135 (at node 7)
Accepted packet rate average = 0.00965625
	minimum = 0.006 (at node 5)
	maximum = 0.0135 (at node 13)
Injected flit rate average = 0.009625
	minimum = 0.006 (at node 5)
	maximum = 0.0135 (at node 7)
Accepted flit rate average= 0.00965625
	minimum = 0.006 (at node 5)
	maximum = 0.0135 (at node 13)
Injected packet length average = 1
Accepted packet length average = 1
Total in-flight flits = 4 (4 measured)
latency change    = 0.0198487
throughput change = 0.0679612
Class 0:
Packet latency average = 20.1077
	minimum = 7
	maximum = 43
Network latency average = 20.1077
	minimum = 7
	maximum = 43
Slowest packet = 11536
Flit latency average = 20.1168
	minimum = 7
	maximum = 43
Slowest flit = 11536
Fragmentation average = 0
	minimum = 0
	maximum = 0
Injected packet rate average = 0.0100833
	minimum = 0.007 (at node 5)
	maximum = 0.0133333 (at node 7)
Accepted packet rate average = 0.0101667
	minimum = 0.007 (at node 5)
	maximum = 0.0133333 (at node 13)
Injected flit rate average = 0.0100833
	minimum = 0.007 (at node 5)
	maximum = 0.0133333 (at node 7)
Accepted flit rate average= 0.0101667
	minimum = 0.007 (at node 5)
	maximum = 0.0133333 (at node 13)
Injected packet length average = 1
Accepted packet length average = 1
Total in-flight flits = 1 (1 measured)
latency change    = 0.00519061
throughput change = 0.0502049
Class 0:
Packet latency average = 19.8072
	minimum = 7
	maximum = 47
Network latency average = 19.8072
	minimum = 7
	maximum = 47
Slowest packet = 12011
Flit latency average = 19.8165
	minimum = 7
	maximum = 47
Slowest flit = 12011
Fragmentation average = 0
	minimum = 0
	maximum = 0
Injected packet rate average = 0.00998438
	minimum = 0.00725 (at node 5)
	maximum = 0.012 (at node 8)
Accepted packet rate average = 0.0100469
	minimum = 0.00725 (at node 5)
	maximum = 0.01225 (at node 2)
Injected flit rate average = 0.00998438
	minimum = 0.00725 (at node 5)
	maximum = 0.012 (at node 8)
Accepted flit rate average= 0.0100469
	minimum = 0.00725 (at node 5)
	maximum = 0.01225 (at node 2)
Injected packet length average = 1
Accepted packet length average = 1
Total in-flight flits = 1 (1 measured)
latency change    = 0.0151687
throughput change = 0.0119233
Class 0:
Packet latency average = 20
	minimum = 7
	maximum = 54
Network latency average = 20
	minimum = 7
	maximum = 54
Slowest packet = 12039
Flit latency average = 20.0063
	minimum = 7
	maximum = 54
Slowest flit = 12039
Fragmentation average = 0
	minimum = 0
	maximum = 0
Injected packet rate average = 0.00995
	minimum = 0.007 (at node 5)
	maximum = 0.0118 (at node 13)
Accepted packet rate average = 0.0099625
	minimum = 0.007 (at node 5)
	maximum = 0.0118 (at node 7)
Injected flit rate average = 0.00995
	minimum = 0.007 (at node 5)
	maximum = 0.0118 (at node 13)
Accepted flit rate average= 0.0099625
	minimum = 0.007 (at node 5)
	maximum = 0.0118 (at node 7)
Injected packet length average = 1
Accepted packet length average = 1
Total in-flight flits = 4 (4 measured)
latency change    = 0.0096395
throughput change = 0.00846926
Class 0:
Packet latency average = 19.8727
	minimum = 7
	maximum = 54
Network latency average = 19.8727
	minimum = 7
	maximum = 54
Slowest packet = 12039
Flit latency average = 19.8787
	minimum = 7
	maximum = 54
Slowest flit = 12039
Fragmentation average = 0
	minimum = 0
	maximum = 0
Injected packet rate average = 0.00978125
	minimum = 0.00683333 (at node 5)
	maximum = 0.0123333 (at node 13)
Accepted packet rate average = 0.00979167
	minimum = 0.00683333 (at node 5)
	maximum = 0.0123333 (at node 7)
Injected flit rate average = 0.00978125
	minimum = 0.00683333 (at node 5)
	maximum = 0.0123333 (at node 13)
Accepted flit rate average= 0.00979167
	minimum = 0.00683333 (at node 5)
	maximum = 0.0123333 (at node 7)
Injected packet length average = 1
Accepted packet length average = 1
Total in-flight flits = 4 (4 measured)
latency change    = 0.00640439
throughput change = 0.0174468
Draining all recorded packets ...
Draining remaining packets ...
Time taken is 9044 cycles
Class 0:
Packet latency average = 19.6065
	minimum = 7
	maximum = 46
Network latency average = 19.6065
	minimum = 7
	maximum = 46
Slowest packet = 12426
Flit latency average = 19.6065
	minimum = 7
	maximum = 46
Slowest flit = 12426
Fragmentation average = 0
	minimum = 0
	maximum = 0
Injected packet rate average = 0.00975
	minimum = 0.004 (at node 7)
	maximum = 0.014 (at node 15)
Accepted packet rate average = 0.0096875
	minimum = 0.004 (at node 13)
	maximum = 0.014 (at node 15)
Injected flit rate average = 0.00975
	minimum = 0.004 (at node 7)
	maximum = 0.014 (at node 15)
Accepted flit rate average= 0.0096875
	minimum = 0.004 (at node 13)
	maximum = 0.014 (at node 15)
Injected packet length average = 1
Accepted packet length average = 1
Total in-flight flits = 1 (0 measured)
latency change    = 1
throughput change = 1
Class 0:
Packet latency average = 19.689
	minimum = 7
	maximum = 46
Network latency average = 19.689
	minimum = 7
	maximum = 46
Slowest packet = 12426
Flit latency average = 19.689
	minimum = 7
	maximum = 46
Slowest flit = 12426
Fragmentation average = 0
	minimum = 0
	maximum = 0
Injected packet rate average = 0.00946875
	minimum = 0.0065 (at node 4)
	maximum = 0.0135 (at node 14)
Accepted packet rate average = 0.00934375
	minimum = 0.0065 (at node 1)
	maximum = 0.0135 (at node 11)
Injected flit rate average = 0.00946875
	minimum = 0.0065 (at node 4)
	maximum = 0.0135 (at node 14)
Accepted flit rate average= 0.00934375
	minimum = 0.0065 (at node 1)
	maximum = 0.0135 (at node 11)
Injected packet length average = 1
Accepted packet length average = 1
Total in-flight flits = 4 (0 measured)
latency change    = 0.00419075
throughput change = 0.0367893
Class 0:
Packet latency average = 18.2786
	minimum = 7
	maximum = 43
Network latency average = 18.2786
	minimum = 7
	maximum = 43
Slowest packet = 12631
Flit latency average = 18.2786
	minimum = 7
	maximum = 43
Slowest flit = 12631
Fragmentation average = 0
	minimum = 0
	maximum = 0
Injected packet rate average = 0.008875
	minimum = 0.003 (at node 9)
	maximum = 0.016 (at node 1)
Accepted packet rate average = 0.00875
	minimum = 0.003 (at node 6)
	maximum = 0.016 (at node 4)
Injected flit rate average = 0.008875
	minimum = 0.003 (at node 9)
	maximum = 0.016 (at node 1)
Accepted flit rate average= 0.00875
	minimum = 0.003 (at node 6)
	maximum = 0.016 (at node 4)
Injected packet length average = 1
Accepted packet length average = 1
Total in-flight flits = 6 (0 measured)
latency change    = 0.0771609
throughput change = 0.0678571
Warmed up ...Time used is 3000 cycles
Class 0:
Packet latency average = 19.76
	minimum = 7
	maximum = 44
Network latency average = 19.76
	minimum = 7
	maximum = 44
Slowest packet = 12924
Flit latency average = 19.6685
	minimum = 7
	maximum = 44
Slowest flit = 12924
Fragmentation average = 0
	minimum = 0
	maximum = 0
Injected packet rate average = 0.011125
	minimum = 0.006 (at node 13)
	maximum = 0.018 (at node 3)
Accepted packet rate average = 0.0113125
	minimum = 0.006 (at node 7)
	maximum = 0.018 (at node 12)
Injected flit rate average = 0.011125
	minimum = 0.006 (at node 13)
	maximum = 0.018 (at node 3)
Accepted flit rate average= 0.0113125
	minimum = 0.006 (at node 7)
	maximum = 0.018 (at node 12)
Injected packet length average = 1
Accepted packet length average = 1
Total in-flight flits = 3 (3 measured)
latency change    = 0.0749711
throughput change = 0.226519
Class 0:
Packet latency average = 20.0813
	minimum = 7
	maximum = 44
Network latency average = 20.0813
	minimum = 7
	maximum = 44
Slowest packet = 12924
Flit latency average = 20.0266
	minimum = 7
	maximum = 44
Slowest flit = 12924
Fragmentation average = 0
	minimum = 0
	maximum = 0
Injected packet rate average = 0.0104688
	minimum = 0.0075 (at node 1)
	maximum = 0.0155 (at node 3)
Accepted packet rate average = 0.0105625
	minimum = 0.0075 (at node 4)
	maximum = 0.015 (at node 12)
Injected flit rate average = 0.0104688
	minimum = 0.0075 (at node 1)
	maximum = 0.0155 (at node 3)
Accepted flit rate average= 0.0105625
	minimum = 0.0075 (at node 4)
	maximum = 0.015 (at node 12)
Injected packet length average = 1
Accepted packet length average = 1
Total in-flight flits = 3 (3 measured)
latency change    = 0.0160012
throughput change = 0.0710059
Class 0:
Packet latency average = 19.4781
	minimum = 7
	maximum = 44
Network latency average = 19.4781
	minimum = 7
	maximum = 44
Slowest packet = 12924
Flit latency average = 19.4488
	minimum = 7
	maximum = 44
Slowest flit = 12924
Fragmentation average = 0
	minimum = 0
	maximum = 0
Injected packet rate average = 0.0105208
	minimum = 0.008 (at node 7)
	maximum = 0.0133333 (at node 14)
Accepted packet rate average = 0.0105833
	minimum = 0.008 (at node 13)
	maximum = 0.013 (at node 10)
Injected flit rate average = 0.0105208
	minimum = 0.008 (at node 7)
	maximum = 0.0133333 (at node 14)
Accepted flit rate average= 0.0105833
	minimum = 0.008 (at node 13)
	maximum = 0.013 (at node 10)
Injected packet length average = 1
Accepted packet length average = 1
Total in-flight flits = 3 (3 measured)
latency change    = 0.0309701
throughput change = 0.0019685
Class 0:
Packet latency average = 19.4303
	minimum = 7
	maximum = 44
Network latency average = 19.4303
	minimum = 7
	maximum = 44
Slowest packet = 12924
Flit latency average = 19.4086
	minimum = 7
	maximum = 44
Slowest flit = 12924
Fragmentation average = 0
	minimum = 0
	maximum = 0
Injected packet rate average = 0.0104219
	minimum = 0.009 (at node 11)
	maximum = 0.0125 (at node 14)
Accepted packet rate average = 0.0105156
	minimum = 0.009 (at node 14)
	maximum = 0.0125 (at node 11)
Injected flit rate average = 0.0104219
	minimum = 0.009 (at node 11)
	maximum = 0.0125 (at node 14)
Accepted flit rate average= 0.0105156
	minimum = 0.009 (at node 14)
	maximum = 0.0125 (at node 11)
Injected packet length average = 1
Accepted packet length average = 1
Total in-flight flits = 0 (0 measured)
latency change    = 0.00246022
throughput change = 0.00643883
Class 0:
Packet latency average = 19.522
	minimum = 7
	maximum = 46
Network latency average = 19.522
	minimum = 7
	maximum = 46
Slowest packet = 13433
Flit latency average = 19.5036
	minimum = 7
	maximum = 46
Slowest flit = 13433
Fragmentation average = 0
	minimum = 0
	maximum = 0
Injected packet rate average = 0.0103125
	minimum = 0.0084 (at node 11)
	maximum = 0.012 (at node 15)
Accepted packet rate average = 0.010325
	minimum = 0.0084 (at node 14)
	maximum = 0.012 (at node 15)
Injected flit rate average = 0.0103125
	minimum = 0.0084 (at node 11)
	maximum = 0.012 (at node 15)
Accepted flit rate average= 0.010325
	minimum = 0.0084 (at node 14)
	maximum = 0.012 (at node 15)
Injected packet length average = 1
Accepted packet length average = 1
Total in-flight flits = 5 (5 measured)
latency change    = 0.00469555
throughput change = 0.0184625
Draining all recorded packets ...
Draining remaining packets ...
Time taken is 8058 cycles
Class 0:
Packet latency average = 18.8224
	minimum = 7
	maximum = 37
Network latency average = 18.8224
	minimum = 7
	maximum = 37
Slowest packet = 13597
Flit latency average = 18.8224
	minimum = 7
	maximum = 37
Slowest flit = 13597
Fragmentation average = 0
	minimum = 0
	maximum = 0
Injected packet rate average = 0.0096875
	minimum = 0.005 (at node 8)
	maximum = 0.015 (at node 9)
Accepted packet rate average = 0.0095
	minimum = 0.005 (at node 2)
	maximum = 0.014 (at node 6)
Injected flit rate average = 0.0096875
	minimum = 0.005 (at node 8)
	maximum = 0.015 (at node 9)
Accepted flit rate average= 0.0095
	minimum = 0.005 (at node 2)
	maximum = 0.014 (at node 6)
Injected packet length average = 1
Accepted packet length average = 1
Total in-flight flits = 3 (0 measured)
latency change    = 1
throughput change = 1
Class 0:
Packet latency average = 19.4654
	minimum = 7
	maximum = 41
Network latency average = 19.4654
	minimum = 7
	maximum = 41
Slowest packet = 13910
Flit latency average = 19.4654
	minimum = 7
	maximum = 41
Slowest flit = 13910
Fragmentation average = 0
	minimum = 0
	maximum = 0
Injected packet rate average = 0.0100313
	minimum = 0.006 (at node 7)
	maximum = 0.0135 (at node 3)
Accepted packet rate average = 0.0099375
	minimum = 0.006 (at node 13)
	maximum = 0.013 (at node 12)
Injected flit rate average = 0.0100313
	minimum = 0.006 (at node 7)
	maximum = 0.0135 (at node 3)
Accepted flit rate average= 0.0099375
	minimum = 0.006 (at node 13)
	maximum = 0.013 (at node 12)
Injected packet length average = 1
Accepted packet length average = 1
Total in-flight flits = 3 (0 measured)
latency change    = 0.033035
throughput change = 0.0440252
Class 0:
Packet latency average = 19.4793
	minimum = 7
	maximum = 40
Network latency average = 19.4793
	minimum = 7
	maximum = 40
Slowest packet = 13915
Flit latency average = 19.4793
	minimum = 7
	maximum = 40
Slowest flit = 13915
Fragmentation average = 0
	minimum = 0
	maximum = 0
Injected packet rate average = 0.0105
	minimum = 0.005 (at node 3)
	maximum = 0.015 (at node 6)
Accepted packet rate average = 0.0105625
	minimum = 0.006 (at node 12)
	maximum = 0.015 (at node 9)
Injected flit rate average = 0.0105
	minimum = 0.005 (at node 3)
	maximum = 0.015 (at node 6)
Accepted flit rate average= 0.0105625
	minimum = 0.006 (at node 12)
	maximum = 0.015 (at node 9)
Injected packet length average = 1
Accepted packet length average = 1
Total in-flight flits = 2 (0 measured)
latency change    = 0.00071261
throughput change = 0.0591716
Warmed up ...Time used is 3000 cycles
Class 0:
Packet latency average = 18.0774
	minimum = 7
	maximum = 42
Network latency average = 18.0774
	minimum = 7
	maximum = 42
Slowest packet = 14169
Flit latency average = 18.1274
	minimum = 7
	maximum = 42
Slowest flit = 14169
Fragmentation average = 0
	minimum = 0
	maximum = 0
Injected packet rate average = 0.0099375
	minimum = 0.006 (at node 12)
	maximum = 0.015 (at node 2)
Accepted packet rate average = 0.0098125
	minimum = 0.006 (at node 3)
	maximum = 0.014 (at node 0)
Injected flit rate average = 0.0099375
	minimum = 0.006 (at node 12)
	maximum = 0.015 (at node 2)
Accepted flit rate average= 0.0098125
	minimum = 0.006 (at node 3)
	maximum = 0.014 (at node 0)
Injected packet length average = 1
Accepted packet length average = 1
Total in-flight flits = 4 (4 measured)
latency change    = 0.0775482
throughput change = 0.0764331
Class 0:
Packet latency average = 19.1085
	minimum = 7
	maximum = 45
Network latency average = 19.1085
	minimum = 7
	maximum = 45
Slowest packet = 14241
Flit latency average = 19.1279
	minimum = 7
	maximum = 45
Slowest flit = 14241
Fragmentation average = 0
	minimum = 0
	maximum = 0
Injected packet rate average = 0.009375
	minimum = 0.007 (at node 3)
	maximum = 0.012 (at node 0)
Accepted packet rate average = 0.00928125
	minimum = 0.0065 (at node 12)
	maximum = 0.0115 (at node 0)
Injected flit rate average = 0.009375
	minimum = 0.007 (at node 3)
	maximum = 0.012 (at node 0)
Accepted flit rate average= 0.00928125
	minimum = 0.0065 (at node 12)
	maximum = 0.0115 (at node 0)
Injected packet length average = 1
Accepted packet length average = 1
Total in-flight flits = 5 (5 measured)
latency change    = 0.053958
throughput change = 0.0572391
Class 0:
Packet latency average = 18.9167
	minimum = 7
	maximum = 45
Network latency average = 18.9167
	minimum = 7
	maximum = 45
Slowest packet = 14241
Flit latency average = 18.9305
	minimum = 7
	maximum = 45
Slowest flit = 14241
Fragmentation average = 0
	minimum = 0
	maximum = 0
Injected packet rate average = 0.00933333
	minimum = 0.00666667 (at node 14)
	maximum = 0.0123333 (at node 8)
Accepted packet rate average = 0.00929167
	minimum = 0.00666667 (at node 11)
	maximum = 0.012 (at node 2)
Injected flit rate average = 0.00933333
	minimum = 0.00666667 (at node 14)
	maximum = 0.0123333 (at node 8)
Accepted flit rate average= 0.00929167
	minimum = 0.00666667 (at node 11)
	maximum = 0.012 (at node 2)
Injected packet length average = 1
Accepted packet length average = 1
Total in-flight flits = 4 (4 measured)
latency change    = 0.0101396
throughput change = 0.00112108
Class 0:
Packet latency average = 19.0992
	minimum = 7
	maximum = 45
Network latency average = 19.0992
	minimum = 7
	maximum = 45
Slowest packet = 14241
Flit latency average = 19.1087
	minimum = 7
	maximum = 45
Slowest flit = 14241
Fragmentation average = 0
	minimum = 0
	maximum = 0
Injected packet rate average = 0.00951562
	minimum = 0.00725 (at node 1)
	maximum = 0.01175 (at node 0)
Accepted packet rate average = 0.00948437
	minimum = 0.00725 (at node 4)
	maximum = 0.01175 (at node 0)
Injected flit rate average = 0.00951562
	minimum = 0.00725 (at node 1)
	maximum = 0.01175 (at node 0)
Accepted flit rate average= 0.00948437
	minimum = 0.00725 (at node 4)
	maximum = 0.01175 (at node 0)
Injected packet length average = 1
Accepted packet length average = 1
Total in-flight flits = 4 (4 measured)
latency change    = 0.00955575
throughput change = 0.0203185
Class 0:
Packet latency average = 19.3964
	minimum = 7
	maximum = 52
Network latency average = 19.3964
	minimum = 7
	maximum = 52
Slowest packet = 14813
Flit latency average = 19.403
	minimum = 7
	maximum = 52
Slowest flit = 14813
Fragmentation average = 0
	minimum = 0
	maximum = 0
Injected packet rate average = 0.0099125
	minimum = 0.0082 (at node 1)
	maximum = 0.0122 (at node 0)
Accepted packet rate average = 0.0098625
	minimum = 0.008 (at node 4)
	maximum = 0.0118 (at node 0)
Injected flit rate average = 0.0099125
	minimum = 0.0082 (at node 1)
	maximum = 0.0122 (at node 0)
Accepted flit rate average= 0.0098625
	minimum = 0.008 (at node 4)
	maximum = 0.0118 (at node 0)
Injected packet length average = 1
Accepted packet length average = 1
Total in-flight flits = 6 (6 measured)
latency change    = 0.0153259
throughput change = 0.0383397
[...]
	minimum = 0.007 (at node 9)
	maximum = 0.0113333 (at node 0)
Accepted packet rate average = 0.009125
	minimum = 0.00733333 (at node 4)
	maximum = 0.0113333 (at node 0)
Injected flit rate average = 0.0090625
	minimum = 0.007 (at node 9)
	maximum = 0.0113333 (at node 0)
Accepted flit rate average= 0.009125
	minimum = 0.00733333 (at node 4)
	maximum = 0.0113333 (at node 0)
Injected packet length average = 1
Accepted packet length average = 1
Total in-flight flits = 1 (1 measured)
latency change    = 0.0288051
throughput change = 0.0342466
Class 0:
Packet latency average = 19.7759
	minimum = 7
	maximum = 48
Network latency average = 19.7759
	minimum = 7
	maximum = 48
Slowest packet = 116227
Flit latency average = 19.7568
	minimum = 7
	maximum = 48
Slowest flit = 116227
Fragmentation average = 0
	minimum = 0
	maximum = 0
Injected packet rate average = 0.00909375
	minimum = 0.00725 (at node 5)
	maximum = 0.0115 (at node 3)
Accepted packet rate average = 0.009125
	minimum = 0.00725 (at node 5)
	maximum = 0.0115 (at node 12)
Injected flit rate average = 0.00909375
	minimum = 0.00725 (at node 5)
	maximum = 0.0115 (at node 3)
Accepted flit rate average= 0.009125
	minimum = 0.00725 (at node 5)
	maximum = 0.0115 (at node 12)
Injected packet length average = 1
Accepted packet length average = 1
Total in-flight flits = 2 (2 measured)
latency change    = 0.00445964
throughput change = 0
Class 0:
Packet latency average = 19.6041
	minimum = 7
	maximum = 48
Network latency average = 19.6041
	minimum = 7
	maximum = 48
Slowest packet = 116227
Flit latency average = 19.59
	minimum = 7
	maximum = 48
Slowest flit = 116227
Fragmentation average = 0
	minimum = 0
	maximum = 0
Injected packet rate average = 0.0091875
	minimum = 0.0076 (at node 7)
	maximum = 0.0118 (at node 0)
Accepted packet rate average = 0.0092375
	minimum = 0.0078 (at node 13)
	maximum = 0.0118 (at node 0)
Injected flit rate average = 0.0091875
	minimum = 0.0076 (at node 7)
	maximum = 0.0118 (at node 0)
Accepted flit rate average= 0.0092375
	minimum = 0.0078 (at node 13)
	maximum = 0.0118 (at node 0)
Injected packet length average = 1
Accepted packet length average = 1
Total in-flight flits = 0 (0 measured)
latency change    = 0.00876248
throughput change = 0.0121786
Draining all recorded packets ...
Draining remaining packets ...
Time taken is 8001 cycles
Class 0:
Packet latency average = 18.1588
	minimum = 7
	maximum = 37
Network latency average = 18.1588
	minimum = 7
	maximum = 37
Slowest packet = 116712
Flit latency average = 18.1588
	minimum = 7
	maximum = 37
Slowest flit = 116712
Fragmentation average = 0
	minimum = 0
	maximum = 0
Injected packet rate average = 0.0108125
	minimum = 0.005 (at node 3)
	maximum = 0.019 (at node 9)
Accepted packet rate average = 0.010625
	minimum = 0.005 (at node 1)
	maximum = 0.019 (at node 6)
Injected flit rate average = 0.0108125
	minimum = 0.005 (at node 3)
	maximum = 0.019 (at node 9)
Accepted flit rate average= 0.010625
	minimum = 0.005 (at node 1)
	maximum = 0.019 (at node 6)
Injected packet length average = 1
Accepted packet length average = 1
Total in-flight flits = 3 (0 measured)
latency change    = 1
throughput change = 1
Class 0:
Packet latency average = 18.2409
	minimum = 7
	maximum = 39
Network latency average = 18.2409
	minimum = 7
	maximum = 39
Slowest packet = 116918
Flit latency average = 18.2409
	minimum = 7
	maximum = 39
Slowest flit = 116918
Fragmentation average = 0
	minimum = 0
	maximum = 0
Injected packet rate average = 0.0103438
	minimum = 0.0055 (at node 3)
	maximum = 0.014 (at node 1)
Accepted packet rate average = 0.01025
	minimum = 0.0055 (at node 2)
	maximum = 0.014 (at node 4)
Injected flit rate average = 0.0103438
	minimum = 0.0055 (at node 3)
	maximum = 0.014 (at node 1)
Accepted flit rate average= 0.01025
	minimum = 0.0055 (at node 2)
	maximum = 0.014 (at node 4)
Injected packet length average = 1
Accepted packet length average = 1
Total in-flight flits = 3 (0 measured)
latency change    = 0.00449706
throughput change = 0.0365854
Class 0:
Packet latency average = 19.8166
	minimum = 7
	maximum = 42
Network latency average = 19.8166
	minimum = 7
	maximum = 42
Slowest packet = 117031
Flit latency average = 19.8166
	minimum = 7
	maximum = 42
Slowest flit = 117031
Fragmentation average = 0
	minimum = 0
	maximum = 0
Injected packet rate average = 0.01075
	minimum = 0.007 (at node 4)
	maximum = 0.015 (at node 12)
Accepted packet rate average = 0.0105625
	minimum = 0.006 (at node 1)
	maximum = 0.016 (at node 3)
Injected flit rate average = 0.01075
	minimum = 0.007 (at node 4)
	maximum = 0.015 (at node 12)
Accepted flit rate average= 0.0105625
	minimum = 0.006 (at node 1)
	maximum = 0.016 (at node 3)
Injected packet length average = 1
Accepted packet length average = 1
Total in-flight flits = 6 (0 measured)
latency change    = 0.079515
throughput change = 0.0295858
Warmed up ...Time used is 3000 cycles
Class 0:
Packet latency average = 19.9451
	minimum = 7
	maximum = 44
Network latency average = 19.9451
	minimum = 7
	maximum = 44
Slowest packet = 117363
Flit latency average = 19.8412
	minimum = 7
	maximum = 44
Slowest flit = 117363
Fragmentation average = 0
	minimum = 0
	maximum = 0
Injected packet rate average = 0.0103125
	minimum = 0.004 (at node 4)
	maximum = 0.014 (at node 11)
Accepted packet rate average = 0.010625
	minimum = 0.005 (at node 1)
	maximum = 0.015 (at node 14)
Injected flit rate average = 0.0103125
	minimum = 0.004 (at node 4)
	maximum = 0.014 (at node 11)
Accepted flit rate average= 0.010625
	minimum = 0.005 (at node 1)
	maximum = 0.015 (at node 14)
Injected packet length average = 1
Accepted packet length average = 1
Total in-flight flits = 1 (1 measured)
latency change    = 0.00644538
throughput change = 0.00588235
Class 0:
Packet latency average = 20.5198
	minimum = 7
	maximum = 44
Network latency average = 20.5198
	minimum = 7
	maximum = 44
Slowest packet = 117363
Flit latency average = 20.4567
	minimum = 7
	maximum = 44
Slowest flit = 117363
Fragmentation average = 0
	minimum = 0
	maximum = 0
Injected packet rate average = 0.0104375
	minimum = 0.006 (at node 4)
	maximum = 0.015 (at node 12)
Accepted packet rate average = 0.0104688
	minimum = 0.006 (at node 1)
	maximum = 0.015 (at node 3)
Injected flit rate average = 0.0104375
	minimum = 0.006 (at node 4)
	maximum = 0.015 (at node 12)
Accepted flit rate average= 0.0104688
	minimum = 0.006 (at node 1)
	maximum = 0.015 (at node 3)
Injected packet length average = 1
Accepted packet length average = 1
Total in-flight flits = 5 (5 measured)
latency change    = 0.028004
throughput change = 0.0149254
Class 0:
Packet latency average = 20.3724
	minimum = 7
	maximum = 44
Network latency average = 20.3724
	minimum = 7
	maximum = 44
Slowest packet = 117363
Flit latency average = 20.3313
	minimum = 7
	maximum = 44
Slowest flit = 117363
Fragmentation average = 0
	minimum = 0
	maximum = 0
Injected packet rate average = 0.0101875
	minimum = 0.008 (at node 1)
	maximum = 0.0146667 (at node 8)
Accepted packet rate average = 0.01025
	minimum = 0.00833333 (at node 1)
	maximum = 0.0146667 (at node 2)
Injected flit rate average = 0.0101875
	minimum = 0.008 (at node 1)
	maximum = 0.0146667 (at node 8)
Accepted flit rate average= 0.01025
	minimum = 0.00833333 (at node 1)
	maximum = 0.0146667 (at node 2)
Injected packet length average = 1
Accepted packet length average = 1
Total in-flight flits = 3 (3 measured)
latency change    = 0.00723178
throughput change = 0.0213415
Draining all recorded packets ...
Draining remaining packets ...
Time taken is 6038 cycles
Class 0:
Packet latency average = 19.586
	minimum = 7
	maximum = 56
Network latency average = 19.586
	minimum = 7
	maximum = 56
Slowest packet = 117782
Flit latency average = 19.586
	minimum = 7
	maximum = 56
Slowest flit = 117782
Fragmentation average = 0
	minimum = 0
	maximum = 0
Injected packet rate average = 0.010125
	minimum = 0.002 (at node 4)
	maximum = 0.014 (at node 0)
Accepted packet rate average = 0.0098125
	minimum = 0.002 (at node 1)
	maximum = 0.014 (at node 0)
Injected flit rate average = 0.010125
	minimum = 0.002 (at node 4)
	maximum = 0.014 (at node 0)
Accepted flit rate average= 0.0098125
	minimum = 0.002 (at node 1)
	maximum = 0.014 (at node 0)
Injected packet length average = 1
Accepted packet length average = 1
Total in-flight flits = 5 (0 measured)
latency change    = 1
throughput change = 1
Class 0:
Packet latency average = 19.6979
	minimum = 7
	maximum = 56
Network latency average = 19.6979
	minimum = 7
	maximum = 56
Slowest packet = 117782
Flit latency average = 19.6979
	minimum = 7
	maximum = 56
Slowest flit = 117782
Fragmentation average = 0
	minimum = 0
	maximum = 0
Injected packet rate average = 0.0107188
	minimum = 0.0065 (at node 5)
	maximum = 0.0145 (at node 13)
Accepted packet rate average = 0.0106563
	minimum = 0.0065 (at node 5)
	maximum = 0.0145 (at node 7)
Injected flit rate average = 0.0107188
	minimum = 0.0065 (at node 5)
	maximum = 0.0145 (at node 13)
Accepted flit rate average= 0.0106563
	minimum = 0.0065 (at node 5)
	maximum = 0.0145 (at node 7)
Injected packet length average = 1
Accepted packet length average = 1
Total in-flight flits = 2 (0 measured)
latency change    = 0.00568384
throughput change = 0.0791789
Class 0:
Packet latency average = 19.7456
	minimum = 7
	maximum = 47
Network latency average = 19.7456
	minimum = 7
	maximum = 47
Slowest packet = 118165
Flit latency average = 19.7456
	minimum = 7
	maximum = 47
Slowest flit = 118165
Fragmentation average = 0
	minimum = 0
	maximum = 0
Injected packet rate average = 0.0105625
	minimum = 0.005 (at node 10)
	maximum = 0.015 (at node 5)
Accepted packet rate average = 0.0105625
	minimum = 0.005 (at node 10)
	maximum = 0.015 (at node 6)
Injected flit rate average = 0.0105625
	minimum = 0.005 (at node 10)
	maximum = 0.015 (at node 5)
Accepted flit rate average= 0.0105625
	minimum = 0.005 (at node 10)
	maximum = 0.015 (at node 6)
Injected packet length average = 1
Accepted packet length average = 1
Total in-flight flits = 2 (0 measured)
latency change    = 0.00241142
throughput change = 0.00887574
Warmed up ...Time used is 3000 cycles
Class 0:
Packet latency average = 19.122
	minimum = 7
	maximum = 37
Network latency average = 19.122
	minimum = 7
	maximum = 37
Slowest packet = 118224
Flit latency average = 19.0361
	minimum = 7
	maximum = 37
Slowest flit = 118224
Fragmentation average = 0
	minimum = 0
	maximum = 0
Injected packet rate average = 0.0104375
	minimum = 0.007 (at node 0)
	maximum = 0.017 (at node 14)
Accepted packet rate average = 0.010375
	minimum = 0.007 (at node 0)
	maximum = 0.018 (at node 11)
Injected flit rate average = 0.0104375
	minimum = 0.007 (at node 0)
	maximum = 0.017 (at node 14)
Accepted flit rate average= 0.010375
	minimum = 0.007 (at node 0)
	maximum = 0.018 (at node 11)
Injected packet length average = 1
Accepted packet length average = 1
Total in-flight flits = 3 (3 measured)
latency change    = 0.0326123
throughput change = 0.0180723
Class 0:
Packet latency average = 19.0708
	minimum = 7
	maximum = 47
Network latency average = 19.0708
	minimum = 7
	maximum = 47
Slowest packet = 118523
Flit latency average = 19.0275
	minimum = 7
	maximum = 47
Slowest flit = 118523
Fragmentation average = 0
	minimum = 0
	maximum = 0
Injected packet rate average = 0.0102188
	minimum = 0.0065 (at node 10)
	maximum = 0.016 (at node 14)
Accepted packet rate average = 0.0102188
	minimum = 0.0065 (at node 10)
	maximum = 0.016 (at node 11)
Injected flit rate average = 0.0102188
	minimum = 0.0065 (at node 10)
	maximum = 0.016 (at node 14)
Accepted flit rate average= 0.0102188
	minimum = 0.0065 (at node 10)
	maximum = 0.016 (at node 11)
Injected packet length average = 1
Accepted packet length average = 1
Total in-flight flits = 2 (2 measured)
latency change    = 0.00268379
throughput change = 0.0152905
Class 0:
Packet latency average = 19.5871
	minimum = 7
	maximum = 48
Network latency average = 19.5871
	minimum = 7
	maximum = 48
Slowest packet = 118609
Flit latency average = 19.5558
	minimum = 7
	maximum = 48
Slowest flit = 118609
Fragmentation average = 0
	minimum = 0
	maximum = 0
Injected packet rate average = 0.0101875
	minimum = 0.00633333 (at node 8)
	maximum = 0.0143333 (at node 14)
Accepted packet rate average = 0.0100833
	minimum = 0.006 (at node 2)
	maximum = 0.0146667 (at node 11)
Injected flit rate average = 0.0101875
	minimum = 0.00633333 (at node 8)
	maximum = 0.0143333 (at node 14)
Accepted flit rate average= 0.0100833
	minimum = 0.006 (at node 2)
	maximum = 0.0146667 (at node 11)
Injected packet length average = 1
Accepted packet length average = 1
Total in-flight flits = 7 (7 measured)
latency change    = 0.0263626
throughput change = 0.0134298
Draining all recorded packets ...
Draining remaining packets ...
Time taken is 6056 cycles
Class 0:
Packet latency average = 19.3813
	minimum = 7
	maximum = 43
Network latency average = 19.3813
	minimum = 7
	maximum = 43
Slowest packet = 118770
Flit latency average = 19.3813
	minimum = 7
	maximum = 43
Slowest flit = 118770
Fragmentation average = 0
	minimum = 0
	maximum = 0
Injected packet rate average = 0.0101875
	minimum = 0.005 (at node 0)
	maximum = 0.014 (at node 14)
Accepted packet rate average = 0.01
	minimum = 0.005 (at node 0)
	maximum = 0.014 (at node 11)
Injected flit rate average = 0.0101875
	minimum = 0.005 (at node 0)
	maximum = 0.014 (at node 14)
Accepted flit rate average= 0.01
	minimum = 0.005 (at node 0)
	maximum = 0.014 (at node 11)
Injected packet length average = 1
Accepted packet length average = 1
Total in-flight flits = 3 (0 measured)
latency change    = 1
throughput change = 1
Class 0:
Packet latency average = 19.6238
	minimum = 7
	maximum = 43
Network latency average = 19.6238
	minimum = 7
	maximum = 43
Slowest packet = 118770
Flit latency average = 19.6238
	minimum = 7
	maximum = 43
Slowest flit = 118770
Fragmentation average = 0
	minimum = 0
	maximum = 0
Injected packet rate average = 0.0095625
	minimum = 0.006 (at node 0)
	maximum = 0.0125 (at node 15)
Accepted packet rate average = 0.00946875
	minimum = 0.006 (at node 0)
	maximum = 0.0125 (at node 15)
Injected flit rate average = 0.0095625
	minimum = 0.006 (at node 0)
	maximum = 0.0125 (at node 15)
Accepted flit rate average= 0.00946875
	minimum = 0.006 (at node 0)
	maximum = 0.0125 (at node 15)
Injected packet length average = 1
Accepted packet length average = 1
Total in-flight flits = 3 (0 measured)
latency change    = 0.0123581
throughput change = 0.0561056
Class 0:
Packet latency average = 19.5989
	minimum = 7
	maximum = 42
Network latency average = 19.5989
	minimum = 7
	maximum = 42
Slowest packet = 119102
Flit latency average = 19.5989
	minimum = 7
	maximum = 42
Slowest flit = 119102
Fragmentation average = 0
	minimum = 0
	maximum = 0
Injected packet rate average = 0.0114375
	minimum = 0.006 (at node 3)
	maximum = 0.015 (at node 4)
Accepted packet rate average = 0.011375
	minimum = 0.006 (at node 12)
	maximum = 0.015 (at node 1)
Injected flit rate average = 0.0114375
	minimum = 0.006 (at node 3)
	maximum = 0.015 (at node 4)
Accepted flit rate average= 0.011375
	minimum = 0.006 (at node 12)
	maximum = 0.015 (at node 1)
Injected packet length average = 1
Accepted packet length average = 1
Total in-flight flits = 4 (0 measured)
latency change    = 0.0012685
throughput change = 0.167582
Warmed up ...Time used is 3000 cycles
Class 0:
Packet latency average = 19.747
	minimum = 7
	maximum = 56
Network latency average = 19.747
	minimum = 7
	maximum = 56
Slowest packet = 119239
Flit latency average = 19.8
	minimum = 7
	maximum = 56
Slowest flit = 119239
Fragmentation average = 0
	minimum = 0
	maximum = 0
Injected packet rate average = 0.01075
	minimum = 0.006 (at node 2)
	maximum = 0.019 (at node 9)
Accepted packet rate average = 0.010625
	minimum = 0.006 (at node 2)
	maximum = 0.018 (at node 6)
Injected flit rate average = 0.01075
	minimum = 0.006 (at node 2)
	maximum = 0.019 (at node 9)
Accepted flit rate average= 0.010625
	minimum = 0.006 (at node 2)
	maximum = 0.018 (at node 6)
Injected packet length average = 1
Accepted packet length average = 1
Total in-flight flits = 6 (6 measured)
latency change    = 0.00749921
throughput change = 0.0705882
Class 0:
Packet latency average = 20.0965
	minimum = 7
	maximum = 56
Network latency average = 20.0965
	minimum = 7
	maximum = 56
Slowest packet = 119239
Flit latency average = 20.1185
	minimum = 7
	maximum = 56
Slowest flit = 119239
Fragmentation average = 0
	minimum = 0
	maximum = 0
Injected packet rate average = 0.0108125
	minimum = 0.006 (at node 0)
	maximum = 0.015 (at node 9)
Accepted packet rate average = 0.0108125
	minimum = 0.0055 (at node 0)
	maximum = 0.015 (at node 6)
Injected flit rate average = 0.0108125
	minimum = 0.006 (at node 0)
	maximum = 0.015 (at node 9)
Accepted flit rate average= 0.0108125
	minimum = 0.0055 (at node 0)
	maximum = 0.015 (at node 6)
Injected packet length average = 1
Accepted packet length average = 1
Total in-flight flits = 4 (4 measured)
latency change    = 0.0173913
throughput change = 0.017341
Class 0:
Packet latency average = 19.8469
	minimum = 7
	maximum = 56
Network latency average = 19.8469
	minimum = 7
	maximum = 56
Slowest packet = 119239
Flit latency average = 19.8639
	minimum = 7
	maximum = 56
Slowest flit = 119239
Fragmentation average = 0
	minimum = 0
	maximum = 0
Injected packet rate average = 0.0105208
	minimum = 0.00666667 (at node 0)
	maximum = 0.014 (at node 9)
Accepted packet rate average = 0.0105625
	minimum = 0.00666667 (at node 0)
	maximum = 0.014 (at node 6)
Injected flit rate average = 0.0105208
	minimum = 0.00666667 (at node 0)
	maximum = 0.014 (at node 9)
Accepted flit rate average= 0.0105625
	minimum = 0.00666667 (at node 0)
	maximum = 0.014 (at node 6)
Injected packet length average = 1
Accepted packet length average = 1
Total in-flight flits = 2 (2 measured)
latency change    = 0.0125749
throughput change = 0.0236686
Class 0:
Packet latency average = 19.8054
	minimum = 7
	maximum = 56
Network latency average = 19.8054
	minimum = 7
	maximum = 56
Slowest packet = 119239
Flit latency average = 19.8186
	minimum = 7
	maximum = 56
Slowest flit = 119239
Fragmentation average = 0
	minimum = 0
	maximum = 0
Injected packet rate average = 0.010375
	minimum = 0.0075 (at node 5)
	maximum = 0.0135 (at node 9)
Accepted packet rate average = 0.0104219
	minimum = 0.0075 (at node 5)
	maximum = 0.0135 (at node 6)
Injected flit rate average = 0.010375
	minimum = 0.0075 (at node 5)
	maximum = 0.0135 (at node 9)
Accepted flit rate average= 0.0104219
	minimum = 0.0075 (at node 5)
	maximum = 0.0135 (at node 6)
Injected packet length average = 1
Accepted packet length average = 1
Total in-flight flits = 1 (1 measured)
latency change    = 0.00209481
throughput change = 0.0134933
Draining all recorded packets ...
Draining remaining packets ...
Time taken is 7034 cycles
====== Overall Traffic Statistics ======
====== Traffic class 0 ======
Packet latency average = 19.6674 (100 samples)
	minimum = 7 (100 samples)
	maximum = 48.01 (100 samples)
Network latency average = 19.6674 (100 samples)
	minimum = 7 (100 samples)
	maximum = 48.01 (100 samples)
Flit latency average = 19.6895 (100 samples)
	minimum = 7 (100 samples)
	maximum = 48.05 (100 samples)
Fragmentation average = 0 (100 samples)
	minimum = 0 (100 samples)
	maximum = 0 (100 samples)
Injected packet rate average = 0.0100081 (100 samples)
	minimum = 0.0074556 (100 samples)
	maximum = 0.0126987 (100 samples)
Accepted packet rate average = 0.0100139 (100 samples)
	minimum = 0.00746876 (100 samples)
	maximum = 0.0127246 (100 samples)
Injected flit rate average = 0.0100081 (100 samples)
	minimum = 0.0074556 (100 samples)
	maximum = 0.0126987 (100 samples)
Accepted flit rate average = 0.0100139 (100 samples)
	minimum = 0.00746876 (100 samples)
	maximum = 0.0127246 (100 samples)
Injected packet size average = 1 (100 samples)
Accepted packet size average = 1 (100 samples)
Hops average = 3.50157 (100 samples)
Total run time 11.7216
