BEGIN Configuration File: /tmp/tmp3swu1yi1.cfg
topology = mesh;
k = 4;
n = 2;
routing_function = romm;
num_vcs = 4;
vc_buf_size = 4;
wait_for_tail_credit = 1;
vc_allocator = islip;
sw_allocator = islip;
alloc_iters = 1;
credit_delay = 2;
routing_delay = 1;
vc_alloc_delay = 1;
sw_alloc_delay = 1;
input_speedup = 2;
output_speedup = 1;
internal_speedup = 1.0;
traffic = transpose;
packet_size = 1;
sim_type = latency;
injection_rate = 0.1;
warmup_periods = 3;
sample_period = 1000;
sim_count = 100;
seed = 1;

END Configuration File: /tmp/tmp3swu1yi1.cfg
Class 0:
Packet latency average = 21.7339
	minimum = 7
	maximum = 116
Network latency average = 21.6637
	minimum = 7
	maximum = 116
Slowest packet = 628
Flit latency average = 21.6637
	minimum = 7
	maximum = 116
Slowest flit = 628
Fragmentation average = 0
	minimum = 0
	maximum = 0
Injected packet rate average = 0.101437
	minimum = 0.087 (at node 5)
	maximum = 0.119 (at node 1)
Accepted packet rate average = 0.0998125
	minimum = 0.087 (at node 2)
	maximum = 0.117 (at node 4)
Injected flit rate average = 0.101437
	minimum = 0.087 (at node 5)
	maximum = 0.119 (at node 1)
Accepted flit rate average= 0.0998125
	minimum = 0.087 (at node 2)
	maximum = 0.117 (at node 4)
Injected packet length average = 1
Accepted packet length average = 1
Total in-flight flits = 26 (0 measured)
latency change    = 1
throughput change = 1
Class 0:
Packet latency average = 22.0069
	minimum = 7
	maximum = 116
Network latency average = 21.938
	minimum = 7
	maximum = 116
Slowest packet = 628
Flit latency average = 21.938
	minimum = 7
	maximum = 116
Slowest flit = 628
Fragmentation average = 0
	minimum = 0
	maximum = 0
Injected packet rate average = 0.100875
	minimum = 0.09 (at node 2)
	maximum = 0.1155 (at node 6)
Accepted packet rate average = 0.0997813
	minimum = 0.0885 (at node 8)
	maximum = 0.1145 (at node 9)
Injected flit rate average = 0.100875
	minimum = 0.09 (at node 2)
	maximum = 0.1155 (at node 6)
Accepted flit rate average= 0.0997813
	minimum = 0.0885 (at node 8)
	maximum = 0.1145 (at node 9)
Injected packet length average = 1
Accepted packet length average = 1
Total in-flight flits = 35 (0 measured)
latency change    = 0.0124058
throughput change = 0.000313185
Class 0:
Packet latency average = 21.3735
	minimum = 7
	maximum = 95
Network latency average = 21.3723
	minimum = 7
	maximum = 95
Slowest packet = 4569
Flit latency average = 21.3723
	minimum = 7
	maximum = 95
Slowest flit = 4569
Fragmentation average = 0
	minimum = 0
	maximum = 0
Injected packet rate average = 0.100375
	minimum = 0.086 (at node 0)
	maximum = 0.113 (at node 6)
Accepted packet rate average = 0.101062
	minimum = 0.086 (at node 0)
	maximum = 0.114 (at node 9)
Injected flit rate average = 0.100375
	minimum = 0.086 (at node 0)
	maximum = 0.113 (at node 6)
Accepted flit rate average= 0.101062
	minimum = 0.086 (at node 0)
	maximum = 0.114 (at node 9)
Injected packet length average = 1
Accepted packet length average = 1
Total in-flight flits = 24 (0 measured)
latency change    = 0.0296329
throughput change = 0.0126778
Warmed up ...Time used is 3000 cycles
Class 0:
Packet latency average = 21.7669
	minimum = 7
	maximum = 115
Network latency average = 21.6442
	minimum = 7
	maximum = 106
Slowest packet = 5985
Flit latency average = 21.6964
	minimum = 7
	maximum = 106
Slowest flit = 5985
Fragmentation average = 0
	minimum = 0
	maximum = 0
Injected packet rate average = 0.099625
	minimum = 0.08 (at node 0)
	maximum = 0.117 (at node 5)
Accepted packet rate average = 0.0988125
	minimum = 0.08 (at node 0)
	maximum = 0.118 (at node 5)
Injected flit rate average = 0.099625
	minimum = 0.08 (at node 0)
	maximum = 0.117 (at node 5)
Accepted flit rate average= 0.0988125
	minimum = 0.08 (at node 0)
	maximum = 0.118 (at node 5)
Injected packet length average = 1
Accepted packet length average = 1
Total in-flight flits = 37 (37 measured)
latency change    = 0.01807
throughput change = 0.0227704
Class 0:
Packet latency average = 22.191
	minimum = 7
	maximum = 115
Network latency average = 22.0837
	minimum = 7
	maximum = 106
Slowest packet = 5985
Flit latency average = 22.1061
	minimum = 7
	maximum = 106
Slowest flit = 5985
Fragmentation average = 0
	minimum = 0
	maximum = 0
Injected packet rate average = 0.100969
	minimum = 0.0875 (at node 0)
	maximum = 0.1155 (at node 5)
Accepted packet rate average = 0.100406
	minimum = 0.087 (at node 0)
	maximum = 0.1155 (at node 5)
Injected flit rate average = 0.100969
	minimum = 0.0875 (at node 0)
	maximum = 0.1155 (at node 5)
Accepted flit rate average= 0.100406
	minimum = 0.087 (at node 0)
	maximum = 0.1155 (at node 5)
Injected packet length average = 1
Accepted packet length average = 1
Total in-flight flits = 42 (42 measured)
latency change    = 0.0191118
throughput change = 0.015873
Class 0:
Packet latency average = 22.1946
	minimum = 7
	maximum = 115
Network latency average = 22.1221
	minimum = 7
	maximum = 106
Slowest packet = 5985
Flit latency average = 22.1368
	minimum = 7
	maximum = 106
Slowest flit = 5985
Fragmentation average = 0
	minimum = 0
	maximum = 0
Injected packet rate average = 0.101042
	minimum = 0.093 (at node 0)
	maximum = 0.117333 (at node 5)
Accepted packet rate average = 0.100687
	minimum = 0.093 (at node 0)
	maximum = 0.117 (at node 5)
Injected flit rate average = 0.101042
	minimum = 0.093 (at node 0)
	maximum = 0.117333 (at node 5)
Accepted flit rate average= 0.100687
	minimum = 0.093 (at node 0)
	maximum = 0.117 (at node 5)
Injected packet length average = 1
Accepted packet length average = 1
Total in-flight flits = 41 (41 measured)
latency change    = 0.00016518
throughput change = 0.0027933
Draining all recorded packets ...
Draining remaining packets ...
Time taken is 6099 cycles
Class 0:
Packet latency average = 20.8123
	minimum = 7
	maximum = 66
Network latency average = 20.8065
	minimum = 7
	maximum = 64
Slowest packet = 10892
Flit latency average = 20.8065
	minimum = 7
	maximum = 64
Slowest flit = 10892
Fragmentation average = 0
	minimum = 0
	maximum = 0
Injected packet rate average = 0.099625
	minimum = 0.076 (at node 14)
	maximum = 0.109 (at node 0)
Accepted packet rate average = 0.097875
	minimum = 0.075 (at node 11)
	maximum = 0.108 (at node 0)
Injected flit rate average = 0.099625
	minimum = 0.076 (at node 14)
	maximum = 0.109 (at node 0)
Accepted flit rate average= 0.097875
	minimum = 0.075 (at node 11)
	maximum = 0.108 (at node 0)
Injected packet length average = 1
Accepted packet length average = 1
Total in-flight flits = 28 (0 measured)
latency change    = 1
throughput change = 1
Class 0:
Packet latency average = 21.4097
	minimum = 7
	maximum = 93
Network latency average = 21.3866
	minimum = 7
	maximum = 93
Slowest packet = 11783
Flit latency average = 21.3866
	minimum = 7
	maximum = 93
Slowest flit = 11783
Fragmentation average = 0
	minimum = 0
	maximum = 0
Injected packet rate average = 0.0998125
	minimum = 0.0865 (at node 14)
	maximum = 0.1115 (at node 4)
Accepted packet rate average = 0.0989375
	minimum = 0.085 (at node 11)
	maximum = 0.111 (at node 1)
Injected flit rate average = 0.0998125
	minimum = 0.0865 (at node 14)
	maximum = 0.1115 (at node 4)
Accepted flit rate average= 0.0989375
	minimum = 0.085 (at node 11)
	maximum = 0.111 (at node 1)
Injected packet length average = 1
Accepted packet length average = 1
Total in-flight flits = 28 (0 measured)
latency change    = 0.0279035
throughput change = 0.0107391
Class 0:
Packet latency average = 21.267
	minimum = 7
	maximum = 81
Network latency average = 21.2593
	minimum = 7
	maximum = 81
Slowest packet = 13728
Flit latency average = 21.2593
	minimum = 7
	maximum = 81
Slowest flit = 13728
Fragmentation average = 0
	minimum = 0
	maximum = 0
Injected packet rate average = 0.0974375
	minimum = 0.087 (at node 13)
	maximum = 0.116 (at node 0)
Accepted packet rate average = 0.097625
	minimum = 0.089 (at node 7)
	maximum = 0.117 (at node 0)
Injected flit rate average = 0.0974375
	minimum = 0.087 (at node 13)
	maximum = 0.116 (at node 0)
Accepted flit rate average= 0.097625
	minimum = 0.089 (at node 7)
	maximum = 0.117 (at node 0)
Injected packet length average = 1
Accepted packet length average = 1
Total in-flight flits = 25 (0 measured)
latency change    = 0.00670993
throughput change = 0.0134443
Warmed up ...Time used is 3000 cycles
Class 0:
Packet latency average = 20.8922
	minimum = 7
	maximum = 79
Network latency average = 20.8897
	minimum = 7
	maximum = 79
Slowest packet = 15556
Flit latency average = 20.9636
	minimum = 7
	maximum = 79
Slowest flit = 15556
Fragmentation average = 0
	minimum = 0
	maximum = 0
Injected packet rate average = 0.099875
	minimum = 0.089 (at node 3)
	maximum = 0.119 (at node 0)
Accepted packet rate average = 0.0995625
	minimum = 0.088 (at node 12)
	maximum = 0.12 (at node 11)
Injected flit rate average = 0.099875
	minimum = 0.089 (at node 3)
	maximum = 0.119 (at node 0)
Accepted flit rate average= 0.0995625
	minimum = 0.088 (at node 12)
	maximum = 0.12 (at node 11)
Injected packet length average = 1
Accepted packet length average = 1
Total in-flight flits = 30 (30 measured)
latency change    = 0.0179371
throughput change = 0.0194601
Class 0:
Packet latency average = 20.8249
	minimum = 7
	maximum = 79
Network latency average = 20.8236
	minimum = 7
	maximum = 79
Slowest packet = 15556
Flit latency average = 20.8617
	minimum = 7
	maximum = 79
Slowest flit = 15556
Fragmentation average = 0
	minimum = 0
	maximum = 0
Injected packet rate average = 0.0983437
	minimum = 0.089 (at node 11)
	maximum = 0.1075 (at node 14)
Accepted packet rate average = 0.097875
	minimum = 0.0885 (at node 14)
	maximum = 0.1085 (at node 11)
Injected flit rate average = 0.0983437
	minimum = 0.089 (at node 11)
	maximum = 0.1075 (at node 14)
Accepted flit rate average= 0.097875
	minimum = 0.0885 (at node 14)
	maximum = 0.1085 (at node 11)
Injected packet length average = 1
Accepted packet length average = 1
Total in-flight flits = 40 (40 measured)
latency change    = 0.00323209
throughput change = 0.0172414
Class 0:
Packet latency average = 21.2514
	minimum = 7
	maximum = 87
Network latency average = 21.2324
	minimum = 7
	maximum = 87
Slowest packet = 17977
Flit latency average = 21.2556
	minimum = 7
	maximum = 87
Slowest flit = 17977
Fragmentation average = 0
	minimum = 0
	maximum = 0
Injected packet rate average = 0.0982083
	minimum = 0.089 (at node 15)
	maximum = 0.11 (at node 4)
Accepted packet rate average = 0.098125
	minimum = 0.0893333 (at node 15)
	maximum = 0.109667 (at node 1)
Injected flit rate average = 0.0982083
	minimum = 0.089 (at node 15)
	maximum = 0.11 (at node 4)
Accepted flit rate average= 0.098125
	minimum = 0.0893333 (at node 15)
	maximum = 0.109667 (at node 1)
Injected packet length average = 1
Accepted packet length average = 1
Total in-flight flits = 29 (29 measured)
latency change    = 0.0200706
throughput change = 0.00254777
Draining all recorded packets ...
Draining remaining packets ...
Time taken is 6077 cycles
Class 0:
Packet latency average = 21.2609
	minimum = 7
	maximum = 71
Network latency average = 21.2557
	minimum = 7
	maximum = 71
Slowest packet = 19608
Flit latency average = 21.2557
	minimum = 7
	maximum = 71
Slowest flit = 19608
Fragmentation average = 0
	minimum = 0
	maximum = 0
Injected packet rate average = 0.09825
	minimum = 0.085 (at node 12)
	maximum = 0.114 (at node 15)
Accepted packet rate average = 0.0960625
	minimum = 0.081 (at node 3)
	maximum = 0.114 (at node 15)
Injected flit rate average = 0.09825
	minimum = 0.085 (at node 12)
	maximum = 0.114 (at node 15)
Accepted flit rate average= 0.0960625
	minimum = 0.081 (at node 3)
	maximum = 0.114 (at node 15)
Injected packet length average = 1
Accepted packet length average = 1
Total in-flight flits = 35 (0 measured)
latency change    = 1
throughput change = 1
Class 0:
Packet latency average = 22.1269
	minimum = 7
	maximum = 165
Network latency average = 21.7988
	minimum = 7
	maximum = 165
Slowest packet = 21105
Flit latency average = 21.7988
	minimum = 7
	maximum = 165
Slowest flit = 21105
Fragmentation average = 0
	minimum = 0
	maximum = 0
Injected packet rate average = 0.09825
	minimum = 0.0905 (at node 2)
	maximum = 0.1065 (at node 6)
Accepted packet rate average = 0.0970625
	minimum = 0.09 (at node 8)
	maximum = 0.1055 (at node 9)
Injected flit rate average = 0.09825
	minimum = 0.0905 (at node 2)
	maximum = 0.1065 (at node 6)
Accepted flit rate average= 0.0970625
	minimum = 0.09 (at node 8)
	maximum = 0.1055 (at node 9)
Injected packet length average = 1
Accepted packet length average = 1
Total in-flight flits = 38 (0 measured)
latency change    = 0.0391359
throughput change = 0.0103026
Class 0:
Packet latency average = 23.8461
	minimum = 7
	maximum = 138
Network latency average = 23.6735
	minimum = 7
	maximum = 138
Slowest packet = 23444
Flit latency average = 23.6735
	minimum = 7
	maximum = 138
Slowest flit = 23444
Fragmentation average = 0
	minimum = 0
	maximum = 0
Injected packet rate average = 0.1005
	minimum = 0.078 (at node 1)
	maximum = 0.124 (at node 6)
Accepted packet rate average = 0.100687
	minimum = 0.081 (at node 4)
	maximum = 0.12 (at node 9)
Injected flit rate average = 0.1005
	minimum = 0.078 (at node 1)
	maximum = 0.124 (at node 6)
Accepted flit rate average= 0.100687
	minimum = 0.081 (at node 4)
	maximum = 0.12 (at node 9)
Injected packet length average = 1
Accepted packet length average = 1
Total in-flight flits = 35 (0 measured)
latency change    = 0.0720961
throughput change = 0.0360025
Warmed up ...Time used is 3000 cycles
Class 0:
Packet latency average = 21.9248
	minimum = 7
	maximum = 113
Network latency average = 21.8939
	minimum = 7
	maximum = 113
Slowest packet = 24770
Flit latency average = 22.0164
	minimum = 7
	maximum = 113
Slowest flit = 24770
Fragmentation average = 0
	minimum = 0
	maximum = 0
Injected packet rate average = 0.099375
	minimum = 0.084 (at node 9)
	maximum = 0.13 (at node 2)
Accepted packet rate average = 0.099375
	minimum = 0.083 (at node 6)
	maximum = 0.131 (at node 8)
Injected flit rate average = 0.099375
	minimum = 0.084 (at node 9)
	maximum = 0.13 (at node 2)
Accepted flit rate average= 0.099375
	minimum = 0.083 (at node 6)
	maximum = 0.131 (at node 8)
Injected packet length average = 1
Accepted packet length average = 1
Total in-flight flits = 35 (35 measured)
latency change    = 0.0876315
throughput change = 0.0132075
Class 0:
Packet latency average = 21.5393
	minimum = 7
	maximum = 113
Network latency average = 21.5238
	minimum = 7
	maximum = 113
Slowest packet = 24770
Flit latency average = 21.5889
	minimum = 7
	maximum = 113
Slowest flit = 24770
Fragmentation average = 0
	minimum = 0
	maximum = 0
Injected packet rate average = 0.0998125
	minimum = 0.089 (at node 4)
	maximum = 0.11 (at node 15)
Accepted packet rate average = 0.0996563
	minimum = 0.088 (at node 1)
	maximum = 0.11 (at node 15)
Injected flit rate average = 0.0998125
	minimum = 0.089 (at node 4)
	maximum = 0.11 (at node 15)
Accepted flit rate average= 0.0996563
	minimum = 0.088 (at node 1)
	maximum = 0.11 (at node 15)
Injected packet length average = 1
Accepted packet length average = 1
Total in-flight flits = 40 (40 measured)
latency change    = 0.0178949
throughput change = 0.0028222
Class 0:
Packet latency average = 21.5939
	minimum = 7
	maximum = 113
Network latency average = 21.5816
	minimum = 7
	maximum = 113
Slowest packet = 24770
Flit latency average = 21.6243
	minimum = 7
	maximum = 113
Slowest flit = 24770
Fragmentation average = 0
	minimum = 0
	maximum = 0
Injected packet rate average = 0.100146
	minimum = 0.0893333 (at node 4)
	maximum = 0.109333 (at node 2)
Accepted packet rate average = 0.100208
	minimum = 0.0886667 (at node 1)
	maximum = 0.109333 (at node 8)
Injected flit rate average = 0.100146
	minimum = 0.0893333 (at node 4)
	maximum = 0.109333 (at node 2)
Accepted flit rate average= 0.100208
	minimum = 0.0886667 (at node 1)
	maximum = 0.109333 (at node 8)
Injected packet length average = 1
Accepted packet length average = 1
Total in-flight flits = 32 (32 measured)
latency change    = 0.00252902
throughput change = 0.00550936
Class 0:
Packet latency average = 21.4656
	minimum = 7
	maximum = 113
Network latency average = 21.4558
	minimum = 7
	maximum = 113
Slowest packet = 24770
Flit latency average = 21.4884
	minimum = 7
	maximum = 113
Slowest flit = 24770
Fragmentation average = 0
	minimum = 0
	maximum = 0
Injected packet rate average = 0.100594
	minimum = 0.08975 (at node 8)
	maximum = 0.10725 (at node 0)
Accepted packet rate average = 0.100578
	minimum = 0.08975 (at node 2)
	maximum = 0.10725 (at node 0)
Injected flit rate average = 0.100594
	minimum = 0.08975 (at node 8)
	maximum = 0.10725 (at node 0)
Accepted flit rate average= 0.100578
	minimum = 0.08975 (at node 2)
	maximum = 0.10725 (at node 0)
Injected packet length average = 1
Accepted packet length average = 1
Total in-flight flits = 36 (36 measured)
latency change    = 0.00597657
throughput change = 0.00367666
Draining all recorded packets ...
Draining remaining packets ...
Time taken is 7081 cycles
Class 0:
Packet latency average = 21.6477
	minimum = 7
	maximum = 103
Network latency average = 21.5334
	minimum = 7
	maximum = 103
Slowest packet = 31033
Flit latency average = 21.5334
	minimum = 7
	maximum = 103
Slowest flit = 31033
Fragmentation average = 0
	minimum = 0
	maximum = 0
Injected packet rate average = 0.0959375
	minimum = 0.078 (at node 2)
	maximum = 0.113 (at node 14)
Accepted packet rate average = 0.0935
	minimum = 0.075 (at node 8)
	maximum = 0.109 (at node 11)
Injected flit rate average = 0.0959375
	minimum = 0.078 (at node 2)
	maximum = 0.113 (at node 14)
Accepted flit rate average= 0.0935
	minimum = 0.075 (at node 8)
	maximum = 0.109 (at node 11)
Injected packet length average = 1
Accepted packet length average = 1
Total in-flight flits = 39 (0 measured)
latency change    = 1
throughput change = 1
Class 0:
Packet latency average = 21.7364
	minimum = 7
	maximum = 103
Network latency average = 21.6775
	minimum = 7
	maximum = 103
Slowest packet = 31033
Flit latency average = 21.6775
	minimum = 7
	maximum = 103
Slowest flit = 31033
Fragmentation average = 0
	minimum = 0
	maximum = 0
Injected packet rate average = 0.0977187
	minimum = 0.0905 (at node 10)
	maximum = 0.107 (at node 14)
Accepted packet rate average = 0.0965
	minimum = 0.089 (at node 2)
	maximum = 0.107 (at node 11)
Injected flit rate average = 0.0977187
	minimum = 0.0905 (at node 10)
	maximum = 0.107 (at node 14)
Accepted flit rate average= 0.0965
	minimum = 0.089 (at node 2)
	maximum = 0.107 (at node 11)
Injected packet length average = 1
Accepted packet length average = 1
Total in-flight flits = 39 (0 measured)
latency change    = 0.00407941
throughput change = 0.0310881
Class 0:
Packet latency average = 22.1819
	minimum = 7
	maximum = 99
Network latency average = 22.135
	minimum = 7
	maximum = 99
Slowest packet = 33793
Flit latency average = 22.135
	minimum = 7
	maximum = 99
Slowest flit = 33793
Fragmentation average = 0
	minimum = 0
	maximum = 0
Injected packet rate average = 0.102625
	minimum = 0.082 (at node 6)
	maximum = 0.121 (at node 12)
Accepted packet rate average = 0.10275
	minimum = 0.082 (at node 9)
	maximum = 0.118 (at node 3)
Injected flit rate average = 0.102625
	minimum = 0.082 (at node 6)
	maximum = 0.121 (at node 12)
Accepted flit rate average= 0.10275
	minimum = 0.082 (at node 9)
	maximum = 0.118 (at node 3)
Injected packet length average = 1
Accepted packet length average = 1
Total in-flight flits = 37 (0 measured)
latency change    = 0.0200828
throughput change = 0.0608273
Warmed up ...Time used is 3000 cycles
Class 0:
Packet latency average = 22.1369
	minimum = 7
	maximum = 75
Network latency average = 22.112
	minimum = 7
	maximum = 75
Slowest packet = 36308
Flit latency average = 22.3119
	minimum = 7
	maximum = 75
Slowest flit = 36308
Fragmentation average = 0
	minimum = 0
	maximum = 0
Injected packet rate average = 0.0998125
	minimum = 0.088 (at node 14)
	maximum = 0.119 (at node 7)
Accepted packet rate average = 0.1
	minimum = 0.088 (at node 11)
	maximum = 0.115 (at node 13)
Injected flit rate average = 0.0998125
	minimum = 0.088 (at node 14)
	maximum = 0.119 (at node 7)
Accepted flit rate average= 0.1
	minimum = 0.088 (at node 11)
	maximum = 0.115 (at node 13)
Injected packet length average = 1
Accepted packet length average = 1
Total in-flight flits = 34 (34 measured)
latency change    = 0.00203087
throughput change = 0.0275
Class 0:
Packet latency average = 22.5946
	minimum = 7
	maximum = 124
Network latency average = 22.5674
	minimum = 7
	maximum = 122
Slowest packet = 37761
Flit latency average = 22.6612
	minimum = 7
	maximum = 122
Slowest flit = 37761
Fragmentation average = 0
	minimum = 0
	maximum = 0
Injected packet rate average = 0.100937
	minimum = 0.0915 (at node 0)
	maximum = 0.112 (at node 4)
Accepted packet rate average = 0.100906
	minimum = 0.091 (at node 0)
	maximum = 0.113 (at node 1)
Injected flit rate average = 0.100937
	minimum = 0.0915 (at node 0)
	maximum = 0.112 (at node 4)
Accepted flit rate average= 0.100906
	minimum = 0.091 (at node 0)
	maximum = 0.113 (at node 1)
Injected packet length average = 1
Accepted packet length average = 1
Total in-flight flits = 39 (39 measured)
latency change    = 0.0202568
throughput change = 0.00898111
Class 0:
Packet latency average = 22.0123
	minimum = 7
	maximum = 124
Network latency average = 21.9861
	minimum = 7
	maximum = 122
Slowest packet = 37761
Flit latency average = 22.053
	minimum = 7
	maximum = 122
Slowest flit = 37761
Fragmentation average = 0
	minimum = 0
	maximum = 0
Injected packet rate average = 0.100833
	minimum = 0.0933333 (at node 0)
	maximum = 0.109 (at node 5)
Accepted packet rate average = 0.101042
	minimum = 0.0933333 (at node 0)
	maximum = 0.109667 (at node 5)
Injected flit rate average = 0.100833
	minimum = 0.0933333 (at node 0)
	maximum = 0.109 (at node 5)
Accepted flit rate average= 0.101042
	minimum = 0.0933333 (at node 0)
	maximum = 0.109667 (at node 5)
Injected packet length average = 1
Accepted packet length average = 1
Total in-flight flits = 27 (27 measured)
latency change    = 0.0264559
throughput change = 0.00134021
Draining all recorded packets ...
Draining remaining packets ...
Time taken is 6061 cycles
Class 0:
Packet latency average = 21.4145
	minimum = 7
	maximum = 93
Network latency average = 21.3196
	minimum = 7
	maximum = 93
Slowest packet = 41531
Flit latency average = 21.3196
	minimum = 7
	maximum = 93
Slowest flit = 41531
Fragmentation average = 0
	minimum = 0
	maximum = 0
Injected packet rate average = 0.09725
	minimum = 0.075 (at node 2)
	maximum = 0.128 (at node 10)
Accepted packet rate average = 0.0954375
	minimum = 0.074 (at node 8)
	maximum = 0.127 (at node 10)
Injected flit rate average = 0.09725
	minimum = 0.075 (at node 2)
	maximum = 0.128 (at node 10)
Accepted flit rate average= 0.0954375
	minimum = 0.074 (at node 8)
	maximum = 0.127 (at node 10)
Injected packet length average = 1
Accepted packet length average = 1
Total in-flight flits = 29 (0 measured)
latency change    = 1
throughput change = 1
Class 0:
Packet latency average = 21.8149
	minimum = 7
	maximum = 93
Network latency average = 21.7674
	minimum = 7
	maximum = 93
Slowest packet = 41531
Flit latency average = 21.7674
	minimum = 7
	maximum = 93
Slowest flit = 41531
Fragmentation average = 0
	minimum = 0
	maximum = 0
Injected packet rate average = 0.100469
	minimum = 0.0835 (at node 2)
	maximum = 0.1165 (at node 10)
Accepted packet rate average = 0.0994375
	minimum = 0.0825 (at node 8)
	maximum = 0.116 (at node 10)
Injected flit rate average = 0.100469
	minimum = 0.0835 (at node 2)
	maximum = 0.1165 (at node 10)
Accepted flit rate average= 0.0994375
	minimum = 0.0825 (at node 8)
	maximum = 0.116 (at node 10)
Injected packet length average = 1
Accepted packet length average = 1
Total in-flight flits = 33 (0 measured)
latency change    = 0.0183525
throughput change = 0.0402263
Class 0:
Packet latency average = 21.9136
	minimum = 7
	maximum = 86
Network latency average = 21.8897
	minimum = 7
	maximum = 86
Slowest packet = 43764
Flit latency average = 21.8897
	minimum = 7
	maximum = 86
Slowest flit = 43764
Fragmentation average = 0
	minimum = 0
	maximum = 0
Injected packet rate average = 0.10275
	minimum = 0.088 (at node 8)
	maximum = 0.127 (at node 11)
Accepted packet rate average = 0.102
	minimum = 0.088 (at node 2)
	maximum = 0.129 (at node 14)
Injected flit rate average = 0.10275
	minimum = 0.088 (at node 8)
	maximum = 0.127 (at node 11)
Accepted flit rate average= 0.102
	minimum = 0.088 (at node 2)
	maximum = 0.129 (at node 14)
Injected packet length average = 1
Accepted packet length average = 1
Total in-flight flits = 45 (0 measured)
latency change    = 0.00450436
throughput change = 0.0251225
Warmed up ...Time used is 3000 cycles
Class 0:
Packet latency average = 21.2134
	minimum = 7
	maximum = 77
Network latency average = 21.2074
	minimum = 7
	maximum = 68
Slowest packet = 45073
Flit latency average = 21.6377
	minimum = 7
	maximum = 85
Slowest flit = 45004
Fragmentation average = 0
	minimum = 0
	maximum = 0
Injected packet rate average = 0.0969375
	minimum = 0.081 (at node 7)
	maximum = 0.118 (at node 8)
Accepted packet rate average = 0.097125
	minimum = 0.083 (at node 5)
	maximum = 0.116 (at node 2)
Injected flit rate average = 0.0969375
	minimum = 0.081 (at node 7)
	maximum = 0.118 (at node 8)
Accepted flit rate average= 0.097125
	minimum = 0.083 (at node 5)
	maximum = 0.116 (at node 2)
Injected packet length average = 1
Accepted packet length average = 1
Total in-flight flits = 42 (42 measured)
latency change    = 0.0330082
throughput change = 0.0501931
Class 0:
Packet latency average = 21.3655
	minimum = 7
	maximum = 77
Network latency average = 21.3609
	minimum = 7
	maximum = 74
Slowest packet = 45073
Flit latency average = 21.5636
	minimum = 7
	maximum = 85
Slowest flit = 45004
Fragmentation average = 0
	minimum = 0
	maximum = 0
Injected packet rate average = 0.101781
	minimum = 0.0905 (at node 1)
	maximum = 0.125 (at node 8)
Accepted packet rate average = 0.102031
	minimum = 0.09 (at node 4)
	maximum = 0.1235 (at node 2)
Injected flit rate average = 0.101781
	minimum = 0.0905 (at node 1)
	maximum = 0.125 (at node 8)
Accepted flit rate average= 0.102031
	minimum = 0.09 (at node 4)
	maximum = 0.1235 (at node 2)
Injected packet length average = 1
Accepted packet length average = 1
Total in-flight flits = 37 (37 measured)
latency change    = 0.00712089
throughput change = 0.0480858
Class 0:
Packet latency average = 21.506
	minimum = 7
	maximum = 118
Network latency average = 21.5008
	minimum = 7
	maximum = 118
Slowest packet = 49588
Flit latency average = 21.6356
	minimum = 7
	maximum = 118
Slowest flit = 49588
Fragmentation average = 0
	minimum = 0
	maximum = 0
Injected packet rate average = 0.101042
	minimum = 0.0923333 (at node 5)
	maximum = 0.111667 (at node 14)
Accepted packet rate average = 0.101312
	minimum = 0.0916667 (at node 5)
	maximum = 0.112 (at node 11)
Injected flit rate average = 0.101042
	minimum = 0.0923333 (at node 5)
	maximum = 0.111667 (at node 14)
Accepted flit rate average= 0.101312
	minimum = 0.0916667 (at node 5)
	maximum = 0.112 (at node 11)
Injected packet length average = 1
Accepted packet length average = 1
Total in-flight flits = 32 (32 measured)
latency change    = 0.00653264
throughput change = 0.00709439
Class 0:
Packet latency average = 21.4812
	minimum = 7
	maximum = 118
Network latency average = 21.4751
	minimum = 7
	maximum = 118
Slowest packet = 49588
Flit latency average = 21.577
	minimum = 7
	maximum = 118
Slowest flit = 49588
Fragmentation average = 0
	minimum = 0
	maximum = 0
Injected packet rate average = 0.100641
	minimum = 0.09225 (at node 5)
	maximum = 0.10625 (at node 0)
Accepted packet rate average = 0.100594
	minimum = 0.0925 (at node 5)
	maximum = 0.1065 (at node 7)
Injected flit rate average = 0.100641
	minimum = 0.09225 (at node 5)
	maximum = 0.10625 (at node 0)
Accepted flit rate average= 0.100594
	minimum = 0.0925 (at node 5)
	maximum = 0.1065 (at node 7)
Injected packet length average = 1
Accepted packet length average = 1
Total in-flight flits = 49 (49 measured)
latency change    = 0.00115766
throughput change = 0.00714508
Draining all recorded packets ...
Draining remaining packets ...
Time taken is 7136 cycles
Class 0:
Packet latency average = 21.4276
	minimum = 7
	maximum = 89
Network latency average = 21.4263
	minimum = 7
	maximum = 89
Slowest packet = 51714
Flit latency average = 21.4263
	minimum = 7
	maximum = 89
Slowest flit = 51714
Fragmentation average = 0
	minimum = 0
	maximum = 0
Injected packet rate average = 0.099625
	minimum = 0.083 (at node 2)
	maximum = 0.116 (at node 11)
Accepted packet rate average = 0.0975
	minimum = 0.08 (at node 8)
	maximum = 0.114 (at node 14)
Injected flit rate average = 0.099625
	minimum = 0.083 (at node 2)
	maximum = 0.116 (at node 11)
Accepted flit rate average= 0.0975
	minimum = 0.08 (at node 8)
	maximum = 0.114 (at node 14)
Injected packet length average = 1
Accepted packet length average = 1
Total in-flight flits = 34 (0 measured)
latency change    = 1
throughput change = 1
Class 0:
Packet latency average = 21.5267
	minimum = 7
	maximum = 89
Network latency average = 21.526
	minimum = 7
	maximum = 89
Slowest packet = 51714
Flit latency average = 21.526
	minimum = 7
	maximum = 89
Slowest flit = 51714
Fragmentation average = 0
	minimum = 0
	maximum = 0
Injected packet rate average = 0.1
	minimum = 0.089 (at node 2)
	maximum = 0.1145 (at node 8)
Accepted packet rate average = 0.0990313
	minimum = 0.0885 (at node 8)
	maximum = 0.113 (at node 2)
Injected flit rate average = 0.1
	minimum = 0.089 (at node 2)
	maximum = 0.1145 (at node 8)
Accepted flit rate average= 0.0990313
	minimum = 0.0885 (at node 8)
	maximum = 0.113 (at node 2)
Injected packet length average = 1
Accepted packet length average = 1
Total in-flight flits = 31 (0 measured)
latency change    = 0.00460361
throughput change = 0.0154623
Class 0:
Packet latency average = 22.0438
	minimum = 7
	maximum = 108
Network latency average = 21.9856
	minimum = 7
	maximum = 105
Slowest packet = 55162
Flit latency average = 21.9856
	minimum = 7
	maximum = 105
Slowest flit = 55162
Fragmentation average = 0
	minimum = 0
	maximum = 0
Injected packet rate average = 0.1045
	minimum = 0.083 (at node 9)
	maximum = 0.127 (at node 8)
Accepted packet rate average = 0.104188
	minimum = 0.083 (at node 6)
	maximum = 0.124 (at node 14)
Injected flit rate average = 0.1045
	minimum = 0.083 (at node 9)
	maximum = 0.127 (at node 8)
Accepted flit rate average= 0.104188
	minimum = 0.083 (at node 6)
	maximum = 0.124 (at node 14)
Injected packet length average = 1
Accepted packet length average = 1
Total in-flight flits = 36 (0 measured)
latency change    = 0.0234591
throughput change = 0.0494901
Warmed up ...Time used is 3000 cycles
Class 0:
Packet latency average = 21.3476
	minimum = 7
	maximum = 99
Network latency average = 21.3293
	minimum = 7
	maximum = 99
Slowest packet = 56576
Flit latency average = 21.5154
	minimum = 7
	maximum = 99
Slowest flit = 56576
Fragmentation average = 0
	minimum = 0
	maximum = 0
Injected packet rate average = 0.101187
	minimum = 0.085 (at node 6)
	maximum = 0.119 (at node 9)
Accepted packet rate average = 0.1015
	minimum = 0.083 (at node 9)
	maximum = 0.122 (at node 2)
Injected flit rate average = 0.101187
	minimum = 0.085 (at node 6)
	maximum = 0.119 (at node 9)
Accepted flit rate average= 0.1015
	minimum = 0.083 (at node 9)
	maximum = 0.122 (at node 2)
Injected packet length average = 1
Accepted packet length average = 1
Total in-flight flits = 31 (31 measured)
latency change    = 0.0326118
throughput change = 0.0264778
Class 0:
Packet latency average = 21.2348
	minimum = 7
	maximum = 109
Network latency average = 21.1576
	minimum = 7
	maximum = 109
Slowest packet = 58701
Flit latency average = 21.2545
	minimum = 7
	maximum = 109
Slowest flit = 58701
Fragmentation average = 0
	minimum = 0
	maximum = 0
Injected packet rate average = 0.0993437
	minimum = 0.0875 (at node 6)
	maximum = 0.119 (at node 10)
Accepted packet rate average = 0.0994687
	minimum = 0.0875 (at node 9)
	maximum = 0.119 (at node 10)
Injected flit rate average = 0.0993437
	minimum = 0.0875 (at node 6)
	maximum = 0.119 (at node 10)
Accepted flit rate average= 0.0994687
	minimum = 0.0875 (at node 9)
	maximum = 0.119 (at node 10)
Injected packet length average = 1
Accepted packet length average = 1
Total in-flight flits = 32 (32 measured)
latency change    = 0.0053111
throughput change = 0.020421
Class 0:
Packet latency average = 21.3817
	minimum = 7
	maximum = 109
Network latency average = 21.3054
	minimum = 7
	maximum = 109
Slowest packet = 58701
Flit latency average = 21.3686
	minimum = 7
	maximum = 109
Slowest flit = 58701
Fragmentation average = 0
	minimum = 0
	maximum = 0
Injected packet rate average = 0.099875
	minimum = 0.089 (at node 6)
	maximum = 0.114667 (at node 10)
Accepted packet rate average = 0.099875
	minimum = 0.089 (at node 9)
	maximum = 0.114 (at node 10)
Injected flit rate average = 0.099875
	minimum = 0.089 (at node 6)
	maximum = 0.114667 (at node 10)
Accepted flit rate average= 0.099875
	minimum = 0.089 (at node 9)
	maximum = 0.114 (at node 10)
Injected packet length average = 1
Accepted packet length average = 1
Total in-flight flits = 36 (36 measured)
latency change    = 0.00686785
throughput change = 0.00406758
Draining all recorded packets ...
Draining remaining packets ...
Time taken is 6093 cycles
Class 0:
Packet latency average = 20.5948
	minimum = 7
	maximum = 96
Network latency average = 20.5942
	minimum = 7
	maximum = 96
Slowest packet = 61499
Flit latency average = 20.5942
	minimum = 7
	maximum = 96
Slowest flit = 61499
Fragmentation average = 0
	minimum = 0
	maximum = 0
Injected packet rate average = 0.0985625
	minimum = 0.073 (at node 2)
	maximum = 0.114 (at node 5)
Accepted packet rate average = 0.0965625
	minimum = 0.073 (at node 8)
	maximum = 0.114 (at node 5)
Injected flit rate average = 0.0985625
	minimum = 0.073 (at node 2)
	maximum = 0.114 (at node 5)
Accepted flit rate average= 0.0965625
	minimum = 0.073 (at node 8)
	maximum = 0.114 (at node 5)
Injected packet length average = 1
Accepted packet length average = 1
Total in-flight flits = 32 (0 measured)
latency change    = 1
throughput change = 1
Class 0:
Packet latency average = 20.8925
	minimum = 7
	maximum = 96
Network latency average = 20.8921
	minimum = 7
	maximum = 96
Slowest packet = 61499
Flit latency average = 20.8921
	minimum = 7
	maximum = 96
Slowest flit = 61499
Fragmentation average = 0
	minimum = 0
	maximum = 0
Injected packet rate average = 0.0968438
	minimum = 0.083 (at node 2)
	maximum = 0.1085 (at node 13)
Accepted packet rate average = 0.0959062
	minimum = 0.0825 (at node 8)
	maximum = 0.1065 (at node 7)
Injected flit rate average = 0.0968438
	minimum = 0.083 (at node 2)
	maximum = 0.1085 (at node 13)
Accepted flit rate average= 0.0959062
	minimum = 0.0825 (at node 8)
	maximum = 0.1065 (at node 7)
Injected packet length average = 1
Accepted packet length average = 1
Total in-flight flits = 30 (0 measured)
latency change    = 0.0142468
throughput change = 0.00684262
Class 0:
Packet latency average = 22.7161
	minimum = 7
	maximum = 93
Network latency average = 22.5786
	minimum = 7
	maximum = 93
Slowest packet = 65754
Flit latency average = 22.5786
	minimum = 7
	maximum = 93
Slowest flit = 65754
Fragmentation average = 0
	minimum = 0
	maximum = 0
Injected packet rate average = 0.0990625
	minimum = 0.085 (at node 6)
	maximum = 0.113 (at node 1)
Accepted packet rate average = 0.098625
	minimum = 0.083 (at node 11)
	maximum = 0.112 (at node 4)
Injected flit rate average = 0.0990625
	minimum = 0.085 (at node 6)
	maximum = 0.113 (at node 1)
Accepted flit rate average= 0.098625
	minimum = 0.083 (at node 11)
	maximum = 0.112 (at node 4)
Injected packet length average = 1
Accepted packet length average = 1
Total in-flight flits = 37 (0 measured)
latency change    = 0.0802789
throughput change = 0.0275665
Warmed up ...Time used is 3000 cycles
Class 0:
Packet latency average = 22.2495
	minimum = 7
	maximum = 118
Network latency average = 22.0465
	minimum = 7
	maximum = 113
Slowest packet = 66346
Flit latency average = 22.2512
	minimum = 7
	maximum = 113
Slowest flit = 66346
Fragmentation average = 0
	minimum = 0
	maximum = 0
Injected packet rate average = 0.09975
	minimum = 0.088 (at node 6)
	maximum = 0.118 (at node 15)
Accepted packet rate average = 0.1005
	minimum = 0.087 (at node 9)
	maximum = 0.118 (at node 15)
Injected flit rate average = 0.09975
	minimum = 0.088 (at node 6)
	maximum = 0.118 (at node 15)
Accepted flit rate average= 0.1005
	minimum = 0.087 (at node 9)
	maximum = 0.118 (at node 15)
Injected packet length average = 1
Accepted packet length average = 1
Total in-flight flits = 25 (25 measured)
latency change    = 0.0209701
throughput change = 0.0186567
Class 0:
Packet latency average = 21.7549
	minimum = 7
	maximum = 118
Network latency average = 21.6509
	minimum = 7
	maximum = 113
Slowest packet = 66346
Flit latency average = 21.7587
	minimum = 7
	maximum = 113
Slowest flit = 66346
Fragmentation average = 0
	minimum = 0
	maximum = 0
Injected packet rate average = 0.099625
	minimum = 0.0895 (at node 6)
	maximum = 0.1115 (at node 15)
Accepted packet rate average = 0.0997187
	minimum = 0.0885 (at node 9)
	maximum = 0.1115 (at node 15)
Injected flit rate average = 0.099625
	minimum = 0.0895 (at node 6)
	maximum = 0.1115 (at node 15)
Accepted flit rate average= 0.0997187
	minimum = 0.0885 (at node 9)
	maximum = 0.1115 (at node 15)
Injected packet length average = 1
Accepted packet length average = 1
Total in-flight flits = 34 (34 measured)
latency change    = 0.0227355
throughput change = 0.00783453
Class 0:
Packet latency average = 22.0103
	minimum = 7
	maximum = 118
Network latency average = 21.8545
	minimum = 7
	maximum = 113
Slowest packet = 66346
Flit latency average = 21.925
	minimum = 7
	maximum = 113
Slowest flit = 66346
Fragmentation average = 0
	minimum = 0
	maximum = 0
Injected packet rate average = 0.099375
	minimum = 0.0853333 (at node 6)
	maximum = 0.11 (at node 2)
Accepted packet rate average = 0.0994375
	minimum = 0.085 (at node 9)
	maximum = 0.110667 (at node 8)
Injected flit rate average = 0.099375
	minimum = 0.0853333 (at node 6)
	maximum = 0.11 (at node 2)
Accepted flit rate average= 0.0994375
	minimum = 0.085 (at node 9)
	maximum = 0.110667 (at node 8)
Injected packet length average = 1
Accepted packet length average = 1
Total in-flight flits = 34 (34 measured)
latency change    = 0.0116051
throughput change = 0.00282841
Draining all recorded packets ...
Draining remaining packets ...
Time taken is 6083 cycles
Class 0:
Packet latency average = 21.1043
	minimum = 7
	maximum = 81
Network latency average = 21.0998
	minimum = 7
	maximum = 81
Slowest packet = 71007
Flit latency average = 21.0998
	minimum = 7
	maximum = 81
Slowest flit = 71007
Fragmentation average = 0
	minimum = 0
	maximum = 0
Injected packet rate average = 0.099625
	minimum = 0.074 (at node 8)
	maximum = 0.12 (at node 6)
Accepted packet rate average = 0.0976875
	minimum = 0.074 (at node 2)
	maximum = 0.117 (at node 9)
Injected flit rate average = 0.099625
	minimum = 0.074 (at node 8)
	maximum = 0.12 (at node 6)
Accepted flit rate average= 0.0976875
	minimum = 0.074 (at node 2)
	maximum = 0.117 (at node 9)
Injected packet length average = 1
Accepted packet length average = 1
Total in-flight flits = 32 (0 measured)
latency change    = 1
throughput change = 1
Class 0:
Packet latency average = 23.0449
	minimum = 7
	maximum = 146
Network latency average = 22.8264
	minimum = 7
	maximum = 146
Slowest packet = 72725
Flit latency average = 22.8264
	minimum = 7
	maximum = 146
Slowest flit = 72725
Fragmentation average = 0
	minimum = 0
	maximum = 0
Injected packet rate average = 0.101656
	minimum = 0.092 (at node 8)
	maximum = 0.1115 (at node 6)
Accepted packet rate average = 0.100281
	minimum = 0.091 (at node 2)
	maximum = 0.11 (at node 9)
Injected flit rate average = 0.101656
	minimum = 0.092 (at node 8)
	maximum = 0.1115 (at node 6)
Accepted flit rate average= 0.100281
	minimum = 0.091 (at node 2)
	maximum = 0.11 (at node 9)
Injected packet length average = 1
Accepted packet length average = 1
Total in-flight flits = 45 (0 measured)
latency change    = 0.0842091
throughput change = 0.0258648
Class 0:
Packet latency average = 23.0709
	minimum = 7
	maximum = 186
Network latency average = 22.4724
	minimum = 7
	maximum = 153
Slowest packet = 73978
Flit latency average = 22.4724
	minimum = 7
	maximum = 153
Slowest flit = 74021
Fragmentation average = 0
	minimum = 0
	maximum = 0
Injected packet rate average = 0.09975
	minimum = 0.079 (at node 3)
	maximum = 0.117 (at node 1)
Accepted packet rate average = 0.099625
	minimum = 0.08 (at node 12)
	maximum = 0.117 (at node 4)
Injected flit rate average = 0.09975
	minimum = 0.079 (at node 3)
	maximum = 0.117 (at node 1)
Accepted flit rate average= 0.099625
	minimum = 0.08 (at node 12)
	maximum = 0.117 (at node 4)
Injected packet length average = 1
Accepted packet length average = 1
Total in-flight flits = 46 (0 measured)
latency change    = 0.0011277
throughput change = 0.0065872
Warmed up ...Time used is 3000 cycles
Class 0:
Packet latency average = 22.6193
	minimum = 7
	maximum = 95
Network latency average = 22.5884
	minimum = 7
	maximum = 95
Slowest packet = 76198
Flit latency average = 22.718
	minimum = 7
	maximum = 95
Slowest flit = 76198
Fragmentation average = 0
	minimum = 0
	maximum = 0
Injected packet rate average = 0.101437
	minimum = 0.09 (at node 9)
	maximum = 0.119 (at node 2)
Accepted packet rate average = 0.102188
	minimum = 0.09 (at node 10)
	maximum = 0.118 (at node 8)
Injected flit rate average = 0.101437
	minimum = 0.09 (at node 9)
	maximum = 0.119 (at node 2)
Accepted flit rate average= 0.102188
	minimum = 0.09 (at node 10)
	maximum = 0.118 (at node 8)
Injected packet length average = 1
Accepted packet length average = 1
Total in-flight flits = 34 (34 measured)
latency change    = 0.0199668
throughput change = 0.0250765
Class 0:
Packet latency average = 22.1744
	minimum = 7
	maximum = 114
Network latency average = 22.1206
	minimum = 7
	maximum = 111
Slowest packet = 78364
Flit latency average = 22.1938
	minimum = 7
	maximum = 111
Slowest flit = 78364
Fragmentation average = 0
	minimum = 0
	maximum = 0
Injected packet rate average = 0.0994687
	minimum = 0.09 (at node 13)
	maximum = 0.1125 (at node 1)
Accepted packet rate average = 0.0996563
	minimum = 0.09 (at node 7)
	maximum = 0.112 (at node 4)
Injected flit rate average = 0.0994687
	minimum = 0.09 (at node 13)
	maximum = 0.1125 (at node 1)
Accepted flit rate average= 0.0996563
	minimum = 0.09 (at node 7)
	maximum = 0.112 (at node 4)
Injected packet length average = 1
Accepted packet length average = 1
Total in-flight flits = 40 (40 measured)
latency change    = 0.0200638
throughput change = 0.0253998
Class 0:
Packet latency average = 21.8617
	minimum = 7
	maximum = 114
Network latency average = 21.8224
	minimum = 7
	maximum = 111
Slowest packet = 78364
Flit latency average = 21.873
	minimum = 7
	maximum = 111
Slowest flit = 78364
Fragmentation average = 0
	minimum = 0
	maximum = 0
Injected packet rate average = 0.101583
	minimum = 0.0913333 (at node 13)
	maximum = 0.112333 (at node 1)
Accepted packet rate average = 0.101854
	minimum = 0.092 (at node 7)
	maximum = 0.112333 (at node 4)
Injected flit rate average = 0.101583
	minimum = 0.0913333 (at node 13)
	maximum = 0.112333 (at node 1)
Accepted flit rate average= 0.101854
	minimum = 0.092 (at node 7)
	maximum = 0.112333 (at node 4)
Injected packet length average = 1
Accepted packet length average = 1
Total in-flight flits = 33 (33 measured)
latency change    = 0.0143036
throughput change = 0.0215791
Draining all recorded packets ...
Draining remaining packets ...
Time taken is 6100 cycles
Class 0:
Packet latency average = 21.3275
	minimum = 7
	maximum = 93
Network latency average = 21.3269
	minimum = 7
	maximum = 93
Slowest packet = 81910
Flit latency average = 21.3269
	minimum = 7
	maximum = 93
Slowest flit = 81910
Fragmentation average = 0
	minimum = 0
	maximum = 0
Injected packet rate average = 0.101375
	minimum = 0.079 (at node 11)
	maximum = 0.116 (at node 6)
Accepted packet rate average = 0.1
	minimum = 0.079 (at node 14)
	maximum = 0.114 (at node 15)
Injected flit rate average = 0.101375
	minimum = 0.079 (at node 11)
	maximum = 0.116 (at node 6)
Accepted flit rate average= 0.1
	minimum = 0.079 (at node 14)
	maximum = 0.114 (at node 15)
Injected packet length average = 1
Accepted packet length average = 1
Total in-flight flits = 22 (0 measured)
latency change    = 1
throughput change = 1
Class 0:
Packet latency average = 21.4785
	minimum = 7
	maximum = 93
Network latency average = 21.4778
	minimum = 7
	maximum = 93
Slowest packet = 81910
Flit latency average = 21.4778
	minimum = 7
	maximum = 93
Slowest flit = 81910
Fragmentation average = 0
	minimum = 0
	maximum = 0
Injected packet rate average = 0.0995
	minimum = 0.0865 (at node 11)
	maximum = 0.111 (at node 6)
Accepted packet rate average = 0.09875
	minimum = 0.0865 (at node 14)
	maximum = 0.1105 (at node 9)
Injected flit rate average = 0.0995
	minimum = 0.0865 (at node 11)
	maximum = 0.111 (at node 6)
Accepted flit rate average= 0.09875
	minimum = 0.0865 (at node 14)
	maximum = 0.1105 (at node 9)
Injected packet length average = 1
Accepted packet length average = 1
Total in-flight flits = 24 (0 measured)
latency change    = 0.00702941
throughput change = 0.0126582
Class 0:
Packet latency average = 21.8627
	minimum = 7
	maximum = 78
Network latency average = 21.8574
	minimum = 7
	maximum = 78
Slowest packet = 84459
Flit latency average = 21.8574
	minimum = 7
	maximum = 78
Slowest flit = 84459
Fragmentation average = 0
	minimum = 0
	maximum = 0
Injected packet rate average = 0.0953125
	minimum = 0.079 (at node 3)
	maximum = 0.111 (at node 12)
Accepted packet rate average = 0.0946875
	minimum = 0.079 (at node 12)
	maximum = 0.11 (at node 3)
Injected flit rate average = 0.0953125
	minimum = 0.079 (at node 3)
	maximum = 0.111 (at node 12)
Accepted flit rate average= 0.0946875
	minimum = 0.079 (at node 12)
	maximum = 0.11 (at node 3)
Injected packet length average = 1
Accepted packet length average = 1
Total in-flight flits = 34 (0 measured)
latency change    = 0.0175745
throughput change = 0.0429043
Warmed up ...Time used is 3000 cycles
Class 0:
Packet latency average = 21.6259
	minimum = 7
	maximum = 124
Network latency average = 21.5252
	minimum = 7
	maximum = 110
Slowest packet = 86175
Flit latency average = 21.7065
	minimum = 7
	maximum = 110
Slowest flit = 86175
Fragmentation average = 0
	minimum = 0
	maximum = 0
Injected packet rate average = 0.10125
	minimum = 0.091 (at node 8)
	maximum = 0.108 (at node 0)
Accepted packet rate average = 0.101375
	minimum = 0.091 (at node 12)
	maximum = 0.11 (at node 7)
Injected flit rate average = 0.10125
	minimum = 0.091 (at node 8)
	maximum = 0.108 (at node 0)
Accepted flit rate average= 0.101375
	minimum = 0.091 (at node 12)
	maximum = 0.11 (at node 7)
Injected packet length average = 1
Accepted packet length average = 1
Total in-flight flits = 32 (32 measured)
latency change    = 0.010948
throughput change = 0.0659679
Class 0:
Packet latency average = 21.5962
	minimum = 7
	maximum = 124
Network latency average = 21.5438
	minimum = 7
	maximum = 110
Slowest packet = 86175
Flit latency average = 21.6334
	minimum = 7
	maximum = 110
Slowest flit = 86175
Fragmentation average = 0
	minimum = 0
	maximum = 0
Injected packet rate average = 0.1025
	minimum = 0.096 (at node 4)
	maximum = 0.1105 (at node 6)
Accepted packet rate average = 0.102375
	minimum = 0.095 (at node 1)
	maximum = 0.111 (at node 7)
Injected flit rate average = 0.1025
	minimum = 0.096 (at node 4)
	maximum = 0.1105 (at node 6)
Accepted flit rate average= 0.102375
	minimum = 0.095 (at node 1)
	maximum = 0.111 (at node 7)
Injected packet length average = 1
Accepted packet length average = 1
Total in-flight flits = 38 (38 measured)
latency change    = 0.0013756
throughput change = 0.00976801
Class 0:
Packet latency average = 21.8026
	minimum = 7
	maximum = 124
Network latency average = 21.7618
	minimum = 7
	maximum = 110
Slowest packet = 86175
Flit latency average = 21.8206
	minimum = 7
	maximum = 110
Slowest flit = 86175
Fragmentation average = 0
	minimum = 0
	maximum = 0
Injected packet rate average = 0.101625
	minimum = 0.096 (at node 14)
	maximum = 0.109667 (at node 13)
Accepted packet rate average = 0.101479
	minimum = 0.0953333 (at node 11)
	maximum = 0.110333 (at node 7)
Injected flit rate average = 0.101625
	minimum = 0.096 (at node 14)
	maximum = 0.109667 (at node 13)
Accepted flit rate average= 0.101479
	minimum = 0.0953333 (at node 11)
	maximum = 0.110333 (at node 7)
Injected packet length average = 1
Accepted packet length average = 1
Total in-flight flits = 41 (41 measured)
latency change    = 0.00946341
throughput change = 0.00882776
Class 0:
Packet latency average = 21.6614
	minimum = 7
	maximum = 124
Network latency average = 21.6267
	minimum = 7
	maximum = 110
Slowest packet = 86175
Flit latency average = 21.6714
	minimum = 7
	maximum = 110
Slowest flit = 86175
Fragmentation average = 0
	minimum = 0
	maximum = 0
Injected packet rate average = 0.101562
	minimum = 0.0945 (at node 8)
	maximum = 0.11025 (at node 13)
Accepted packet rate average = 0.101531
	minimum = 0.094 (at node 2)
	maximum = 0.11125 (at node 7)
Injected flit rate average = 0.101562
	minimum = 0.0945 (at node 8)
	maximum = 0.11025 (at node 13)
Accepted flit rate average= 0.101531
	minimum = 0.094 (at node 2)
	maximum = 0.11125 (at node 7)
Injected packet length average = 1
Accepted packet length average = 1
Total in-flight flits = 36 (36 measured)
latency change    = 0.00651891
throughput change = 0.000512978
Draining all recorded packets ...
Draining remaining packets ...
Time taken is 7077 cycles
Class 0:
Packet latency average = 21.6871
	minimum = 7
	maximum = 99
Network latency average = 21.6473
	minimum = 7
	maximum = 99
Slowest packet = 92562
Flit latency average = 21.6473
	minimum = 7
	maximum = 99
Slowest flit = 92562
Fragmentation average = 0
	minimum = 0
	maximum = 0
Injected packet rate average = 0.098125
	minimum = 0.083 (at node 1)
	maximum = 0.12 (at node 3)
Accepted packet rate average = 0.0956875
	minimum = 0.083 (at node 4)
	maximum = 0.112 (at node 12)
Injected flit rate average = 0.098125
	minimum = 0.083 (at node 1)
	maximum = 0.12 (at node 3)
Accepted flit rate average= 0.0956875
	minimum = 0.083 (at node 4)
	maximum = 0.112 (at node 12)
Injected packet length average = 1
Accepted packet length average = 1
Total in-flight flits = 40 (0 measured)
latency change    = 1
throughput change = 1
Class 0:
Packet latency average = 21.874
	minimum = 7
	maximum = 99
Network latency average = 21.8513
	minimum = 7
	maximum = 99
Slowest packet = 92562
Flit latency average = 21.8513
	minimum = 7
	maximum = 99
Slowest flit = 92562
Fragmentation average = 0
	minimum = 0
	maximum = 0
Injected packet rate average = 0.0998437
	minimum = 0.089 (at node 9)
	maximum = 0.1145 (at node 3)
Accepted packet rate average = 0.0991875
	minimum = 0.089 (at node 6)
	maximum = 0.112 (at node 12)
Injected flit rate average = 0.0998437
	minimum = 0.089 (at node 9)
	maximum = 0.1145 (at node 3)
Accepted flit rate average= 0.0991875
	minimum = 0.089 (at node 6)
	maximum = 0.112 (at node 12)
Injected packet length average = 1
Accepted packet length average = 1
Total in-flight flits = 21 (0 measured)
latency change    = 0.00854182
throughput change = 0.0352867
Class 0:
Packet latency average = 20.6297
	minimum = 7
	maximum = 87
Network latency average = 20.6297
	minimum = 7
	maximum = 87
Slowest packet = 95272
Flit latency average = 20.6297
	minimum = 7
	maximum = 87
Slowest flit = 95272
Fragmentation average = 0
	minimum = 0
	maximum = 0
Injected packet rate average = 0.0978125
	minimum = 0.087 (at node 13)
	maximum = 0.123 (at node 9)
Accepted packet rate average = 0.0970625
	minimum = 0.085 (at node 7)
	maximum = 0.12 (at node 6)
Injected flit rate average = 0.0978125
	minimum = 0.087 (at node 13)
	maximum = 0.123 (at node 9)
Accepted flit rate average= 0.0970625
	minimum = 0.085 (at node 7)
	maximum = 0.12 (at node 6)
Injected packet length average = 1
Accepted packet length average = 1
Total in-flight flits = 33 (0 measured)
latency change    = 0.0603123
throughput change = 0.0218931
Warmed up ...Time used is 3000 cycles
Class 0:
Packet latency average = 20.9412
	minimum = 7
	maximum = 81
Network latency average = 20.9399
	minimum = 7
	maximum = 81
Slowest packet = 97245
Flit latency average = 21.1481
	minimum = 7
	maximum = 81
Slowest flit = 97245
Fragmentation average = 0
	minimum = 0
	maximum = 0
Injected packet rate average = 0.10075
	minimum = 0.079 (at node 13)
	maximum = 0.123 (at node 10)
Accepted packet rate average = 0.100875
	minimum = 0.081 (at node 7)
	maximum = 0.122 (at node 10)
Injected flit rate average = 0.10075
	minimum = 0.079 (at node 13)
	maximum = 0.123 (at node 10)
Accepted flit rate average= 0.100875
	minimum = 0.081 (at node 7)
	maximum = 0.122 (at node 10)
Injected packet length average = 1
Accepted packet length average = 1
Total in-flight flits = 31 (31 measured)
latency change    = 0.0148715
throughput change = 0.0377943
Class 0:
Packet latency average = 21.6622
	minimum = 7
	maximum = 101
Network latency average = 21.6554
	minimum = 7
	maximum = 101
Slowest packet = 99157
Flit latency average = 21.7516
	minimum = 7
	maximum = 101
Slowest flit = 99157
Fragmentation average = 0
	minimum = 0
	maximum = 0
Injected packet rate average = 0.101469
	minimum = 0.0905 (at node 9)
	maximum = 0.115 (at node 2)
Accepted packet rate average = 0.101406
	minimum = 0.0905 (at node 11)
	maximum = 0.113 (at node 8)
Injected flit rate average = 0.101469
	minimum = 0.0905 (at node 9)
	maximum = 0.115 (at node 2)
Accepted flit rate average= 0.101406
	minimum = 0.0905 (at node 11)
	maximum = 0.113 (at node 8)
Injected packet length average = 1
Accepted packet length average = 1
Total in-flight flits = 35 (35 measured)
latency change    = 0.0332851
throughput change = 0.00523883
Class 0:
Packet latency average = 21.8943
	minimum = 7
	maximum = 101
Network latency average = 21.8823
	minimum = 7
	maximum = 101
Slowest packet = 99157
Flit latency average = 21.9459
	minimum = 7
	maximum = 101
Slowest flit = 99157
Fragmentation average = 0
	minimum = 0
	maximum = 0
Injected packet rate average = 0.0999167
	minimum = 0.0916667 (at node 0)
	maximum = 0.112333 (at node 2)
Accepted packet rate average = 0.0998125
	minimum = 0.0913333 (at node 0)
	maximum = 0.112 (at node 8)
Injected flit rate average = 0.0999167
	minimum = 0.0916667 (at node 0)
	maximum = 0.112333 (at node 2)
Accepted flit rate average= 0.0998125
	minimum = 0.0913333 (at node 0)
	maximum = 0.112 (at node 8)
Injected packet length average = 1
Accepted packet length average = 1
Total in-flight flits = 39 (39 measured)
latency change    = 0.0106
throughput change = 0.0159674
Draining all recorded packets ...
Draining remaining packets ...
Time taken is 6099 cycles
Class 0:
Packet latency average = 21.2865
	minimum = 7
	maximum = 66
Network latency average = 21.2239
	minimum = 7
	maximum = 66
Slowest packet = 102321
Flit latency average = 21.2239
	minimum = 7
	maximum = 66
Slowest flit = 102321
Fragmentation average = 0
	minimum = 0
	maximum = 0
Injected packet rate average = 0.104188
	minimum = 0.088 (at node 3)
	maximum = 0.121 (at node 4)
Accepted packet rate average = 0.101875
	minimum = 0.087 (at node 12)
	maximum = 0.119 (at node 6)
Injected flit rate average = 0.104188
	minimum = 0.088 (at node 3)
	maximum = 0.121 (at node 4)
Accepted flit rate average= 0.101875
	minimum = 0.087 (at node 12)
	maximum = 0.119 (at node 6)
Injected packet length average = 1
Accepted packet length average = 1
Total in-flight flits = 37 (0 measured)
latency change    = 1
throughput change = 1
Class 0:
Packet latency average = 21.4475
	minimum = 7
	maximum = 104
Network latency average = 21.4026
	minimum = 7
	maximum = 104
Slowest packet = 104656
Flit latency average = 21.4026
	minimum = 7
	maximum = 104
Slowest flit = 104656
Fragmentation average = 0
	minimum = 0
	maximum = 0
Injected packet rate average = 0.101813
	minimum = 0.088 (at node 2)
	maximum = 0.1175 (at node 15)
Accepted packet rate average = 0.100906
	minimum = 0.0865 (at node 8)
	maximum = 0.117 (at node 15)
Injected flit rate average = 0.101813
	minimum = 0.088 (at node 2)
	maximum = 0.1175 (at node 15)
Accepted flit rate average= 0.100906
	minimum = 0.0865 (at node 8)
	maximum = 0.117 (at node 15)
Injected packet length average = 1
Accepted packet length average = 1
Total in-flight flits = 29 (0 measured)
latency change    = 0.00750688
throughput change = 0.0096005
Class 0:
Packet latency average = 21.4744
	minimum = 7
	maximum = 102
Network latency average = 21.4683
	minimum = 7
	maximum = 102
Slowest packet = 106179
Flit latency average = 21.4683
	minimum = 7
	maximum = 102
Slowest flit = 106179
Fragmentation average = 0
	minimum = 0
	maximum = 0
Injected packet rate average = 0.101312
	minimum = 0.085 (at node 13)
	maximum = 0.123 (at node 7)
Accepted packet rate average = 0.101437
	minimum = 0.082 (at node 7)
	maximum = 0.123 (at node 13)
Injected flit rate average = 0.101312
	minimum = 0.085 (at node 13)
	maximum = 0.123 (at node 7)
Accepted flit rate average= 0.101437
	minimum = 0.082 (at node 7)
	maximum = 0.123 (at node 13)
Injected packet length average = 1
Accepted packet length average = 1
Total in-flight flits = 27 (0 measured)
latency change    = 0.00125373
throughput change = 0.00523722
Warmed up ...Time used is 3000 cycles
Class 0:
Packet latency average = 21.5929
	minimum = 7
	maximum = 77
Network latency average = 21.5872
	minimum = 7
	maximum = 77
Slowest packet = 107088
Flit latency average = 21.6302
	minimum = 7
	maximum = 77
Slowest flit = 107088
Fragmentation average = 0
	minimum = 0
	maximum = 0
Injected packet rate average = 0.10125
	minimum = 0.082 (at node 10)
	maximum = 0.122 (at node 0)
Accepted packet rate average = 0.100562
	minimum = 0.081 (at node 4)
	maximum = 0.121 (at node 0)
Injected flit rate average = 0.10125
	minimum = 0.082 (at node 10)
	maximum = 0.122 (at node 0)
Accepted flit rate average= 0.100562
	minimum = 0.081 (at node 4)
	maximum = 0.121 (at node 0)
Injected packet length average = 1
Accepted packet length average = 1
Total in-flight flits = 38 (38 measured)
latency change    = 0.00548746
throughput change = 0.00870106
Class 0:
Packet latency average = 22.0842
	minimum = 7
	maximum = 157
Network latency average = 21.9825
	minimum = 7
	maximum = 157
Slowest packet = 108170
Flit latency average = 22.0006
	minimum = 7
	maximum = 157
Slowest flit = 108170
Fragmentation average = 0
	minimum = 0
	maximum = 0
Injected packet rate average = 0.101156
	minimum = 0.088 (at node 1)
	maximum = 0.116 (at node 0)
Accepted packet rate average = 0.100656
	minimum = 0.087 (at node 4)
	maximum = 0.116 (at node 0)
Injected flit rate average = 0.101156
	minimum = 0.088 (at node 1)
	maximum = 0.116 (at node 0)
Accepted flit rate average= 0.100656
	minimum = 0.087 (at node 4)
	maximum = 0.116 (at node 0)
Injected packet length average = 1
Accepted packet length average = 1
Total in-flight flits = 43 (43 measured)
latency change    = 0.0222467
throughput change = 0.000931388
Class 0:
Packet latency average = 21.9573
	minimum = 7
	maximum = 157
Network latency average = 21.8846
	minimum = 7
	maximum = 157
Slowest packet = 108170
Flit latency average = 21.8972
	minimum = 7
	maximum = 157
Slowest flit = 108170
Fragmentation average = 0
	minimum = 0
	maximum = 0
Injected packet rate average = 0.101312
	minimum = 0.09 (at node 10)
	maximum = 0.117333 (at node 0)
Accepted packet rate average = 0.101146
	minimum = 0.09 (at node 10)
	maximum = 0.117333 (at node 0)
Injected flit rate average = 0.101312
	minimum = 0.09 (at node 10)
	maximum = 0.117333 (at node 0)
Accepted flit rate average= 0.101146
	minimum = 0.09 (at node 10)
	maximum = 0.117333 (at node 0)
Injected packet length average = 1
Accepted packet length average = 1
Total in-flight flits = 35 (35 measured)
latency change    = 0.00577885
throughput change = 0.00484037
Draining all recorded packets ...
Draining remaining packets ...
Time taken is 6072 cycles
Class 0:
Packet latency average = 21.899
	minimum = 7
	maximum = 91
Network latency average = 21.8507
	minimum = 7
	maximum = 91
Slowest packet = 112041
Flit latency average = 21.8507
	minimum = 7
	maximum = 91
Slowest flit = 112041
Fragmentation average = 0
	minimum = 0
	maximum = 0
Injected packet rate average = 0.098125
	minimum = 0.08 (at node 0)
	maximum = 0.114 (at node 7)
Accepted packet rate average = 0.095875
	minimum = 0.08 (at node 0)
	maximum = 0.108 (at node 13)
Injected flit rate average = 0.098125
	minimum = 0.08 (at node 0)
	maximum = 0.114 (at node 7)
Accepted flit rate average= 0.095875
	minimum = 0.08 (at node 0)
	maximum = 0.108 (at node 13)
Injected packet length average = 1
Accepted packet length average = 1
Total in-flight flits = 37 (0 measured)
latency change    = 1
throughput change = 1
Class 0:
Packet latency average = 24.4755
	minimum = 7
	maximum = 218
Network latency average = 22.7742
	minimum = 7
	maximum = 152
Slowest packet = 112953
Flit latency average = 22.7742
	minimum = 7
	maximum = 152
Slowest flit = 113577
Fragmentation average = 0
	minimum = 0
	maximum = 0
Injected packet rate average = 0.100375
	minimum = 0.088 (at node 1)
	maximum = 0.111 (at node 3)
Accepted packet rate average = 0.0989687
	minimum = 0.0875 (at node 4)
	maximum = 0.11 (at node 10)
Injected flit rate average = 0.100375
	minimum = 0.088 (at node 1)
	maximum = 0.111 (at node 3)
Accepted flit rate average= 0.0989687
	minimum = 0.0875 (at node 4)
	maximum = 0.11 (at node 10)
Injected packet length average = 1
Accepted packet length average = 1
Total in-flight flits = 46 (0 measured)
latency change    = 0.105271
throughput change = 0.0312599
Class 0:
Packet latency average = 21.6843
	minimum = 7
	maximum = 76
Network latency average = 21.6648
	minimum = 7
	maximum = 76
Slowest packet = 115935
Flit latency average = 21.6648
	minimum = 7
	maximum = 76
Slowest flit = 115935
Fragmentation average = 0
	minimum = 0
	maximum = 0
Injected packet rate average = 0.101875
	minimum = 0.077 (at node 7)
	maximum = 0.123 (at node 9)
Accepted packet rate average = 0.10275
	minimum = 0.08 (at node 13)
	maximum = 0.124 (at node 6)
Injected flit rate average = 0.101875
	minimum = 0.077 (at node 7)
	maximum = 0.123 (at node 9)
Accepted flit rate average= 0.10275
	minimum = 0.08 (at node 13)
	maximum = 0.124 (at node 6)
Injected packet length average = 1
Accepted packet length average = 1
Total in-flight flits = 31 (0 measured)
latency change    = 0.128721
throughput change = 0.0368005
Warmed up ...Time used is 3000 cycles
Class 0:
Packet latency average = 21.8704
	minimum = 7
	maximum = 108
Network latency average = 21.7987
	minimum = 7
	maximum = 106
Slowest packet = 117170
Flit latency average = 21.8736
	minimum = 7
	maximum = 106
Slowest flit = 117170
Fragmentation average = 0
	minimum = 0
	maximum = 0
Injected packet rate average = 0.0978125
	minimum = 0.082 (at node 6)
	maximum = 0.115 (at node 15)
Accepted packet rate average = 0.097875
	minimum = 0.081 (at node 9)
	maximum = 0.114 (at node 15)
Injected flit rate average = 0.0978125
	minimum = 0.082 (at node 6)
	maximum = 0.115 (at node 15)
Accepted flit rate average= 0.097875
	minimum = 0.081 (at node 9)
	maximum = 0.114 (at node 15)
Injected packet length average = 1
Accepted packet length average = 1
Total in-flight flits = 30 (30 measured)
latency change    = 0.00850703
throughput change = 0.0498084
Class 0:
Packet latency average = 22.1101
	minimum = 7
	maximum = 117
Network latency average = 22.0567
	minimum = 7
	maximum = 117
Slowest packet = 118960
Flit latency average = 22.0913
	minimum = 7
	maximum = 117
Slowest flit = 118960
Fragmentation average = 0
	minimum = 0
	maximum = 0
Injected packet rate average = 0.0985937
	minimum = 0.0855 (at node 10)
	maximum = 0.1105 (at node 15)
Accepted packet rate average = 0.0985937
	minimum = 0.0855 (at node 9)
	maximum = 0.1105 (at node 15)
Injected flit rate average = 0.0985937
	minimum = 0.0855 (at node 10)
	maximum = 0.1105 (at node 15)
Accepted flit rate average= 0.0985937
	minimum = 0.0855 (at node 9)
	maximum = 0.1105 (at node 15)
Injected packet length average = 1
Accepted packet length average = 1
Total in-flight flits = 31 (31 measured)
latency change    = 0.0108438
throughput change = 0.00729002
Class 0:
Packet latency average = 22.0565
	minimum = 7
	maximum = 117
Network latency average = 22.0113
	minimum = 7
	maximum = 117
Slowest packet = 118960
Flit latency average = 22.0346
	minimum = 7
	maximum = 117
Slowest flit = 118960
Fragmentation average = 0
	minimum = 0
	maximum = 0
Injected packet rate average = 0.0986667
	minimum = 0.085 (at node 10)
	maximum = 0.109 (at node 14)
Accepted packet rate average = 0.0986458
	minimum = 0.0846667 (at node 10)
	maximum = 0.108333 (at node 11)
Injected flit rate average = 0.0986667
	minimum = 0.085 (at node 10)
	maximum = 0.109 (at node 14)
Accepted flit rate average= 0.0986458
	minimum = 0.0846667 (at node 10)
	maximum = 0.108333 (at node 11)
Injected packet length average = 1
Accepted packet length average = 1
Total in-flight flits = 32 (32 measured)
latency change    = 0.00242865
throughput change = 0.000527983
Draining all recorded packets ...
Draining remaining packets ...
Time taken is 6079 cycles
Class 0:
Packet latency average = 21.0302
	minimum = 7
	maximum = 76
Network latency average = 21.0154
	minimum = 7
	maximum = 76
Slowest packet = 121397
Flit latency average = 21.0154
	minimum = 7
	maximum = 76
Slowest flit = 121397
Fragmentation average = 0
	minimum = 0
	maximum = 0
Injected packet rate average = 0.0995625
	minimum = 0.08 (at node 13)
	maximum = 0.121 (at node 0)
Accepted packet rate average = 0.097375
	minimum = 0.077 (at node 7)
	maximum = 0.12 (at node 0)
Injected flit rate average = 0.0995625
	minimum = 0.08 (at node 13)
	maximum = 0.121 (at node 0)
Accepted flit rate average= 0.097375
	minimum = 0.077 (at node 7)
	maximum = 0.12 (at node 0)
Injected packet length average = 1
Accepted packet length average = 1
Total in-flight flits = 35 (0 measured)
latency change    = 1
throughput change = 1
Class 0:
Packet latency average = 21.2688
	minimum = 7
	maximum = 83
Network latency average = 21.2484
	minimum = 7
	maximum = 83
Slowest packet = 123207
Flit latency average = 21.2484
	minimum = 7
	maximum = 83
Slowest flit = 123207
Fragmentation average = 0
	minimum = 0
	maximum = 0
Injected packet rate average = 0.100531
	minimum = 0.087 (at node 13)
	maximum = 0.117 (at node 1)
Accepted packet rate average = 0.0995
	minimum = 0.0835 (at node 7)
	maximum = 0.1155 (at node 4)
Injected flit rate average = 0.100531
	minimum = 0.087 (at node 13)
	maximum = 0.117 (at node 1)
Accepted flit rate average= 0.0995
	minimum = 0.0835 (at node 7)
	maximum = 0.1155 (at node 4)
Injected packet length average = 1
Accepted packet length average = 1
Total in-flight flits = 33 (0 measured)
latency change    = 0.0112219
throughput change = 0.0213568
Class 0:
Packet latency average = 21.5808
	minimum = 7
	maximum = 102
Network latency average = 21.5587
	minimum = 7
	maximum = 102
Slowest packet = 124404
Flit latency average = 21.5587
	minimum = 7
	maximum = 102
Slowest flit = 124404
Fragmentation average = 0
	minimum = 0
	maximum = 0
Injected packet rate average = 0.095125
	minimum = 0.08 (at node 5)
	maximum = 0.109 (at node 6)
Accepted packet rate average = 0.095875
	minimum = 0.079 (at node 5)
	maximum = 0.11 (at node 9)
Injected flit rate average = 0.095125
	minimum = 0.08 (at node 5)
	maximum = 0.109 (at node 6)
Accepted flit rate average= 0.095875
	minimum = 0.079 (at node 5)
	maximum = 0.11 (at node 9)
Injected packet length average = 1
Accepted packet length average = 1
Total in-flight flits = 21 (0 measured)
latency change    = 0.0144568
throughput change = 0.0378096
Warmed up ...Time used is 3000 cycles
Class 0:
Packet latency average = 22.9353
	minimum = 7
	maximum = 120
Network latency average = 22.8339
	minimum = 7
	maximum = 120
Slowest packet = 126888
Flit latency average = 22.8394
	minimum = 7
	maximum = 120
Slowest flit = 126888
Fragmentation average = 0
	minimum = 0
	maximum = 0
Injected packet rate average = 0.0976875
	minimum = 0.075 (at node 5)
	maximum = 0.117 (at node 14)
Accepted packet rate average = 0.096875
	minimum = 0.075 (at node 13)
	maximum = 0.116 (at node 11)
Injected flit rate average = 0.0976875
	minimum = 0.075 (at node 5)
	maximum = 0.117 (at node 14)
Accepted flit rate average= 0.096875
	minimum = 0.075 (at node 13)
	maximum = 0.116 (at node 11)
Injected packet length average = 1
Accepted packet length average = 1
Total in-flight flits = 34 (34 measured)
latency change    = 0.059054
throughput change = 0.0103226
Class 0:
Packet latency average = 22.5721
	minimum = 7
	maximum = 120
Network latency average = 22.484
	minimum = 7
	maximum = 120
Slowest packet = 126888
Flit latency average = 22.489
	minimum = 7
	maximum = 120
Slowest flit = 126888
Fragmentation average = 0
	minimum = 0
	maximum = 0
Injected packet rate average = 0.100219
	minimum = 0.0895 (at node 5)
	maximum = 0.114 (at node 14)
Accepted packet rate average = 0.0993125
	minimum = 0.0895 (at node 13)
	maximum = 0.113 (at node 11)
Injected flit rate average = 0.100219
	minimum = 0.0895 (at node 5)
	maximum = 0.114 (at node 14)
Accepted flit rate average= 0.0993125
	minimum = 0.0895 (at node 13)
	maximum = 0.113 (at node 11)
Injected packet length average = 1
Accepted packet length average = 1
Total in-flight flits = 50 (50 measured)
latency change    = 0.0160902
throughput change = 0.0245437
Class 0:
Packet latency average = 22.8073
	minimum = 7
	maximum = 130
Network latency average = 22.6978
	minimum = 7
	maximum = 120
Slowest packet = 126888
Flit latency average = 22.7002
	minimum = 7
	maximum = 120
Slowest flit = 126888
Fragmentation average = 0
	minimum = 0
	maximum = 0
Injected packet rate average = 0.100396
	minimum = 0.0886667 (at node 9)
	maximum = 0.115333 (at node 12)
Accepted packet rate average = 0.100208
	minimum = 0.0886667 (at node 6)
	maximum = 0.114333 (at node 3)
Injected flit rate average = 0.100396
	minimum = 0.0886667 (at node 9)
	maximum = 0.115333 (at node 12)
Accepted flit rate average= 0.100208
	minimum = 0.0886667 (at node 6)
	maximum = 0.114333 (at node 3)
Injected packet length average = 1
Accepted packet length average = 1
Total in-flight flits = 30 (30 measured)
latency change    = 0.0103127
throughput change = 0.00893971
Class 0:
Packet latency average = 22.4488
	minimum = 7
	maximum = 130
Network latency average = 22.3627
	minimum = 7
	maximum = 120
Slowest packet = 126888
Flit latency average = 22.3655
	minimum = 7
	maximum = 120
Slowest flit = 126888
Fragmentation average = 0
	minimum = 0
	maximum = 0
Injected packet rate average = 0.101078
	minimum = 0.0925 (at node 9)
	maximum = 0.11 (at node 12)
Accepted packet rate average = 0.100969
	minimum = 0.09225 (at node 6)
	maximum = 0.109 (at node 3)
Injected flit rate average = 0.101078
	minimum = 0.0925 (at node 9)
	maximum = 0.11 (at node 12)
Accepted flit rate average= 0.100969
	minimum = 0.09225 (at node 6)
	maximum = 0.109 (at node 3)
Injected packet length average = 1
Accepted packet length average = 1
Total in-flight flits = 28 (28 measured)
latency change    = 0.0159662
throughput change = 0.00753121
Draining all recorded packets ...
Draining remaining packets ...
Time taken is 7073 cycles
Class 0:
Packet latency average = 22.6906
	minimum = 7
	maximum = 100
Network latency average = 22.6257
	minimum = 7
	maximum = 100
Slowest packet = 132872
Flit latency average = 22.6257
	minimum = 7
	maximum = 100
Slowest flit = 132872
Fragmentation average = 0
	minimum = 0
	maximum = 0
Injected packet rate average = 0.10225
	minimum = 0.086 (at node 5)
	maximum = 0.124 (at node 6)
Accepted packet rate average = 0.100187
	minimum = 0.086 (at node 5)
	maximum = 0.123 (at node 9)
Injected flit rate average = 0.10225
	minimum = 0.086 (at node 5)
	maximum = 0.124 (at node 6)
Accepted flit rate average= 0.100187
	minimum = 0.086 (at node 5)
	maximum = 0.123 (at node 9)
Injected packet length average = 1
Accepted packet length average = 1
Total in-flight flits = 33 (0 measured)
latency change    = 1
throughput change = 1
Class 0:
Packet latency average = 21.9033
	minimum = 7
	maximum = 100
Network latency average = 21.8653
	minimum = 7
	maximum = 100
Slowest packet = 132872
Flit latency average = 21.8653
	minimum = 7
	maximum = 100
Slowest flit = 132872
Fragmentation average = 0
	minimum = 0
	maximum = 0
Injected packet rate average = 0.101281
	minimum = 0.091 (at node 5)
	maximum = 0.113 (at node 2)
Accepted packet rate average = 0.100219
	minimum = 0.0905 (at node 5)
	maximum = 0.1105 (at node 8)
Injected flit rate average = 0.101281
	minimum = 0.091 (at node 5)
	maximum = 0.113 (at node 2)
Accepted flit rate average= 0.100219
	minimum = 0.0905 (at node 5)
	maximum = 0.1105 (at node 8)
Injected packet length average = 1
Accepted packet length average = 1
Total in-flight flits = 34 (0 measured)
latency change    = 0.0359417
throughput change = 0.000311818
Class 0:
Packet latency average = 21.0349
	minimum = 7
	maximum = 73
Network latency average = 21.0349
	minimum = 7
	maximum = 73
Slowest packet = 135954
Flit latency average = 21.0349
	minimum = 7
	maximum = 73
Slowest flit = 135954
Fragmentation average = 0
	minimum = 0
	maximum = 0
Injected packet rate average = 0.100437
	minimum = 0.088 (at node 3)
	maximum = 0.123 (at node 7)
Accepted packet rate average = 0.100375
	minimum = 0.09 (at node 1)
	maximum = 0.12 (at node 13)
Injected flit rate average = 0.100437
	minimum = 0.088 (at node 3)
	maximum = 0.123 (at node 7)
Accepted flit rate average= 0.100375
	minimum = 0.09 (at node 1)
	maximum = 0.12 (at node 13)
Injected packet length average = 1
Accepted packet length average = 1
Total in-flight flits = 35 (0 measured)
latency change    = 0.041287
throughput change = 0.00155666
Warmed up ...Time used is 3000 cycles
Class 0:
Packet latency average = 22.2529
	minimum = 7
	maximum = 116
Network latency average = 22.2414
	minimum = 7
	maximum = 116
Slowest packet = 137408
Flit latency average = 22.3502
	minimum = 7
	maximum = 116
Slowest flit = 137408
Fragmentation average = 0
	minimum = 0
	maximum = 0
Injected packet rate average = 0.100375
	minimum = 0.076 (at node 15)
	maximum = 0.122 (at node 3)
Accepted packet rate average = 0.100312
	minimum = 0.076 (at node 15)
	maximum = 0.122 (at node 12)
Injected flit rate average = 0.100375
	minimum = 0.076 (at node 15)
	maximum = 0.122 (at node 3)
Accepted flit rate average= 0.100312
	minimum = 0.076 (at node 15)
	maximum = 0.122 (at node 12)
Injected packet length average = 1
Accepted packet length average = 1
Total in-flight flits = 36 (36 measured)
latency change    = 0.0547344
throughput change = 0.000623053
Class 0:
Packet latency average = 21.9941
	minimum = 7
	maximum = 116
Network latency average = 21.9204
	minimum = 7
	maximum = 116
Slowest packet = 137408
Flit latency average = 21.9778
	minimum = 7
	maximum = 116
Slowest flit = 137408
Fragmentation average = 0
	minimum = 0
	maximum = 0
Injected packet rate average = 0.101
	minimum = 0.09 (at node 2)
	maximum = 0.1155 (at node 3)
Accepted packet rate average = 0.101187
	minimum = 0.09 (at node 8)
	maximum = 0.116 (at node 12)
Injected flit rate average = 0.101
	minimum = 0.09 (at node 2)
	maximum = 0.1155 (at node 3)
Accepted flit rate average= 0.101187
	minimum = 0.09 (at node 8)
	maximum = 0.116 (at node 12)
Injected packet length average = 1
Accepted packet length average = 1
Total in-flight flits = 29 (29 measured)
latency change    = 0.0117667
throughput change = 0.00864731
Class 0:
Packet latency average = 21.6383
	minimum = 7
	maximum = 116
Network latency average = 21.5877
	minimum = 7
	maximum = 116
Slowest packet = 137408
Flit latency average = 21.6292
	minimum = 7
	maximum = 116
Slowest flit = 137408
Fragmentation average = 0
	minimum = 0
	maximum = 0
Injected packet rate average = 0.0989792
	minimum = 0.0906667 (at node 15)
	maximum = 0.105667 (at node 14)
Accepted packet rate average = 0.0991042
	minimum = 0.0906667 (at node 6)
	maximum = 0.106333 (at node 12)
Injected flit rate average = 0.0989792
	minimum = 0.0906667 (at node 15)
	maximum = 0.105667 (at node 14)
Accepted flit rate average= 0.0991042
	minimum = 0.0906667 (at node 6)
	maximum = 0.106333 (at node 12)
Injected packet length average = 1
Accepted packet length average = 1
Total in-flight flits = 29 (29 measured)
latency change    = 0.0164421
throughput change = 0.0210217
Class 0:
Packet latency average = 21.8989
	minimum = 7
	maximum = 125
Network latency average = 21.8418
	minimum = 7
	maximum = 125
Slowest packet = 142139
Flit latency average = 21.8715
	minimum = 7
	maximum = 125
Slowest flit = 142139
Fragmentation average = 0
	minimum = 0
	maximum = 0
Injected packet rate average = 0.0993281
	minimum = 0.09525 (at node 9)
	maximum = 0.10425 (at node 3)
Accepted packet rate average = 0.0993281
	minimum = 0.094 (at node 6)
	maximum = 0.1045 (at node 12)
Injected flit rate average = 0.0993281
	minimum = 0.09525 (at node 9)
	maximum = 0.10425 (at node 3)
Accepted flit rate average= 0.0993281
	minimum = 0.094 (at node 6)
	maximum = 0.1045 (at node 12)
Injected packet length average = 1
Accepted packet length average = 1
Total in-flight flits = 35 (35 measured)
latency change    = 0.0119018
throughput change = 0.00225473
Draining all recorded packets ...
Draining remaining packets ...
Time taken is 7098 cycles
Class 0:
Packet latency average = 21.0999
	minimum = 7
	maximum = 87
Network latency average = 21.0961
	minimum = 7
	maximum = 87
Slowest packet = 144015
Flit latency average = 21.0961
	minimum = 7
	maximum = 87
Slowest flit = 144015
Fragmentation average = 0
	minimum = 0
	maximum = 0
Injected packet rate average = 0.100625
	minimum = 0.088 (at node 2)
	maximum = 0.113 (at node 10)
Accepted packet rate average = 0.0988125
	minimum = 0.085 (at node 8)
	maximum = 0.113 (at node 10)
Injected flit rate average = 0.100625
	minimum = 0.088 (at node 2)
	maximum = 0.113 (at node 10)
Accepted flit rate average= 0.0988125
	minimum = 0.085 (at node 8)
	maximum = 0.113 (at node 10)
Injected packet length average = 1
Accepted packet length average = 1
Total in-flight flits = 29 (0 measured)
latency change    = 1
throughput change = 1
Class 0:
Packet latency average = 21.0411
	minimum = 7
	maximum = 87
Network latency average = 21.0392
	minimum = 7
	maximum = 87
Slowest packet = 144015
Flit latency average = 21.0392
	minimum = 7
	maximum = 87
Slowest flit = 144015
Fragmentation average = 0
	minimum = 0
	maximum = 0
Injected packet rate average = 0.0982187
	minimum = 0.088 (at node 2)
	maximum = 0.1075 (at node 10)
Accepted packet rate average = 0.097375
	minimum = 0.0865 (at node 8)
	maximum = 0.107 (at node 10)
Injected flit rate average = 0.0982187
	minimum = 0.088 (at node 2)
	maximum = 0.1075 (at node 10)
Accepted flit rate average= 0.097375
	minimum = 0.0865 (at node 8)
	maximum = 0.107 (at node 10)
Injected packet length average = 1
Accepted packet length average = 1
Total in-flight flits = 27 (0 measured)
latency change    = 0.00279731
throughput change = 0.0147625
Class 0:
Packet latency average = 21.8785
	minimum = 7
	maximum = 101
Network latency average = 21.84
	minimum = 7
	maximum = 101
Slowest packet = 147605
Flit latency average = 21.84
	minimum = 7
	maximum = 101
Slowest flit = 147605
Fragmentation average = 0
	minimum = 0
	maximum = 0
Injected packet rate average = 0.104188
	minimum = 0.089 (at node 9)
	maximum = 0.129 (at node 10)
Accepted packet rate average = 0.103938
	minimum = 0.088 (at node 6)
	maximum = 0.129 (at node 10)
[...]
Accepted packet rate average = 0.0996563
	minimum = 0.09 (at node 6)
	maximum = 0.1095 (at node 13)
Injected flit rate average = 0.0997813
	minimum = 0.09 (at node 9)
	maximum = 0.11 (at node 7)
Accepted flit rate average= 0.0996563
	minimum = 0.09 (at node 6)
	maximum = 0.1095 (at node 13)
Injected packet length average = 1
Accepted packet length average = 1
Total in-flight flits = 40 (40 measured)
latency change    = 0.00312214
throughput change = 0.0210097
Class 0:
Packet latency average = 21.7172
	minimum = 7
	maximum = 130
Network latency average = 21.7043
	minimum = 7
	maximum = 130
Slowest packet = 1022783
Flit latency average = 21.7868
	minimum = 7
	maximum = 130
Slowest flit = 1022783
Fragmentation average = 0
	minimum = 0
	maximum = 0
Injected packet rate average = 0.100417
	minimum = 0.0906667 (at node 1)
	maximum = 0.112333 (at node 7)
Accepted packet rate average = 0.100437
	minimum = 0.0903333 (at node 4)
	maximum = 0.112 (at node 13)
Injected flit rate average = 0.100417
	minimum = 0.0906667 (at node 1)
	maximum = 0.112333 (at node 7)
Accepted flit rate average= 0.100437
	minimum = 0.0903333 (at node 4)
	maximum = 0.112 (at node 13)
Injected packet length average = 1
Accepted packet length average = 1
Total in-flight flits = 35 (35 measured)
latency change    = 0.00435984
throughput change = 0.00777847
Draining all recorded packets ...
Draining remaining packets ...
Time taken is 6104 cycles
Class 0:
Packet latency average = 21.3055
	minimum = 7
	maximum = 82
Network latency average = 21.2545
	minimum = 7
	maximum = 82
Slowest packet = 1025074
Flit latency average = 21.2545
	minimum = 7
	maximum = 82
Slowest flit = 1025074
Fragmentation average = 0
	minimum = 0
	maximum = 0
Injected packet rate average = 0.102813
	minimum = 0.078 (at node 3)
	maximum = 0.124 (at node 8)
Accepted packet rate average = 0.101688
	minimum = 0.074 (at node 12)
	maximum = 0.123 (at node 2)
Injected flit rate average = 0.102813
	minimum = 0.078 (at node 3)
	maximum = 0.124 (at node 8)
Accepted flit rate average= 0.101688
	minimum = 0.074 (at node 12)
	maximum = 0.123 (at node 2)
Injected packet length average = 1
Accepted packet length average = 1
Total in-flight flits = 18 (0 measured)
latency change    = 1
throughput change = 1
Class 0:
Packet latency average = 21.311
	minimum = 7
	maximum = 82
Network latency average = 21.2828
	minimum = 7
	maximum = 82
Slowest packet = 1025074
Flit latency average = 21.2828
	minimum = 7
	maximum = 82
Slowest flit = 1025074
Fragmentation average = 0
	minimum = 0
	maximum = 0
Injected packet rate average = 0.104219
	minimum = 0.09 (at node 3)
	maximum = 0.116 (at node 8)
Accepted packet rate average = 0.102781
	minimum = 0.0875 (at node 12)
	maximum = 0.114 (at node 2)
Injected flit rate average = 0.104219
	minimum = 0.09 (at node 3)
	maximum = 0.116 (at node 8)
Accepted flit rate average= 0.102781
	minimum = 0.0875 (at node 12)
	maximum = 0.114 (at node 2)
Injected packet length average = 1
Accepted packet length average = 1
Total in-flight flits = 46 (0 measured)
latency change    = 0.000261207
throughput change = 0.0106415
Class 0:
Packet latency average = 22.9308
	minimum = 7
	maximum = 123
Network latency average = 22.724
	minimum = 7
	maximum = 121
Slowest packet = 1029165
Flit latency average = 22.724
	minimum = 7
	maximum = 121
Slowest flit = 1029165
Fragmentation average = 0
	minimum = 0
	maximum = 0
Injected packet rate average = 0.103063
	minimum = 0.085 (at node 4)
	maximum = 0.119 (at node 6)
Accepted packet rate average = 0.103938
	minimum = 0.088 (at node 1)
	maximum = 0.121 (at node 9)
Injected flit rate average = 0.103063
	minimum = 0.085 (at node 4)
	maximum = 0.119 (at node 6)
Accepted flit rate average= 0.103938
	minimum = 0.088 (at node 1)
	maximum = 0.121 (at node 9)
Injected packet length average = 1
Accepted packet length average = 1
Total in-flight flits = 32 (0 measured)
latency change    = 0.070639
throughput change = 0.0111245
Warmed up ...Time used is 3000 cycles
Class 0:
Packet latency average = 22.1738
	minimum = 7
	maximum = 118
Network latency average = 22.146
	minimum = 7
	maximum = 112
Slowest packet = 1030158
Flit latency average = 22.3408
	minimum = 7
	maximum = 112
Slowest flit = 1030158
Fragmentation average = 0
	minimum = 0
	maximum = 0
Injected packet rate average = 0.101187
	minimum = 0.086 (at node 0)
	maximum = 0.117 (at node 12)
Accepted packet rate average = 0.100875
	minimum = 0.085 (at node 0)
	maximum = 0.121 (at node 3)
Injected flit rate average = 0.101187
	minimum = 0.086 (at node 0)
	maximum = 0.117 (at node 12)
Accepted flit rate average= 0.100875
	minimum = 0.085 (at node 0)
	maximum = 0.121 (at node 3)
Injected packet length average = 1
Accepted packet length average = 1
Total in-flight flits = 37 (37 measured)
latency change    = 0.0341401
throughput change = 0.0303594
Class 0:
Packet latency average = 22.1274
	minimum = 7
	maximum = 118
Network latency average = 22.0955
	minimum = 7
	maximum = 112
Slowest packet = 1030158
Flit latency average = 22.1944
	minimum = 7
	maximum = 112
Slowest flit = 1030158
Fragmentation average = 0
	minimum = 0
	maximum = 0
Injected packet rate average = 0.0999063
	minimum = 0.094 (at node 9)
	maximum = 0.108 (at node 5)
Accepted packet rate average = 0.0998437
	minimum = 0.094 (at node 6)
	maximum = 0.109 (at node 5)
Injected flit rate average = 0.0999063
	minimum = 0.094 (at node 9)
	maximum = 0.108 (at node 5)
Accepted flit rate average= 0.0998437
	minimum = 0.094 (at node 6)
	maximum = 0.109 (at node 5)
Injected packet length average = 1
Accepted packet length average = 1
Total in-flight flits = 34 (34 measured)
latency change    = 0.00209785
throughput change = 0.0103286
Class 0:
Packet latency average = 22.0919
	minimum = 7
	maximum = 118
Network latency average = 22.0696
	minimum = 7
	maximum = 112
Slowest packet = 1030158
Flit latency average = 22.135
	minimum = 7
	maximum = 112
Slowest flit = 1030158
Fragmentation average = 0
	minimum = 0
	maximum = 0
Injected packet rate average = 0.100937
	minimum = 0.0946667 (at node 9)
	maximum = 0.106 (at node 5)
Accepted packet rate average = 0.100917
	minimum = 0.094 (at node 6)
	maximum = 0.106333 (at node 5)
Injected flit rate average = 0.100937
	minimum = 0.0946667 (at node 9)
	maximum = 0.106 (at node 5)
Accepted flit rate average= 0.100917
	minimum = 0.094 (at node 6)
	maximum = 0.106333 (at node 5)
Injected packet length average = 1
Accepted packet length average = 1
Total in-flight flits = 33 (33 measured)
latency change    = 0.00160951
throughput change = 0.0106317
Draining all recorded packets ...
Draining remaining packets ...
Time taken is 6118 cycles
Class 0:
Packet latency average = 21.5906
	minimum = 7
	maximum = 82
Network latency average = 21.588
	minimum = 7
	maximum = 82
Slowest packet = 1034729
Flit latency average = 21.588
	minimum = 7
	maximum = 82
Slowest flit = 1034729
Fragmentation average = 0
	minimum = 0
	maximum = 0
Injected packet rate average = 0.0983125
	minimum = 0.087 (at node 10)
	maximum = 0.109 (at node 11)
Accepted packet rate average = 0.0961875
	minimum = 0.086 (at node 10)
	maximum = 0.106 (at node 14)
Injected flit rate average = 0.0983125
	minimum = 0.087 (at node 10)
	maximum = 0.109 (at node 11)
Accepted flit rate average= 0.0961875
	minimum = 0.086 (at node 10)
	maximum = 0.106 (at node 14)
Injected packet length average = 1
Accepted packet length average = 1
Total in-flight flits = 34 (0 measured)
latency change    = 1
throughput change = 1
Class 0:
Packet latency average = 22.43
	minimum = 7
	maximum = 158
Network latency average = 22.3204
	minimum = 7
	maximum = 158
Slowest packet = 1036318
Flit latency average = 22.3204
	minimum = 7
	maximum = 158
Slowest flit = 1036318
Fragmentation average = 0
	minimum = 0
	maximum = 0
Injected packet rate average = 0.0993437
	minimum = 0.0885 (at node 5)
	maximum = 0.111 (at node 1)
Accepted packet rate average = 0.0980313
	minimum = 0.0885 (at node 5)
	maximum = 0.11 (at node 4)
Injected flit rate average = 0.0993437
	minimum = 0.0885 (at node 5)
	maximum = 0.111 (at node 1)
Accepted flit rate average= 0.0980313
	minimum = 0.0885 (at node 5)
	maximum = 0.11 (at node 4)
Injected packet length average = 1
Accepted packet length average = 1
Total in-flight flits = 42 (0 measured)
latency change    = 0.0374224
throughput change = 0.0188078
Class 0:
Packet latency average = 21.4997
	minimum = 7
	maximum = 66
Network latency average = 21.4806
	minimum = 7
	maximum = 65
Slowest packet = 1037797
Flit latency average = 21.4806
	minimum = 7
	maximum = 65
Slowest flit = 1037797
Fragmentation average = 0
	minimum = 0
	maximum = 0
Injected packet rate average = 0.104125
	minimum = 0.088 (at node 10)
	maximum = 0.123 (at node 6)
Accepted packet rate average = 0.104438
	minimum = 0.088 (at node 8)
	maximum = 0.125 (at node 9)
Injected flit rate average = 0.104125
	minimum = 0.088 (at node 10)
	maximum = 0.123 (at node 6)
Accepted flit rate average= 0.104438
	minimum = 0.088 (at node 8)
	maximum = 0.125 (at node 9)
Injected packet length average = 1
Accepted packet length average = 1
Total in-flight flits = 37 (0 measured)
latency change    = 0.0432717
throughput change = 0.0613405
Warmed up ...Time used is 3000 cycles
Class 0:
Packet latency average = 21.8172
	minimum = 7
	maximum = 73
Network latency average = 21.8043
	minimum = 7
	maximum = 73
Slowest packet = 1040025
Flit latency average = 22.0487
	minimum = 7
	maximum = 78
Slowest flit = 1039319
Fragmentation average = 0
	minimum = 0
	maximum = 0
Injected packet rate average = 0.10325
	minimum = 0.087 (at node 9)
	maximum = 0.122 (at node 5)
Accepted packet rate average = 0.103875
	minimum = 0.087 (at node 6)
	maximum = 0.122 (at node 5)
Injected flit rate average = 0.10325
	minimum = 0.087 (at node 9)
	maximum = 0.122 (at node 5)
Accepted flit rate average= 0.103875
	minimum = 0.087 (at node 6)
	maximum = 0.122 (at node 5)
Injected packet length average = 1
Accepted packet length average = 1
Total in-flight flits = 27 (27 measured)
latency change    = 0.0145541
throughput change = 0.00541516
Class 0:
Packet latency average = 23.1015
	minimum = 7
	maximum = 169
Network latency average = 22.7157
	minimum = 7
	maximum = 169
Slowest packet = 1041402
Flit latency average = 22.8297
	minimum = 7
	maximum = 169
Slowest flit = 1041402
Fragmentation average = 0
	minimum = 0
	maximum = 0
Injected packet rate average = 0.102094
	minimum = 0.092 (at node 13)
	maximum = 0.1145 (at node 2)
Accepted packet rate average = 0.102188
	minimum = 0.0925 (at node 7)
	maximum = 0.114 (at node 8)
Injected flit rate average = 0.102094
	minimum = 0.092 (at node 13)
	maximum = 0.1145 (at node 2)
Accepted flit rate average= 0.102188
	minimum = 0.0925 (at node 7)
	maximum = 0.114 (at node 8)
Injected packet length average = 1
Accepted packet length average = 1
Total in-flight flits = 34 (34 measured)
latency change    = 0.0555906
throughput change = 0.0165138
Class 0:
Packet latency average = 22.421
	minimum = 7
	maximum = 169
Network latency average = 22.1603
	minimum = 7
	maximum = 169
Slowest packet = 1041402
Flit latency average = 22.2417
	minimum = 7
	maximum = 169
Slowest flit = 1041402
Fragmentation average = 0
	minimum = 0
	maximum = 0
Injected packet rate average = 0.10025
	minimum = 0.0943333 (at node 7)
	maximum = 0.104667 (at node 2)
Accepted packet rate average = 0.100583
	minimum = 0.0953333 (at node 7)
	maximum = 0.104333 (at node 14)
Injected flit rate average = 0.10025
	minimum = 0.0943333 (at node 7)
	maximum = 0.104667 (at node 2)
Accepted flit rate average= 0.100583
	minimum = 0.0953333 (at node 7)
	maximum = 0.104333 (at node 14)
Injected packet length average = 1
Accepted packet length average = 1
Total in-flight flits = 21 (21 measured)
latency change    = 0.0303491
throughput change = 0.0159486
Class 0:
Packet latency average = 22.6579
	minimum = 7
	maximum = 169
Network latency average = 22.4036
	minimum = 7
	maximum = 169
Slowest packet = 1041402
Flit latency average = 22.4638
	minimum = 7
	maximum = 169
Slowest flit = 1041402
Fragmentation average = 0
	minimum = 0
	maximum = 0
Injected packet rate average = 0.0996563
	minimum = 0.096 (at node 10)
	maximum = 0.10425 (at node 1)
Accepted packet rate average = 0.0996875
	minimum = 0.09575 (at node 10)
	maximum = 0.10425 (at node 4)
Injected flit rate average = 0.0996563
	minimum = 0.096 (at node 10)
	maximum = 0.10425 (at node 1)
Accepted flit rate average= 0.0996875
	minimum = 0.09575 (at node 10)
	maximum = 0.10425 (at node 4)
Injected packet length average = 1
Accepted packet length average = 1
Total in-flight flits = 35 (35 measured)
latency change    = 0.0104552
throughput change = 0.00898642
Class 0:
Packet latency average = 22.3298
	minimum = 7
	maximum = 169
Network latency average = 22.1246
	minimum = 7
	maximum = 169
Slowest packet = 1041402
Flit latency average = 22.174
	minimum = 7
	maximum = 169
Slowest flit = 1041402
Fragmentation average = 0
	minimum = 0
	maximum = 0
Injected packet rate average = 0.0997375
	minimum = 0.0966 (at node 9)
	maximum = 0.1036 (at node 1)
Accepted packet rate average = 0.0998125
	minimum = 0.0962 (at node 6)
	maximum = 0.1036 (at node 4)
Injected flit rate average = 0.0997375
	minimum = 0.0966 (at node 9)
	maximum = 0.1036 (at node 1)
Accepted flit rate average= 0.0998125
	minimum = 0.0962 (at node 6)
	maximum = 0.1036 (at node 4)
Injected packet length average = 1
Accepted packet length average = 1
Total in-flight flits = 31 (31 measured)
latency change    = 0.0146944
throughput change = 0.00125235
Draining all recorded packets ...
Draining remaining packets ...
Time taken is 8067 cycles
Class 0:
Packet latency average = 21.6718
	minimum = 7
	maximum = 76
Network latency average = 21.6699
	minimum = 7
	maximum = 76
Slowest packet = 1047426
Flit latency average = 21.6699
	minimum = 7
	maximum = 76
Slowest flit = 1047426
Fragmentation average = 0
	minimum = 0
	maximum = 0
Injected packet rate average = 0.099125
	minimum = 0.077 (at node 11)
	maximum = 0.116 (at node 8)
Accepted packet rate average = 0.0969375
	minimum = 0.076 (at node 14)
	maximum = 0.113 (at node 2)
Injected flit rate average = 0.099125
	minimum = 0.077 (at node 11)
	maximum = 0.116 (at node 8)
Accepted flit rate average= 0.0969375
	minimum = 0.076 (at node 14)
	maximum = 0.113 (at node 2)
Injected packet length average = 1
Accepted packet length average = 1
Total in-flight flits = 35 (0 measured)
latency change    = 1
throughput change = 1
Class 0:
Packet latency average = 21.7436
	minimum = 7
	maximum = 82
Network latency average = 21.7351
	minimum = 7
	maximum = 82
Slowest packet = 1049856
Flit latency average = 21.7351
	minimum = 7
	maximum = 82
Slowest flit = 1049856
Fragmentation average = 0
	minimum = 0
	maximum = 0
Injected packet rate average = 0.100062
	minimum = 0.086 (at node 11)
	maximum = 0.11 (at node 15)
Accepted packet rate average = 0.0989687
	minimum = 0.085 (at node 14)
	maximum = 0.11 (at node 15)
Injected flit rate average = 0.100062
	minimum = 0.086 (at node 11)
	maximum = 0.11 (at node 15)
Accepted flit rate average= 0.0989687
	minimum = 0.085 (at node 14)
	maximum = 0.11 (at node 15)
Injected packet length average = 1
Accepted packet length average = 1
Total in-flight flits = 35 (0 measured)
latency change    = 0.00330126
throughput change = 0.0205242
Class 0:
Packet latency average = 21.6187
	minimum = 7
	maximum = 81
Network latency average = 21.6081
	minimum = 7
	maximum = 81
Slowest packet = 1051791
Flit latency average = 21.6081
	minimum = 7
	maximum = 81
Slowest flit = 1051791
Fragmentation average = 0
	minimum = 0
	maximum = 0
Injected packet rate average = 0.099875
	minimum = 0.086 (at node 10)
	maximum = 0.118 (at node 9)
Accepted packet rate average = 0.1
	minimum = 0.086 (at node 10)
	maximum = 0.117 (at node 6)
Injected flit rate average = 0.099875
	minimum = 0.086 (at node 10)
	maximum = 0.118 (at node 9)
Accepted flit rate average= 0.1
	minimum = 0.086 (at node 10)
	maximum = 0.117 (at node 6)
Injected packet length average = 1
Accepted packet length average = 1
Total in-flight flits = 33 (0 measured)
latency change    = 0.00577535
throughput change = 0.0103125
Warmed up ...Time used is 3000 cycles
Class 0:
Packet latency average = 22.4065
	minimum = 7
	maximum = 81
Network latency average = 22.4047
	minimum = 7
	maximum = 81
Slowest packet = 1052294
Flit latency average = 22.5259
	minimum = 7
	maximum = 81
Slowest flit = 1052294
Fragmentation average = 0
	minimum = 0
	maximum = 0
Injected packet rate average = 0.102
	minimum = 0.081 (at node 1)
	maximum = 0.122 (at node 13)
Accepted packet rate average = 0.101375
	minimum = 0.083 (at node 11)
	maximum = 0.122 (at node 7)
Injected flit rate average = 0.102
	minimum = 0.081 (at node 1)
	maximum = 0.122 (at node 13)
Accepted flit rate average= 0.101375
	minimum = 0.083 (at node 11)
	maximum = 0.122 (at node 7)
Injected packet length average = 1
Accepted packet length average = 1
Total in-flight flits = 43 (43 measured)
latency change    = 0.0351591
throughput change = 0.0135635
Class 0:
Packet latency average = 22.0881
	minimum = 7
	maximum = 112
Network latency average = 22.0602
	minimum = 7
	maximum = 112
Slowest packet = 1054799
Flit latency average = 22.1254
	minimum = 7
	maximum = 112
Slowest flit = 1054799
Fragmentation average = 0
	minimum = 0
	maximum = 0
Injected packet rate average = 0.0995313
	minimum = 0.0895 (at node 14)
	maximum = 0.1135 (at node 13)
Accepted packet rate average = 0.0996875
	minimum = 0.0895 (at node 11)
	maximum = 0.1135 (at node 7)
Injected flit rate average = 0.0995313
	minimum = 0.0895 (at node 14)
	maximum = 0.1135 (at node 13)
Accepted flit rate average= 0.0996875
	minimum = 0.0895 (at node 11)
	maximum = 0.1135 (at node 7)
Injected packet length average = 1
Accepted packet length average = 1
Total in-flight flits = 28 (28 measured)
latency change    = 0.014419
throughput change = 0.0169279
Class 0:
Packet latency average = 21.9487
	minimum = 7
	maximum = 112
Network latency average = 21.929
	minimum = 7
	maximum = 112
Slowest packet = 1054799
Flit latency average = 21.9732
	minimum = 7
	maximum = 112
Slowest flit = 1054799
Fragmentation average = 0
	minimum = 0
	maximum = 0
Injected packet rate average = 0.100146
	minimum = 0.0913333 (at node 1)
	maximum = 0.108667 (at node 3)
Accepted packet rate average = 0.100208
	minimum = 0.0923333 (at node 4)
	maximum = 0.109 (at node 12)
Injected flit rate average = 0.100146
	minimum = 0.0913333 (at node 1)
	maximum = 0.108667 (at node 3)
Accepted flit rate average= 0.100208
	minimum = 0.0923333 (at node 4)
	maximum = 0.109 (at node 12)
Injected packet length average = 1
Accepted packet length average = 1
Total in-flight flits = 30 (30 measured)
latency change    = 0.0063487
throughput change = 0.00519751
Draining all recorded packets ...
Draining remaining packets ...
Time taken is 6072 cycles
====== Overall Traffic Statistics ======
====== Traffic class 0 ======
Packet latency average = 21.972 (100 samples)
	minimum = 7 (100 samples)
	maximum = 125.65 (100 samples)
Network latency average = 21.8886 (100 samples)
	minimum = 7 (100 samples)
	maximum = 121.36 (100 samples)
Flit latency average = 21.9451 (100 samples)
	minimum = 7 (100 samples)
	maximum = 122.18 (100 samples)
Fragmentation average = 0 (100 samples)
	minimum = 0 (100 samples)
	maximum = 0 (100 samples)
Injected packet rate average = 0.100108 (100 samples)
	minimum = 0.0915358 (100 samples)
	maximum = 0.109171 (100 samples)
Accepted packet rate average = 0.1001 (100 samples)
	minimum = 0.0915029 (100 samples)
	maximum = 0.109128 (100 samples)
Injected flit rate average = 0.100108 (100 samples)
	minimum = 0.0915358 (100 samples)
	maximum = 0.109171 (100 samples)
Accepted flit rate average = 0.1001 (100 samples)
	minimum = 0.0915029 (100 samples)
	maximum = 0.109128 (100 samples)
Injected packet size average = 1 (100 samples)
Accepted packet size average = 1 (100 samples)
Hops average = 3.49907 (100 samples)
Total run time 22.6935
