BEGIN Configuration File: /tmp/tmpc3df4d7f.cfg
topology = mesh;
k = 4;
n = 2;
routing_function = gnn_port_score_route_4x4;
num_vcs = 4;
vc_buf_size = 4;
wait_for_tail_credit = 1;
vc_allocator = islip;
sw_allocator = islip;
alloc_iters = 1;
credit_delay = 2;
routing_delay = 1;
vc_alloc_delay = 1;
sw_alloc_delay = 1;
input_speedup = 2;
output_speedup = 1;
internal_speedup = 1.0;
traffic = uniform;
packet_size = 1;
sim_type = latency;
injection_rate = 0.3;
warmup_periods = 3;
sample_period = 1000;
sim_count = 100;
seed = 1;

END Configuration File: /tmp/tmpc3df4d7f.cfg
WARNING: Possible network deadlock.
WARNING: Possible network deadlock.
Class 0:
Packet latency average = 46.2772
	minimum = 7
	maximum = 245
Network latency average = 39.7772
	minimum = 7
	maximum = 242
Slowest packet = 202
Flit latency average = 39.7772
	minimum = 7
	maximum = 242
Slowest flit = 202
Fragmentation average = 0
	minimum = 0
	maximum = 0
Injected packet rate average = 0.021375
	minimum = 0.008 (at node 15)
	maximum = 0.039 (at node 5)
Accepted packet rate average = 0.012625
	minimum = 0.007 (at node 11)
	maximum = 0.018 (at node 9)
Injected flit rate average = 0.021375
	minimum = 0.008 (at node 15)
	maximum = 0.039 (at node 5)
Accepted flit rate average= 0.012625
	minimum = 0.007 (at node 11)
	maximum = 0.018 (at node 9)
Injected packet length average = 1
Accepted packet length average = 1
Total in-flight flits = 156 (0 measured)
latency change    = 1
throughput change = 1
WARNING: Possible network deadlock.
WARNING: Possible network deadlock.
WARNING: Possible network deadlock.
WARNING: Possible network deadlock.
Class 0:
Packet latency average = 46.2772
	minimum = 7
	maximum = 245
Network latency average = 39.7772
	minimum = 7
	maximum = 242
Slowest packet = 202
Flit latency average = 39.7772
	minimum = 7
	maximum = 242
Slowest flit = 202
Fragmentation average = 0
	minimum = 0
	maximum = 0
Injected packet rate average = 0.0106875
	minimum = 0.004 (at node 15)
	maximum = 0.0195 (at node 5)
Accepted packet rate average = 0.0063125
	minimum = 0.0035 (at node 11)
	maximum = 0.009 (at node 9)
Injected flit rate average = 0.0106875
	minimum = 0.004 (at node 15)
	maximum = 0.0195 (at node 5)
Accepted flit rate average= 0.0063125
	minimum = 0.0035 (at node 11)
	maximum = 0.009 (at node 9)
Injected packet length average = 1
Accepted packet length average = 1
Total in-flight flits = 156 (0 measured)
latency change    = 0
throughput change = 1
Average latency for class 0 exceeded 500 cycles. Aborting simulation.
Too many sample periods needed to converge
Simulation unstable, ending ...
Total run time 0.167837
