BEGIN Configuration File: /tmp/tmp3zgal1my.cfg
topology = mesh;
k = 4;
n = 2;
routing_function = min_adapt;
num_vcs = 4;
vc_buf_size = 4;
wait_for_tail_credit = 1;
vc_allocator = islip;
sw_allocator = islip;
alloc_iters = 1;
credit_delay = 2;
routing_delay = 1;
vc_alloc_delay = 1;
sw_alloc_delay = 1;
input_speedup = 2;
output_speedup = 1;
internal_speedup = 1.0;
traffic = transpose;
packet_size = 1;
sim_type = latency;
injection_rate = 0.01;
warmup_periods = 3;
sample_period = 1000;
sim_count = 100;
seed = 0;

END Configuration File: /tmp/tmp3zgal1my.cfg
Class 0:
Packet latency average = 19.1688
	minimum = 7
	maximum = 40
Network latency average = 19.1688
	minimum = 7
	maximum = 40
Slowest packet = 85
Flit latency average = 19.1688
	minimum = 7
	maximum = 40
Slowest flit = 85
Fragmentation average = 0
	minimum = 0
	maximum = 0
Injected packet rate average = 0.00975
	minimum = 0.004 (at node 11)
	maximum = 0.014 (at node 13)
Accepted packet rate average = 0.009625
	minimum = 0.003 (at node 14)
	maximum = 0.014 (at node 7)
Injected flit rate average = 0.00975
	minimum = 0.004 (at node 11)
	maximum = 0.014 (at node 13)
Accepted flit rate average= 0.009625
	minimum = 0.003 (at node 14)
	maximum = 0.014 (at node 7)
Injected packet length average = 1
Accepted packet length average = 1
Total in-flight flits = 2 (0 measured)
latency change    = 1
throughput change = 1
Class 0:
Packet latency average = 19.5869
	minimum = 7
	maximum = 40
Network latency average = 19.5869
	minimum = 7
	maximum = 40
Slowest packet = 85
Flit latency average = 19.5869
	minimum = 7
	maximum = 40
Slowest flit = 85
Fragmentation average = 0
	minimum = 0
	maximum = 0
Injected packet rate average = 0.009625
	minimum = 0.006 (at node 11)
	maximum = 0.0125 (at node 0)
Accepted packet rate average = 0.00953125
	minimum = 0.0055 (at node 14)
	maximum = 0.0125 (at node 0)
Injected flit rate average = 0.009625
	minimum = 0.006 (at node 11)
	maximum = 0.0125 (at node 0)
Accepted flit rate average= 0.00953125
	minimum = 0.0055 (at node 14)
	maximum = 0.0125 (at node 0)
Injected packet length average = 1
Accepted packet length average = 1
Total in-flight flits = 3 (0 measured)
latency change    = 0.0213436
throughput change = 0.00983607
Class 0:
Packet latency average = 20.0926
	minimum = 7
	maximum = 46
Network latency average = 20.0926
	minimum = 7
	maximum = 46
Slowest packet = 448
Flit latency average = 20.0926
	minimum = 7
	maximum = 46
Slowest flit = 448
Fragmentation average = 0
	minimum = 0
	maximum = 0
Injected packet rate average = 0.01
	minimum = 0.006 (at node 0)
	maximum = 0.012 (at node 3)
Accepted packet rate average = 0.010125
	minimum = 0.006 (at node 0)
	maximum = 0.013 (at node 7)
Injected flit rate average = 0.01
	minimum = 0.006 (at node 0)
	maximum = 0.012 (at node 3)
Accepted flit rate average= 0.010125
	minimum = 0.006 (at node 0)
	maximum = 0.013 (at node 7)
Injected packet length average = 1
Accepted packet length average = 1
Total in-flight flits = 1 (0 measured)
latency change    = 0.0251688
throughput change = 0.058642
Warmed up ...Time used is 3000 cycles
Class 0:
Packet latency average = 19.7793
	minimum = 7
	maximum = 38
Network latency average = 19.7793
	minimum = 7
	maximum = 38
Slowest packet = 532
Flit latency average = 19.8288
	minimum = 7
	maximum = 38
Slowest flit = 532
Fragmentation average = 0
	minimum = 0
	maximum = 0
Injected packet rate average = 0.0091875
	minimum = 0.005 (at node 1)
	maximum = 0.015 (at node 4)
Accepted packet rate average = 0.009125
	minimum = 0.005 (at node 4)
	maximum = 0.015 (at node 1)
Injected flit rate average = 0.0091875
	minimum = 0.005 (at node 1)
	maximum = 0.015 (at node 4)
Accepted flit rate average= 0.009125
	minimum = 0.005 (at node 4)
	maximum = 0.015 (at node 1)
Injected packet length average = 1
Accepted packet length average = 1
Total in-flight flits = 2 (2 measured)
latency change    = 0.0158389
throughput change = 0.109589
Class 0:
Packet latency average = 19.5498
	minimum = 7
	maximum = 44
Network latency average = 19.5498
	minimum = 7
	maximum = 44
Slowest packet = 751
Flit latency average = 19.5753
	minimum = 7
	maximum = 44
Slowest flit = 751
Fragmentation average = 0
	minimum = 0
	maximum = 0
Injected packet rate average = 0.00909375
	minimum = 0.007 (at node 12)
	maximum = 0.0125 (at node 10)
Accepted packet rate average = 0.009125
	minimum = 0.007 (at node 3)
	maximum = 0.0125 (at node 10)
Injected flit rate average = 0.00909375
	minimum = 0.007 (at node 12)
	maximum = 0.0125 (at node 10)
Accepted flit rate average= 0.009125
	minimum = 0.007 (at node 3)
	maximum = 0.0125 (at node 10)
Injected packet length average = 1
Accepted packet length average = 1
Total in-flight flits = 0 (0 measured)
latency change    = 0.0117383
throughput change = 0
Class 0:
Packet latency average = 19.5865
	minimum = 7
	maximum = 44
Network latency average = 19.5865
	minimum = 7
	maximum = 44
Slowest packet = 751
Flit latency average = 19.6031
	minimum = 7
	maximum = 44
Slowest flit = 751
Fragmentation average = 0
	minimum = 0
	maximum = 0
Injected packet rate average = 0.009375
	minimum = 0.00766667 (at node 2)
	maximum = 0.013 (at node 3)
Accepted packet rate average = 0.00929167
	minimum = 0.007 (at node 8)
	maximum = 0.013 (at node 12)
Injected flit rate average = 0.009375
	minimum = 0.00766667 (at node 2)
	maximum = 0.013 (at node 3)
Accepted flit rate average= 0.00929167
	minimum = 0.007 (at node 8)
	maximum = 0.013 (at node 12)
Injected packet length average = 1
Accepted packet length average = 1
Total in-flight flits = 5 (5 measured)
latency change    = 0.00187316
throughput change = 0.0179372
Class 0:
Packet latency average = 19.9197
	minimum = 7
	maximum = 46
Network latency average = 19.9197
	minimum = 7
	maximum = 46
Slowest packet = 982
Flit latency average = 19.9313
	minimum = 7
	maximum = 46
Slowest flit = 982
Fragmentation average = 0
	minimum = 0
	maximum = 0
Injected packet rate average = 0.00954687
	minimum = 0.007 (at node 2)
	maximum = 0.01375 (at node 3)
Accepted packet rate average = 0.00954687
	minimum = 0.007 (at node 8)
	maximum = 0.01375 (at node 12)
Injected flit rate average = 0.00954687
	minimum = 0.007 (at node 2)
	maximum = 0.01375 (at node 3)
Accepted flit rate average= 0.00954687
	minimum = 0.007 (at node 8)
	maximum = 0.01375 (at node 12)
Injected packet length average = 1
Accepted packet length average = 1
Total in-flight flits = 1 (1 measured)
latency change    = 0.0167249
throughput change = 0.0267321
Draining all recorded packets ...
Draining remaining packets ...
Time taken is 7070 cycles
Class 0:
Packet latency average = 19.5394
	minimum = 7
	maximum = 44
Network latency average = 19.5394
	minimum = 7
	maximum = 44
Slowest packet = 1103
Flit latency average = 19.5394
	minimum = 7
	maximum = 44
Slowest flit = 1103
Fragmentation average = 0
	minimum = 0
	maximum = 0
Injected packet rate average = 0.010625
	minimum = 0.006 (at node 8)
	maximum = 0.018 (at node 1)
Accepted packet rate average = 0.0103125
	minimum = 0.005 (at node 2)
	maximum = 0.017 (at node 4)
Injected flit rate average = 0.010625
	minimum = 0.006 (at node 8)
	maximum = 0.018 (at node 1)
Accepted flit rate average= 0.0103125
	minimum = 0.005 (at node 2)
	maximum = 0.017 (at node 4)
Injected packet length average = 1
Accepted packet length average = 1
Total in-flight flits = 5 (0 measured)
latency change    = 1
throughput change = 1
Class 0:
Packet latency average = 19.4704
	minimum = 7
	maximum = 46
Network latency average = 19.4704
	minimum = 7
	maximum = 46
Slowest packet = 1375
Flit latency average = 19.4704
	minimum = 7
	maximum = 46
Slowest flit = 1375
Fragmentation average = 0
	minimum = 0
	maximum = 0
Injected packet rate average = 0.01125
	minimum = 0.0075 (at node 8)
	maximum = 0.0165 (at node 1)
Accepted packet rate average = 0.0110937
	minimum = 0.007 (at node 2)
	maximum = 0.0165 (at node 4)
Injected flit rate average = 0.01125
	minimum = 0.0075 (at node 8)
	maximum = 0.0165 (at node 1)
Accepted flit rate average= 0.0110937
	minimum = 0.007 (at node 2)
	maximum = 0.0165 (at node 4)
Injected packet length average = 1
Accepted packet length average = 1
Total in-flight flits = 5 (0 measured)
latency change    = 0.00354237
throughput change = 0.0704225
Class 0:
Packet latency average = 20.9225
	minimum = 7
	maximum = 43
Network latency average = 20.9225
	minimum = 7
	maximum = 43
Slowest packet = 1574
Flit latency average = 20.9225
	minimum = 7
	maximum = 43
Slowest flit = 1574
Fragmentation average = 0
	minimum = 0
	maximum = 0
Injected packet rate average = 0.0088125
	minimum = 0.004 (at node 2)
	maximum = 0.014 (at node 3)
Accepted packet rate average = 0.008875
	minimum = 0.003 (at node 9)
	maximum = 0.015 (at node 12)
Injected flit rate average = 0.0088125
	minimum = 0.004 (at node 2)
	maximum = 0.014 (at node 3)
Accepted flit rate average= 0.008875
	minimum = 0.003 (at node 9)
	maximum = 0.015 (at node 12)
Injected packet length average = 1
Accepted packet length average = 1
Total in-flight flits = 4 (0 measured)
latency change    = 0.0694042
throughput change = 0.25
Warmed up ...Time used is 3000 cycles
Class 0:
Packet latency average = 18.3333
	minimum = 7
	maximum = 38
Network latency average = 18.3333
	minimum = 7
	maximum = 38
Slowest packet = 1597
Flit latency average = 18.5583
	minimum = 7
	maximum = 39
Slowest flit = 1585
Fragmentation average = 0
	minimum = 0
	maximum = 0
Injected packet rate average = 0.01
	minimum = 0.006 (at node 2)
	maximum = 0.015 (at node 11)
Accepted packet rate average = 0.0101875
	minimum = 0.006 (at node 8)
	maximum = 0.015 (at node 4)
Injected flit rate average = 0.01
	minimum = 0.006 (at node 2)
	maximum = 0.015 (at node 11)
Accepted flit rate average= 0.0101875
	minimum = 0.006 (at node 8)
	maximum = 0.015 (at node 4)
Injected packet length average = 1
Accepted packet length average = 1
Total in-flight flits = 1 (1 measured)
latency change    = 0.141229
throughput change = 0.128834
Class 0:
Packet latency average = 19.4373
	minimum = 7
	maximum = 38
Network latency average = 19.4373
	minimum = 7
	maximum = 38
Slowest packet = 1597
Flit latency average = 19.5347
	minimum = 7
	maximum = 39
Slowest flit = 1585
Fragmentation average = 0
	minimum = 0
	maximum = 0
Injected packet rate average = 0.010375
	minimum = 0.007 (at node 3)
	maximum = 0.013 (at node 11)
Accepted packet rate average = 0.0103438
	minimum = 0.007 (at node 12)
	maximum = 0.013 (at node 14)
Injected flit rate average = 0.010375
	minimum = 0.007 (at node 3)
	maximum = 0.013 (at node 11)
Accepted flit rate average= 0.0103438
	minimum = 0.007 (at node 12)
	maximum = 0.013 (at node 14)
Injected packet length average = 1
Accepted packet length average = 1
Total in-flight flits = 5 (5 measured)
latency change    = 0.0567967
throughput change = 0.0151057
Class 0:
Packet latency average = 19.6781
	minimum = 7
	maximum = 44
Network latency average = 19.6781
	minimum = 7
	maximum = 44
Slowest packet = 2041
Flit latency average = 19.741
	minimum = 7
	maximum = 44
Slowest flit = 2041
Fragmentation average = 0
	minimum = 0
	maximum = 0
Injected packet rate average = 0.0103958
	minimum = 0.00766667 (at node 3)
	maximum = 0.0126667 (at node 7)
Accepted packet rate average = 0.010375
	minimum = 0.00766667 (at node 12)
	maximum = 0.0126667 (at node 14)
Injected flit rate average = 0.0103958
	minimum = 0.00766667 (at node 3)
	maximum = 0.0126667 (at node 7)
Accepted flit rate average= 0.010375
	minimum = 0.00766667 (at node 12)
	maximum = 0.0126667 (at node 14)
Injected packet length average = 1
Accepted packet length average = 1
Total in-flight flits = 5 (5 measured)
latency change    = 0.0122384
throughput change = 0.00301205
Class 0:
Packet latency average = 19.6494
	minimum = 7
	maximum = 44
Network latency average = 19.6494
	minimum = 7
	maximum = 44
Slowest packet = 2041
Flit latency average = 19.697
	minimum = 7
	maximum = 44
Slowest flit = 2041
Fragmentation average = 0
	minimum = 0
	maximum = 0
Injected packet rate average = 0.0102656
	minimum = 0.0075 (at node 3)
	maximum = 0.01275 (at node 7)
Accepted packet rate average = 0.0103125
	minimum = 0.0075 (at node 12)
	maximum = 0.0125 (at node 13)
Injected flit rate average = 0.0102656
	minimum = 0.0075 (at node 3)
	maximum = 0.01275 (at node 7)
Accepted flit rate average= 0.0103125
	minimum = 0.0075 (at node 12)
	maximum = 0.0125 (at node 13)
Injected packet length average = 1
Accepted packet length average = 1
Total in-flight flits = 1 (1 measured)
latency change    = 0.00146302
throughput change = 0.00606061
Class 0:
Packet latency average = 19.4994
	minimum = 7
	maximum = 46
Network latency average = 19.4994
	minimum = 7
	maximum = 46
Slowest packet = 2253
Flit latency average = 19.539
	minimum = 7
	maximum = 46
Slowest flit = 2253
Fragmentation average = 0
	minimum = 0
	maximum = 0
Injected packet rate average = 0.010075
	minimum = 0.0072 (at node 3)
	maximum = 0.0122 (at node 7)
Accepted packet rate average = 0.0100875
	minimum = 0.0072 (at node 12)
	maximum = 0.012 (at node 13)
Injected flit rate average = 0.010075
	minimum = 0.0072 (at node 3)
	maximum = 0.0122 (at node 7)
Accepted flit rate average= 0.0100875
	minimum = 0.0072 (at node 12)
	maximum = 0.012 (at node 13)
Injected packet length average = 1
Accepted packet length average = 1
Total in-flight flits = 3 (3 measured)
latency change    = 0.00769322
throughput change = 0.0223048
Draining all recorded packets ...
Draining remaining packets ...
Time taken is 8042 cycles
Class 0:
Packet latency average = 19.2037
	minimum = 7
	maximum = 37
Network latency average = 19.2037
	minimum = 7
	maximum = 37
Slowest packet = 2399
Flit latency average = 19.2037
	minimum = 7
	maximum = 37
Slowest flit = 2399
Fragmentation average = 0
	minimum = 0
	maximum = 0
Injected packet rate average = 0.0104375
	minimum = 0.004 (at node 0)
	maximum = 0.016 (at node 5)
Accepted packet rate average = 0.010125
	minimum = 0.004 (at node 0)
	maximum = 0.016 (at node 2)
Injected flit rate average = 0.0104375
	minimum = 0.004 (at node 0)
	maximum = 0.016 (at node 5)
Accepted flit rate average= 0.010125
	minimum = 0.004 (at node 0)
	maximum = 0.016 (at node 2)
Injected packet length average = 1
Accepted packet length average = 1
Total in-flight flits = 5 (0 measured)
latency change    = 1
throughput change = 1
Class 0:
Packet latency average = 19.3832
	minimum = 7
	maximum = 41
Network latency average = 19.3832
	minimum = 7
	maximum = 41
Slowest packet = 2583
Flit latency average = 19.3832
	minimum = 7
	maximum = 41
Slowest flit = 2583
Fragmentation average = 0
	minimum = 0
	maximum = 0
Injected packet rate average = 0.0102813
	minimum = 0.008 (at node 2)
	maximum = 0.0135 (at node 5)
Accepted packet rate average = 0.0100313
	minimum = 0.0075 (at node 12)
	maximum = 0.0135 (at node 5)
Injected flit rate average = 0.0102813
	minimum = 0.008 (at node 2)
	maximum = 0.0135 (at node 5)
Accepted flit rate average= 0.0100313
	minimum = 0.0075 (at node 12)
	maximum = 0.0135 (at node 5)
Injected packet length average = 1
Accepted packet length average = 1
Total in-flight flits = 8 (0 measured)
latency change    = 0.00925926
throughput change = 0.00934579
Class 0:
Packet latency average = 20.9396
	minimum = 7
	maximum = 45
Network latency average = 20.9396
	minimum = 7
	maximum = 45
Slowest packet = 2717
Flit latency average = 20.9396
	minimum = 7
	maximum = 45
Slowest flit = 2717
Fragmentation average = 0
	minimum = 0
	maximum = 0
Injected packet rate average = 0.009
	minimum = 0.004 (at node 2)
	maximum = 0.015 (at node 11)
Accepted packet rate average = 0.0093125
	minimum = 0.004 (at node 8)
	maximum = 0.015 (at node 3)
Injected flit rate average = 0.009
	minimum = 0.004 (at node 2)
	maximum = 0.015 (at node 11)
Accepted flit rate average= 0.0093125
	minimum = 0.004 (at node 8)
	maximum = 0.015 (at node 3)
Injected packet length average = 1
Accepted packet length average = 1
Total in-flight flits = 3 (0 measured)
latency change    = 0.074329
throughput change = 0.0771812
Warmed up ...Time used is 3000 cycles
Class 0:
Packet latency average = 19.557
	minimum = 7
	maximum = 42
Network latency average = 19.557
	minimum = 7
	maximum = 42
Slowest packet = 2987
Flit latency average = 19.6382
	minimum = 7
	maximum = 42
Slowest flit = 2987
Fragmentation average = 0
	minimum = 0
	maximum = 0
Injected packet rate average = 0.0094375
	minimum = 0.001 (at node 9)
	maximum = 0.015 (at node 11)
Accepted packet rate average = 0.0095
	minimum = 0.001 (at node 6)
	maximum = 0.014 (at node 0)
Injected flit rate average = 0.0094375
	minimum = 0.001 (at node 9)
	maximum = 0.015 (at node 11)
Accepted flit rate average= 0.0095
	minimum = 0.001 (at node 6)
	maximum = 0.014 (at node 0)
Injected packet length average = 1
Accepted packet length average = 1
Total in-flight flits = 2 (2 measured)
latency change    = 0.0706932
throughput change = 0.0197368
Class 0:
Packet latency average = 20.25
	minimum = 7
	maximum = 47
Network latency average = 20.25
	minimum = 7
	maximum = 47
Slowest packet = 3113
Flit latency average = 20.2847
	minimum = 7
	maximum = 47
Slowest flit = 3113
Fragmentation average = 0
	minimum = 0
	maximum = 0
Injected packet rate average = 0.00915625
	minimum = 0.0045 (at node 9)
	maximum = 0.013 (at node 11)
Accepted packet rate average = 0.00921875
	minimum = 0.0045 (at node 6)
	maximum = 0.013 (at node 14)
Injected flit rate average = 0.00915625
	minimum = 0.0045 (at node 9)
	maximum = 0.013 (at node 11)
Accepted flit rate average= 0.00921875
	minimum = 0.0045 (at node 6)
	maximum = 0.013 (at node 14)
Injected packet length average = 1
Accepted packet length average = 1
Total in-flight flits = 1 (1 measured)
latency change    = 0.0342199
throughput change = 0.0305085
Class 0:
Packet latency average = 20.2905
	minimum = 7
	maximum = 47
Network latency average = 20.2905
	minimum = 7
	maximum = 47
Slowest packet = 3113
Flit latency average = 20.3128
	minimum = 7
	maximum = 47
Slowest flit = 3113
Fragmentation average = 0
	minimum = 0
	maximum = 0
Injected packet rate average = 0.0094375
	minimum = 0.00666667 (at node 2)
	maximum = 0.013 (at node 7)
Accepted packet rate average = 0.00945833
	minimum = 0.00666667 (at node 8)
	maximum = 0.013 (at node 13)
Injected flit rate average = 0.0094375
	minimum = 0.00666667 (at node 2)
	maximum = 0.013 (at node 7)
Accepted flit rate average= 0.00945833
	minimum = 0.00666667 (at node 8)
	maximum = 0.013 (at node 13)
Injected packet length average = 1
Accepted packet length average = 1
Total in-flight flits = 2 (2 measured)
latency change    = 0.00199432
throughput change = 0.0253304
Class 0:
Packet latency average = 19.9382
	minimum = 7
	maximum = 47
Network latency average = 19.9382
	minimum = 7
	maximum = 47
Slowest packet = 3113
Flit latency average = 19.9558
	minimum = 7
	maximum = 47
Slowest flit = 3113
Fragmentation average = 0
	minimum = 0
	maximum = 0
Injected packet rate average = 0.009875
	minimum = 0.00675 (at node 2)
	maximum = 0.01225 (at node 10)
Accepted packet rate average = 0.00990625
	minimum = 0.00675 (at node 8)
	maximum = 0.0125 (at node 3)
Injected flit rate average = 0.009875
	minimum = 0.00675 (at node 2)
	maximum = 0.01225 (at node 10)
Accepted flit rate average= 0.00990625
	minimum = 0.00675 (at node 8)
	maximum = 0.0125 (at node 3)
Injected packet length average = 1
Accepted packet length average = 1
Total in-flight flits = 1 (1 measured)
latency change    = 0.0176682
throughput change = 0.0452156
Draining all recorded packets ...
Draining remaining packets ...
Time taken is 7045 cycles
Class 0:
Packet latency average = 17.942
	minimum = 7
	maximum = 37
Network latency average = 17.942
	minimum = 7
	maximum = 37
Slowest packet = 3510
Flit latency average = 17.942
	minimum = 7
	maximum = 37
Slowest flit = 3510
Fragmentation average = 0
	minimum = 0
	maximum = 0
Injected packet rate average = 0.0086875
	minimum = 0.004 (at node 12)
	maximum = 0.012 (at node 6)
Accepted packet rate average = 0.008625
	minimum = 0.004 (at node 3)
	maximum = 0.012 (at node 9)
Injected flit rate average = 0.0086875
	minimum = 0.004 (at node 12)
	maximum = 0.012 (at node 6)
Accepted flit rate average= 0.008625
	minimum = 0.004 (at node 3)
	maximum = 0.012 (at node 9)
Injected packet length average = 1
Accepted packet length average = 1
Total in-flight flits = 1 (0 measured)
latency change    = 1
throughput change = 1
Class 0:
Packet latency average = 18.4245
	minimum = 7
	maximum = 46
Network latency average = 18.4245
	minimum = 7
	maximum = 46
Slowest packet = 3656
Flit latency average = 18.4245
	minimum = 7
	maximum = 46
Slowest flit = 3656
Fragmentation average = 0
	minimum = 0
	maximum = 0
Injected packet rate average = 0.00878125
	minimum = 0.0045 (at node 2)
	maximum = 0.0145 (at node 11)
Accepted packet rate average = 0.0086875
	minimum = 0.004 (at node 8)
	maximum = 0.0145 (at node 14)
Injected flit rate average = 0.00878125
	minimum = 0.0045 (at node 2)
	maximum = 0.0145 (at node 11)
Accepted flit rate average= 0.0086875
	minimum = 0.004 (at node 8)
	maximum = 0.0145 (at node 14)
Injected packet length average = 1
Accepted packet length average = 1
Total in-flight flits = 3 (0 measured)
latency change    = 0.0261843
throughput change = 0.00719424
Class 0:
Packet latency average = 19.5096
	minimum = 7
	maximum = 42
Network latency average = 19.5096
	minimum = 7
	maximum = 42
Slowest packet = 3853
Flit latency average = 19.5096
	minimum = 7
	maximum = 42
Slowest flit = 3853
Fragmentation average = 0
	minimum = 0
	maximum = 0
Injected packet rate average = 0.0096875
	minimum = 0.002 (at node 10)
	maximum = 0.013 (at node 4)
Accepted packet rate average = 0.0098125
	minimum = 0.002 (at node 10)
	maximum = 0.013 (at node 1)
Injected flit rate average = 0.0096875
	minimum = 0.002 (at node 10)
	maximum = 0.013 (at node 4)
Accepted flit rate average= 0.0098125
	minimum = 0.002 (at node 10)
	maximum = 0.013 (at node 1)
Injected packet length average = 1
Accepted packet length average = 1
Total in-flight flits = 1 (0 measured)
latency change    = 0.0556186
throughput change = 0.11465
Warmed up ...Time used is 3000 cycles
Class 0:
Packet latency average = 20.0291
	minimum = 7
	maximum = 46
Network latency average = 20.0291
	minimum = 7
	maximum = 46
Slowest packet = 4003
Flit latency average = 20.0116
	minimum = 7
	maximum = 46
Slowest flit = 4003
Fragmentation average = 0
	minimum = 0
	maximum = 0
Injected packet rate average = 0.011
	minimum = 0.006 (at node 2)
	maximum = 0.019 (at node 3)
Accepted packet rate average = 0.0108125
	minimum = 0.006 (at node 3)
	maximum = 0.019 (at node 12)
Injected flit rate average = 0.011
	minimum = 0.006 (at node 2)
	maximum = 0.019 (at node 3)
Accepted flit rate average= 0.0108125
	minimum = 0.006 (at node 3)
	maximum = 0.019 (at node 12)
Injected packet length average = 1
Accepted packet length average = 1
Total in-flight flits = 4 (4 measured)
latency change    = 0.0259381
throughput change = 0.0924855
Class 0:
Packet latency average = 19.9031
	minimum = 7
	maximum = 47
Network latency average = 19.9031
	minimum = 7
	maximum = 47
Slowest packet = 4201
Flit latency average = 19.8941
	minimum = 7
	maximum = 47
Slowest flit = 4201
Fragmentation average = 0
	minimum = 0
	maximum = 0
Injected packet rate average = 0.0101563
	minimum = 0.0075 (at node 7)
	maximum = 0.015 (at node 3)
Accepted packet rate average = 0.0100313
	minimum = 0.0075 (at node 13)
	maximum = 0.015 (at node 12)
Injected flit rate average = 0.0101563
	minimum = 0.0075 (at node 7)
	maximum = 0.015 (at node 3)
Accepted flit rate average= 0.0100313
	minimum = 0.0075 (at node 13)
	maximum = 0.015 (at node 12)
Injected packet length average = 1
Accepted packet length average = 1
Total in-flight flits = 5 (5 measured)
latency change    = 0.00632789
throughput change = 0.0778816
Class 0:
Packet latency average = 19.9856
	minimum = 7
	maximum = 47
Network latency average = 19.9856
	minimum = 7
	maximum = 47
Slowest packet = 4201
Flit latency average = 19.9795
	minimum = 7
	maximum = 47
Slowest flit = 4201
Fragmentation average = 0
	minimum = 0
	maximum = 0
Injected packet rate average = 0.0102292
	minimum = 0.00766667 (at node 7)
	maximum = 0.0143333 (at node 8)
Accepted packet rate average = 0.0101667
	minimum = 0.00766667 (at node 13)
	maximum = 0.0143333 (at node 2)
Injected flit rate average = 0.0102292
	minimum = 0.00766667 (at node 7)
	maximum = 0.0143333 (at node 8)
Accepted flit rate average= 0.0101667
	minimum = 0.00766667 (at node 13)
	maximum = 0.0143333 (at node 2)
Injected packet length average = 1
Accepted packet length average = 1
Total in-flight flits = 4 (4 measured)
latency change    = 0.00412803
throughput change = 0.0133197
Class 0:
Packet latency average = 19.6067
	minimum = 7
	maximum = 47
Network latency average = 19.6067
	minimum = 7
	maximum = 47
Slowest packet = 4201
Flit latency average = 19.6027
	minimum = 7
	maximum = 47
Slowest flit = 4201
Fragmentation average = 0
	minimum = 0
	maximum = 0
Injected packet rate average = 0.0102813
	minimum = 0.0075 (at node 7)
	maximum = 0.01525 (at node 8)
Accepted packet rate average = 0.0102656
	minimum = 0.0075 (at node 13)
	maximum = 0.01525 (at node 2)
Injected flit rate average = 0.0102813
	minimum = 0.0075 (at node 7)
	maximum = 0.01525 (at node 8)
Accepted flit rate average= 0.0102656
	minimum = 0.0075 (at node 13)
	maximum = 0.01525 (at node 2)
Injected packet length average = 1
Accepted packet length average = 1
Total in-flight flits = 2 (2 measured)
latency change    = 0.019326
throughput change = 0.00963978
Class 0:
Packet latency average = 19.8115
	minimum = 7
	maximum = 47
Network latency average = 19.8115
	minimum = 7
	maximum = 47
Slowest packet = 4201
Flit latency average = 19.8081
	minimum = 7
	maximum = 47
Slowest flit = 4201
Fragmentation average = 0
	minimum = 0
	maximum = 0
Injected packet rate average = 0.01025
	minimum = 0.0076 (at node 7)
	maximum = 0.0136 (at node 8)
Accepted packet rate average = 0.010225
	minimum = 0.0076 (at node 13)
	maximum = 0.0136 (at node 2)
Injected flit rate average = 0.01025
	minimum = 0.0076 (at node 7)
	maximum = 0.0136 (at node 8)
Accepted flit rate average= 0.010225
	minimum = 0.0076 (at node 13)
	maximum = 0.0136 (at node 2)
Injected packet length average = 1
Accepted packet length average = 1
Total in-flight flits = 3 (3 measured)
latency change    = 0.0103373
throughput change = 0.00397311
Draining all recorded packets ...
Draining remaining packets ...
Time taken is 8045 cycles
Class 0:
Packet latency average = 17.5123
	minimum = 7
	maximum = 44
Network latency average = 17.5123
	minimum = 7
	maximum = 44
Slowest packet = 4844
Flit latency average = 17.5123
	minimum = 7
	maximum = 44
Slowest flit = 4844
Fragmentation average = 0
	minimum = 0
	maximum = 0
Injected packet rate average = 0.0101875
	minimum = 0.004 (at node 9)
	maximum = 0.018 (at node 0)
Accepted packet rate average = 0.010125
	minimum = 0.004 (at node 6)
	maximum = 0.018 (at node 0)
Injected flit rate average = 0.0101875
	minimum = 0.004 (at node 9)
	maximum = 0.018 (at node 0)
Accepted flit rate average= 0.010125
	minimum = 0.004 (at node 6)
	maximum = 0.018 (at node 0)
Injected packet length average = 1
Accepted packet length average = 1
Total in-flight flits = 1 (0 measured)
latency change    = 1
throughput change = 1
Class 0:
Packet latency average = 18.5437
	minimum = 7
	maximum = 46
Network latency average = 18.5437
	minimum = 7
	maximum = 46
Slowest packet = 5081
Flit latency average = 18.5437
	minimum = 7
	maximum = 46
Slowest flit = 5081
Fragmentation average = 0
	minimum = 0
	maximum = 0
Injected packet rate average = 0.0101563
	minimum = 0.007 (at node 6)
	maximum = 0.014 (at node 10)
Accepted packet rate average = 0.01
	minimum = 0.0065 (at node 9)
	maximum = 0.014 (at node 10)
Injected flit rate average = 0.0101563
	minimum = 0.007 (at node 6)
	maximum = 0.014 (at node 10)
Accepted flit rate average= 0.01
	minimum = 0.0065 (at node 9)
	maximum = 0.014 (at node 10)
Injected packet length average = 1
Accepted packet length average = 1
Total in-flight flits = 5 (0 measured)
latency change    = 0.0556201
throughput change = 0.0125
Class 0:
Packet latency average = 20.4013
	minimum = 7
	maximum = 44
Network latency average = 20.4013
	minimum = 7
	maximum = 44
Slowest packet = 5185
Flit latency average = 20.4013
	minimum = 7
	maximum = 44
Slowest flit = 5185
Fragmentation average = 0
	minimum = 0
	maximum = 0
Injected packet rate average = 0.009375
	minimum = 0.005 (at node 4)
	maximum = 0.014 (at node 3)
Accepted packet rate average = 0.0095
	minimum = 0.005 (at node 1)
	maximum = 0.015 (at node 7)
Injected flit rate average = 0.009375
	minimum = 0.005 (at node 4)
	maximum = 0.014 (at node 3)
Accepted flit rate average= 0.0095
	minimum = 0.005 (at node 1)
	maximum = 0.015 (at node 7)
Injected packet length average = 1
Accepted packet length average = 1
Total in-flight flits = 3 (0 measured)
latency change    = 0.0910513
throughput change = 0.0526316
Warmed up ...Time used is 3000 cycles
Class 0:
Packet latency average = 21.1
	minimum = 7
	maximum = 40
Network latency average = 21.1
	minimum = 7
	maximum = 40
Slowest packet = 5352
Flit latency average = 21.1472
	minimum = 7
	maximum = 40
Slowest flit = 5352
Fragmentation average = 0
	minimum = 0
	maximum = 0
Injected packet rate average = 0.0101875
	minimum = 0.005 (at node 5)
	maximum = 0.019 (at node 12)
Accepted packet rate average = 0.0101875
	minimum = 0.005 (at node 4)
	maximum = 0.019 (at node 3)
Injected flit rate average = 0.0101875
	minimum = 0.005 (at node 5)
	maximum = 0.019 (at node 12)
Accepted flit rate average= 0.0101875
	minimum = 0.005 (at node 4)
	maximum = 0.019 (at node 3)
Injected packet length average = 1
Accepted packet length average = 1
Total in-flight flits = 3 (3 measured)
latency change    = 0.033113
throughput change = 0.0674847
Class 0:
Packet latency average = 21.122
	minimum = 7
	maximum = 40
Network latency average = 21.122
	minimum = 7
	maximum = 40
Slowest packet = 5352
Flit latency average = 21.1477
	minimum = 7
	maximum = 40
Slowest flit = 5352
Fragmentation average = 0
	minimum = 0
	maximum = 0
Injected packet rate average = 0.00940625
	minimum = 0.005 (at node 1)
	maximum = 0.0165 (at node 12)
Accepted packet rate average = 0.0093125
	minimum = 0.005 (at node 4)
	maximum = 0.0155 (at node 3)
Injected flit rate average = 0.00940625
	minimum = 0.005 (at node 1)
	maximum = 0.0165 (at node 12)
Accepted flit rate average= 0.0093125
	minimum = 0.005 (at node 4)
	maximum = 0.0155 (at node 3)
Injected packet length average = 1
Accepted packet length average = 1
Total in-flight flits = 6 (6 measured)
latency change    = 0.00104317
throughput change = 0.0939597
Class 0:
Packet latency average = 20.6183
	minimum = 7
	maximum = 45
Network latency average = 20.6183
	minimum = 7
	maximum = 45
Slowest packet = 5562
Flit latency average = 20.6386
	minimum = 7
	maximum = 45
Slowest flit = 5562
Fragmentation average = 0
	minimum = 0
	maximum = 0
Injected packet rate average = 0.0094375
	minimum = 0.00533333 (at node 0)
	maximum = 0.013 (at node 12)
Accepted packet rate average = 0.00939583
	minimum = 0.00566667 (at node 0)
	maximum = 0.013 (at node 3)
Injected flit rate average = 0.0094375
	minimum = 0.00533333 (at node 0)
	maximum = 0.013 (at node 12)
Accepted flit rate average= 0.00939583
	minimum = 0.00566667 (at node 0)
	maximum = 0.013 (at node 3)
Injected packet length average = 1
Accepted packet length average = 1
Total in-flight flits = 5 (5 measured)
latency change    = 0.0244312
throughput change = 0.00886918
Class 0:
Packet latency average = 20.3715
	minimum = 7
	maximum = 45
Network latency average = 20.3715
	minimum = 7
	maximum = 45
Slowest packet = 5562
Flit latency average = 20.3878
	minimum = 7
	maximum = 45
Slowest flit = 5562
Fragmentation average = 0
	minimum = 0
	maximum = 0
Injected packet rate average = 0.00954687
	minimum = 0.0055 (at node 11)
	maximum = 0.012 (at node 13)
Accepted packet rate average = 0.00946875
	minimum = 0.0055 (at node 14)
	maximum = 0.012 (at node 2)
Injected flit rate average = 0.00954687
	minimum = 0.0055 (at node 11)
	maximum = 0.012 (at node 13)
Accepted flit rate average= 0.00946875
	minimum = 0.0055 (at node 14)
	maximum = 0.012 (at node 2)
Injected packet length average = 1
Accepted packet length average = 1
Total in-flight flits = 8 (8 measured)
latency change    = 0.0121163
throughput change = 0.00770077
Class 0:
Packet latency average = 20.4018
	minimum = 7
	maximum = 46
Network latency average = 20.4018
	minimum = 7
	maximum = 46
Slowest packet = 5883
Flit latency average = 20.4146
	minimum = 7
	maximum = 46
Slowest flit = 5883
Fragmentation average = 0
	minimum = 0
	maximum = 0
Injected packet rate average = 0.0095875
	minimum = 0.0062 (at node 11)
	maximum = 0.0126 (at node 12)
Accepted packet rate average = 0.0095875
	minimum = 0.006 (at node 14)
	maximum = 0.0126 (at node 3)
Injected flit rate average = 0.0095875
	minimum = 0.0062 (at node 11)
	maximum = 0.0126 (at node 12)
Accepted flit rate average= 0.0095875
	minimum = 0.006 (at node 14)
	maximum = 0.0126 (at node 3)
Injected packet length average = 1
Accepted packet length average = 1
Total in-flight flits = 3 (3 measured)
latency change    = 0.00148793
throughput change = 0.0123859
Draining all recorded packets ...
Draining remaining packets ...
Time taken is 8025 cycles
Class 0:
Packet latency average = 19.2011
	minimum = 7
	maximum = 47
Network latency average = 19.2011
	minimum = 7
	maximum = 47
Slowest packet = 6116
Flit latency average = 19.2011
	minimum = 7
	maximum = 47
Slowest flit = 6116
Fragmentation average = 0
	minimum = 0
	maximum = 0
Injected packet rate average = 0.011
	minimum = 0.005 (at node 1)
	maximum = 0.016 (at node 11)
Accepted packet rate average = 0.010875
	minimum = 0.005 (at node 4)
	maximum = 0.016 (at node 14)
Injected flit rate average = 0.011
	minimum = 0.005 (at node 1)
	maximum = 0.016 (at node 11)
Accepted flit rate average= 0.010875
	minimum = 0.005 (at node 4)
	maximum = 0.016 (at node 14)
Injected packet length average = 1
Accepted packet length average = 1
Total in-flight flits = 2 (0 measured)
latency change    = 1
throughput change = 1
Class 0:
Packet latency average = 19.4568
	minimum = 7
	maximum = 47
Network latency average = 19.4568
	minimum = 7
	maximum = 47
Slowest packet = 6116
Flit latency average = 19.4568
	minimum = 7
	maximum = 47
Slowest flit = 6116
Fragmentation average = 0
	minimum = 0
	maximum = 0
Injected packet rate average = 0.01025
	minimum = 0.007 (at node 13)
	maximum = 0.014 (at node 11)
Accepted packet rate average = 0.010125
	minimum = 0.007 (at node 7)
	maximum = 0.014 (at node 14)
Injected flit rate average = 0.01025
	minimum = 0.007 (at node 13)
	maximum = 0.014 (at node 11)
Accepted flit rate average= 0.010125
	minimum = 0.007 (at node 7)
	maximum = 0.014 (at node 14)
Injected packet length average = 1
Accepted packet length average = 1
Total in-flight flits = 4 (0 measured)
latency change    = 0.0131389
throughput change = 0.0740741
Class 0:
Packet latency average = 19.4941
	minimum = 7
	maximum = 47
Network latency average = 19.4941
	minimum = 7
	maximum = 47
Slowest packet = 6448
Flit latency average = 19.4941
	minimum = 7
	maximum = 47
Slowest flit = 6448
Fragmentation average = 0
	minimum = 0
	maximum = 0
Injected packet rate average = 0.0105625
	minimum = 0.006 (at node 3)
	maximum = 0.018 (at node 0)
Accepted packet rate average = 0.010625
	minimum = 0.007 (at node 3)
	maximum = 0.019 (at node 8)
Injected flit rate average = 0.0105625
	minimum = 0.006 (at node 3)
	maximum = 0.018 (at node 0)
Accepted flit rate average= 0.010625
	minimum = 0.007 (at node 3)
	maximum = 0.019 (at node 8)
Injected packet length average = 1
Accepted packet length average = 1
Total in-flight flits = 3 (0 measured)
latency change    = 0.00191481
throughput change = 0.0470588
Warmed up ...Time used is 3000 cycles
Class 0:
Packet latency average = 20.1964
	minimum = 7
	maximum = 49
Network latency average = 20.1964
	minimum = 7
	maximum = 49
Slowest packet = 6627
Flit latency average = 20.0819
	minimum = 7
	maximum = 49
Slowest flit = 6627
Fragmentation average = 0
	minimum = 0
	maximum = 0
Injected packet rate average = 0.0109375
	minimum = 0.005 (at node 6)
	maximum = 0.016 (at node 13)
Accepted packet rate average = 0.0106875
	minimum = 0.005 (at node 9)
	maximum = 0.016 (at node 1)
Injected flit rate average = 0.0109375
	minimum = 0.005 (at node 6)
	maximum = 0.016 (at node 13)
Accepted flit rate average= 0.0106875
	minimum = 0.005 (at node 9)
	maximum = 0.016 (at node 1)
Injected packet length average = 1
Accepted packet length average = 1
Total in-flight flits = 7 (7 measured)
latency change    = 0.034774
throughput change = 0.00584795
Class 0:
Packet latency average = 19.9657
	minimum = 7
	maximum = 49
Network latency average = 19.9657
	minimum = 7
	maximum = 49
Slowest packet = 6627
Flit latency average = 19.9074
	minimum = 7
	maximum = 49
Slowest flit = 6627
Fragmentation average = 0
	minimum = 0
	maximum = 0
Injected packet rate average = 0.01025
	minimum = 0.006 (at node 0)
	maximum = 0.0135 (at node 4)
Accepted packet rate average = 0.010125
	minimum = 0.0065 (at node 0)
	maximum = 0.0135 (at node 1)
Injected flit rate average = 0.01025
	minimum = 0.006 (at node 0)
	maximum = 0.0135 (at node 4)
Accepted flit rate average= 0.010125
	minimum = 0.0065 (at node 0)
	maximum = 0.0135 (at node 1)
Injected packet length average = 1
Accepted packet length average = 1
Total in-flight flits = 7 (7 measured)
latency change    = 0.0115546
throughput change = 0.0555556
Class 0:
Packet latency average = 19.5287
	minimum = 7
	maximum = 49
Network latency average = 19.5287
	minimum = 7
	maximum = 49
Slowest packet = 6627
Flit latency average = 19.4929
	minimum = 7
	maximum = 49
Slowest flit = 6627
Fragmentation average = 0
	minimum = 0
	maximum = 0
Injected packet rate average = 0.0102292
	minimum = 0.00833333 (at node 0)
	maximum = 0.0133333 (at node 4)
Accepted packet rate average = 0.0102292
	minimum = 0.008 (at node 9)
	maximum = 0.0133333 (at node 1)
Injected flit rate average = 0.0102292
	minimum = 0.00833333 (at node 0)
	maximum = 0.0133333 (at node 4)
Accepted flit rate average= 0.0102292
	minimum = 0.008 (at node 9)
	maximum = 0.0133333 (at node 1)
Injected packet length average = 1
Accepted packet length average = 1
Total in-flight flits = 3 (3 measured)
latency change    = 0.0223796
throughput change = 0.0101833
Class 0:
Packet latency average = 19.4699
	minimum = 7
	maximum = 49
Network latency average = 19.4699
	minimum = 7
	maximum = 49
Slowest packet = 6627
Flit latency average = 19.4431
	minimum = 7
	maximum = 49
Slowest flit = 6627
Fragmentation average = 0
	minimum = 0
	maximum = 0
Injected packet rate average = 0.0101563
	minimum = 0.0075 (at node 6)
	maximum = 0.013 (at node 14)
Accepted packet rate average = 0.0101563
	minimum = 0.0075 (at node 9)
	maximum = 0.013 (at node 11)
Injected flit rate average = 0.0101563
	minimum = 0.0075 (at node 6)
	maximum = 0.013 (at node 14)
Accepted flit rate average= 0.0101563
	minimum = 0.0075 (at node 9)
	maximum = 0.013 (at node 11)
Injected packet length average = 1
Accepted packet length average = 1
Total in-flight flits = 3 (3 measured)
latency change    = 0.00302147
throughput change = 0.00717949
Class 0:
Packet latency average = 19.2618
	minimum = 7
	maximum = 49
Network latency average = 19.2618
	minimum = 7
	maximum = 49
Slowest packet = 6627
Flit latency average = 19.242
	minimum = 7
	maximum = 49
Slowest flit = 6627
Fragmentation average = 0
	minimum = 0
	maximum = 0
Injected packet rate average = 0.010575
	minimum = 0.0076 (at node 12)
	maximum = 0.013 (at node 14)
Accepted packet rate average = 0.0105875
	minimum = 0.0076 (at node 3)
	maximum = 0.013 (at node 11)
Injected flit rate average = 0.010575
	minimum = 0.0076 (at node 12)
	maximum = 0.013 (at node 14)
Accepted flit rate average= 0.0105875
	minimum = 0.0076 (at node 3)
	maximum = 0.013 (at node 11)
Injected packet length average = 1
Accepted packet length average = 1
Total in-flight flits = 2 (2 measured)
latency change    = 0.0107992
throughput change = 0.040732
Draining all recorded packets ...
Draining remaining packets ...
Time taken is 8028 cycles
Class 0:
Packet latency average = 19.9932
	minimum = 7
	maximum = 46
Network latency average = 19.9932
	minimum = 7
	maximum = 46
Slowest packet = 7370
Flit latency average = 19.9932
	minimum = 7
	maximum = 46
Slowest flit = 7370
Fragmentation average = 0
	minimum = 0
	maximum = 0
Injected packet rate average = 0.0091875
	minimum = 0.005 (at node 0)
	maximum = 0.013 (at node 9)
Accepted packet rate average = 0.009125
	minimum = 0.005 (at node 0)
	maximum = 0.013 (at node 11)
Injected flit rate average = 0.0091875
	minimum = 0.005 (at node 0)
	maximum = 0.013 (at node 9)
Accepted flit rate average= 0.009125
	minimum = 0.005 (at node 0)
	maximum = 0.013 (at node 11)
Injected packet length average = 1
Accepted packet length average = 1
Total in-flight flits = 1 (0 measured)
latency change    = 1
throughput change = 1
Class 0:
Packet latency average = 19.3875
	minimum = 7
	maximum = 46
Network latency average = 19.3875
	minimum = 7
	maximum = 46
Slowest packet = 7370
Flit latency average = 19.3875
	minimum = 7
	maximum = 46
Slowest flit = 7370
Fragmentation average = 0
	minimum = 0
	maximum = 0
Injected packet rate average = 0.0100938
	minimum = 0.0055 (at node 2)
	maximum = 0.014 (at node 9)
Accepted packet rate average = 0.01
	minimum = 0.0055 (at node 8)
	maximum = 0.014 (at node 6)
Injected flit rate average = 0.0100938
	minimum = 0.0055 (at node 2)
	maximum = 0.014 (at node 9)
Accepted flit rate average= 0.01
	minimum = 0.0055 (at node 8)
	maximum = 0.014 (at node 6)
Injected packet length average = 1
Accepted packet length average = 1
Total in-flight flits = 3 (0 measured)
latency change    = 0.0312392
throughput change = 0.0875
Class 0:
Packet latency average = 20.2384
	minimum = 7
	maximum = 42
Network latency average = 20.2384
	minimum = 7
	maximum = 42
Slowest packet = 7714
Flit latency average = 20.2384
	minimum = 7
	maximum = 42
Slowest flit = 7714
Fragmentation average = 0
	minimum = 0
	maximum = 0
Injected packet rate average = 0.0095
	minimum = 0.006 (at node 5)
	maximum = 0.014 (at node 6)
Accepted packet rate average = 0.0094375
	minimum = 0.006 (at node 5)
	maximum = 0.015 (at node 2)
Injected flit rate average = 0.0095
	minimum = 0.006 (at node 5)
	maximum = 0.014 (at node 6)
Accepted flit rate average= 0.0094375
	minimum = 0.006 (at node 5)
	maximum = 0.015 (at node 2)
Injected packet length average = 1
Accepted packet length average = 1
Total in-flight flits = 4 (0 measured)
latency change    = 0.0420443
throughput change = 0.0596026
Warmed up ...Time used is 3000 cycles
Class 0:
Packet latency average = 19.4035
	minimum = 7
	maximum = 47
Network latency average = 19.4035
	minimum = 7
	maximum = 47
Slowest packet = 7841
Flit latency average = 19.6343
	minimum = 7
	maximum = 47
Slowest flit = 7841
Fragmentation average = 0
	minimum = 0
	maximum = 0
Injected packet rate average = 0.0108125
	minimum = 0.006 (at node 9)
	maximum = 0.017 (at node 6)
Accepted packet rate average = 0.0109375
	minimum = 0.006 (at node 6)
	maximum = 0.017 (at node 9)
Injected flit rate average = 0.0108125
	minimum = 0.006 (at node 9)
	maximum = 0.017 (at node 6)
Accepted flit rate average= 0.0109375
	minimum = 0.006 (at node 6)
	maximum = 0.017 (at node 9)
Injected packet length average = 1
Accepted packet length average = 1
Total in-flight flits = 2 (2 measured)
latency change    = 0.0430284
throughput change = 0.137143
Class 0:
Packet latency average = 19.9754
	minimum = 7
	maximum = 47
Network latency average = 19.9754
	minimum = 7
	maximum = 47
Slowest packet = 7841
Flit latency average = 20.0912
	minimum = 7
	maximum = 47
Slowest flit = 7841
Fragmentation average = 0
	minimum = 0
	maximum = 0
Injected packet rate average = 0.0101563
	minimum = 0.0075 (at node 2)
	maximum = 0.0125 (at node 0)
Accepted packet rate average = 0.0102813
	minimum = 0.0075 (at node 8)
	maximum = 0.0125 (at node 0)
Injected flit rate average = 0.0101563
	minimum = 0.0075 (at node 2)
	maximum = 0.0125 (at node 0)
Accepted flit rate average= 0.0102813
	minimum = 0.0075 (at node 8)
	maximum = 0.0125 (at node 0)
Injected packet length average = 1
Accepted packet length average = 1
Total in-flight flits = 0 (0 measured)
latency change    = 0.028629
throughput change = 0.0638298
Class 0:
Packet latency average = 19.6358
	minimum = 7
	maximum = 47
Network latency average = 19.6358
	minimum = 7
	maximum = 47
Slowest packet = 7841
Flit latency average = 19.7163
	minimum = 7
	maximum = 47
Slowest flit = 7841
Fragmentation average = 0
	minimum = 0
	maximum = 0
Injected packet rate average = 0.01025
	minimum = 0.00866667 (at node 10)
	maximum = 0.012 (at node 12)
Accepted packet rate average = 0.0102083
	minimum = 0.00866667 (at node 10)
	maximum = 0.0123333 (at node 3)
Injected flit rate average = 0.01025
	minimum = 0.00866667 (at node 10)
	maximum = 0.012 (at node 12)
Accepted flit rate average= 0.0102083
	minimum = 0.00866667 (at node 10)
	maximum = 0.0123333 (at node 3)
Injected packet length average = 1
Accepted packet length average = 1
Total in-flight flits = 6 (6 measured)
latency change    = 0.017294
throughput change = 0.00714286
Class 0:
Packet latency average = 19.5303
	minimum = 7
	maximum = 47
Network latency average = 19.5303
	minimum = 7
	maximum = 47
Slowest packet = 7841
Flit latency average = 19.592
	minimum = 7
	maximum = 47
Slowest flit = 7841
Fragmentation average = 0
	minimum = 0
	maximum = 0
Injected packet rate average = 0.0101563
	minimum = 0.00775 (at node 10)
	maximum = 0.01275 (at node 15)
Accepted packet rate average = 0.0101094
	minimum = 0.00775 (at node 10)
	maximum = 0.01275 (at node 15)
Injected flit rate average = 0.0101563
	minimum = 0.00775 (at node 10)
	maximum = 0.01275 (at node 15)
Accepted flit rate average= 0.0101094
	minimum = 0.00775 (at node 10)
	maximum = 0.01275 (at node 15)
Injected packet length average = 1
Accepted packet length average = 1
Total in-flight flits = 7 (7 measured)
latency change    = 0.00540062
throughput change = 0.00978877
Class 0:
Packet latency average = 19.795
	minimum = 7
	maximum = 47
Network latency average = 19.795
	minimum = 7
	maximum = 47
Slowest packet = 7841
Flit latency average = 19.843
	minimum = 7
	maximum = 47
Slowest flit = 7841
Fragmentation average = 0
	minimum = 0
	maximum = 0
Injected packet rate average = 0.0101
	minimum = 0.0072 (at node 10)
	maximum = 0.012 (at node 11)
Accepted packet rate average = 0.0101125
	minimum = 0.0072 (at node 10)
	maximum = 0.0118 (at node 14)
Injected flit rate average = 0.0101
	minimum = 0.0072 (at node 10)
	maximum = 0.012 (at node 11)
Accepted flit rate average= 0.0101125
	minimum = 0.0072 (at node 10)
	maximum = 0.0118 (at node 14)
Injected packet length average = 1
Accepted packet length average = 1
Total in-flight flits = 3 (3 measured)
latency change    = 0.0133723
throughput change = 0.000309023
Draining all recorded packets ...
Draining remaining packets ...
Time taken is 8037 cycles
Class 0:
Packet latency average = 19.6081
	minimum = 7
	maximum = 44
Network latency average = 19.6081
	minimum = 7
	maximum = 44
Slowest packet = 8776
Flit latency average = 19.6081
	minimum = 7
	maximum = 44
Slowest flit = 8776
Fragmentation average = 0
	minimum = 0
	maximum = 0
Injected packet rate average = 0.0093125
	minimum = 0.003 (at node 1)
	maximum = 0.015 (at node 3)
Accepted packet rate average = 0.00925
	minimum = 0.003 (at node 4)
	maximum = 0.015 (at node 12)
Injected flit rate average = 0.0093125
	minimum = 0.003 (at node 1)
	maximum = 0.015 (at node 3)
Accepted flit rate average= 0.00925
	minimum = 0.003 (at node 4)
	maximum = 0.015 (at node 12)
Injected packet length average = 1
Accepted packet length average = 1
Total in-flight flits = 1 (0 measured)
latency change    = 1
throughput change = 1
Class 0:
Packet latency average = 18.9625
	minimum = 7
	maximum = 44
Network latency average = 18.9625
	minimum = 7
	maximum = 44
Slowest packet = 8776
Flit latency average = 18.9625
	minimum = 7
	maximum = 44
Slowest flit = 8776
Fragmentation average = 0
	minimum = 0
	maximum = 0
Injected packet rate average = 0.00921875
	minimum = 0.0035 (at node 1)
	maximum = 0.0125 (at node 10)
Accepted packet rate average = 0.00915625
	minimum = 0.0035 (at node 4)
	maximum = 0.0125 (at node 10)
Injected flit rate average = 0.00921875
	minimum = 0.0035 (at node 1)
	maximum = 0.0125 (at node 10)
Accepted flit rate average= 0.00915625
	minimum = 0.0035 (at node 4)
	maximum = 0.0125 (at node 10)
Injected packet length average = 1
Accepted packet length average = 1
Total in-flight flits = 2 (0 measured)
latency change    = 0.0340489
throughput change = 0.0102389
Class 0:
Packet latency average = 18.9262
	minimum = 7
	maximum = 37
Network latency average = 18.9262
	minimum = 7
	maximum = 37
Slowest packet = 8950
Flit latency average = 18.9262
	minimum = 7
	maximum = 37
Slowest flit = 8950
Fragmentation average = 0
	minimum = 0
	maximum = 0
Injected packet rate average = 0.0091875
	minimum = 0.003 (at node 2)
	maximum = 0.016 (at node 13)
Accepted packet rate average = 0.0093125
	minimum = 0.003 (at node 8)
	maximum = 0.016 (at node 7)
Injected flit rate average = 0.0091875
	minimum = 0.003 (at node 2)
	maximum = 0.016 (at node 13)
Accepted flit rate average= 0.0093125
	minimum = 0.003 (at node 8)
	maximum = 0.016 (at node 7)
Injected packet length average = 1
Accepted packet length average = 1
Total in-flight flits = 0 (0 measured)
latency change    = 0.00191707
throughput change = 0.0167785
Warmed up ...Time used is 3000 cycles
Class 0:
Packet latency average = 19
	minimum = 7
	maximum = 46
Network latency average = 19
	minimum = 7
	maximum = 46
Slowest packet = 9100
Flit latency average = 19
	minimum = 7
	maximum = 46
Slowest flit = 9100
Fragmentation average = 0
	minimum = 0
	maximum = 0
Injected packet rate average = 0.01
	minimum = 0.004 (at node 13)
	maximum = 0.015 (at node 3)
Accepted packet rate average = 0.009875
	minimum = 0.004 (at node 7)
	maximum = 0.015 (at node 5)
Injected flit rate average = 0.01
	minimum = 0.004 (at node 13)
	maximum = 0.015 (at node 3)
Accepted flit rate average= 0.009875
	minimum = 0.004 (at node 7)
	maximum = 0.015 (at node 5)
Injected packet length average = 1
Accepted packet length average = 1
Total in-flight flits = 2 (2 measured)
latency change    = 0.00388555
throughput change = 0.056962
Class 0:
Packet latency average = 19.177
	minimum = 7
	maximum = 46
Network latency average = 19.177
	minimum = 7
	maximum = 46
Slowest packet = 9100
Flit latency average = 19.177
	minimum = 7
	maximum = 46
Slowest flit = 9100
Fragmentation average = 0
	minimum = 0
	maximum = 0
Injected packet rate average = 0.00965625
	minimum = 0.0065 (at node 13)
	maximum = 0.0145 (at node 5)
Accepted packet rate average = 0.00953125
	minimum = 0.006 (at node 7)
	maximum = 0.0145 (at node 5)
Injected flit rate average = 0.00965625
	minimum = 0.0065 (at node 13)
	maximum = 0.0145 (at node 5)
Accepted flit rate average= 0.00953125
	minimum = 0.006 (at node 7)
	maximum = 0.0145 (at node 5)
Injected packet length average = 1
Accepted packet length average = 1
Total in-flight flits = 4 (4 measured)
latency change    = 0.00923235
throughput change = 0.0360656
Class 0:
Packet latency average = 19.2737
	minimum = 7
	maximum = 47
Network latency average = 19.2737
	minimum = 7
	maximum = 47
Slowest packet = 9409
Flit latency average = 19.2737
	minimum = 7
	maximum = 47
Slowest flit = 9409
Fragmentation average = 0
	minimum = 0
	maximum = 0
Injected packet rate average = 0.00972917
	minimum = 0.00766667 (at node 13)
	maximum = 0.014 (at node 5)
Accepted packet rate average = 0.00966667
	minimum = 0.00733333 (at node 7)
	maximum = 0.014 (at node 5)
Injected flit rate average = 0.00972917
	minimum = 0.00766667 (at node 13)
	maximum = 0.014 (at node 5)
Accepted flit rate average= 0.00966667
	minimum = 0.00733333 (at node 7)
	maximum = 0.014 (at node 5)
Injected packet length average = 1
Accepted packet length average = 1
Total in-flight flits = 3 (3 measured)
latency change    = 0.005015
throughput change = 0.0140086
Class 0:
Packet latency average = 19.6956
	minimum = 7
	maximum = 47
Network latency average = 19.6956
	minimum = 7
	maximum = 47
Slowest packet = 9409
Flit latency average = 19.6956
	minimum = 7
	maximum = 47
Slowest flit = 9409
Fragmentation average = 0
	minimum = 0
	maximum = 0
Injected packet rate average = 0.0099375
	minimum = 0.0075 (at node 15)
	maximum = 0.01225 (at node 7)
Accepted packet rate average = 0.00990625
	minimum = 0.0075 (at node 15)
	maximum = 0.01225 (at node 13)
Injected flit rate average = 0.0099375
	minimum = 0.0075 (at node 15)
	maximum = 0.01225 (at node 7)
Accepted flit rate average= 0.00990625
	minimum = 0.0075 (at node 15)
	maximum = 0.01225 (at node 13)
Injected packet length average = 1
Accepted packet length average = 1
Total in-flight flits = 2 (2 measured)
latency change    = 0.0214199
throughput change = 0.0241851
Draining all recorded packets ...
Draining remaining packets ...
Time taken is 7041 cycles
Class 0:
Packet latency average = 20.8333
	minimum = 7
	maximum = 37
Network latency average = 20.8333
	minimum = 7
	maximum = 37
Slowest packet = 9723
Flit latency average = 20.8333
	minimum = 7
	maximum = 37
Slowest flit = 9723
Fragmentation average = 0
	minimum = 0
	maximum = 0
Injected packet rate average = 0.0091875
	minimum = 0.004 (at node 7)
	maximum = 0.02 (at node 12)
Accepted packet rate average = 0.009
	minimum = 0.004 (at node 13)
	maximum = 0.018 (at node 3)
Injected flit rate average = 0.0091875
	minimum = 0.004 (at node 7)
	maximum = 0.02 (at node 12)
Accepted flit rate average= 0.009
	minimum = 0.004 (at node 13)
	maximum = 0.018 (at node 3)
Injected packet length average = 1
Accepted packet length average = 1
Total in-flight flits = 3 (0 measured)
latency change    = 1
throughput change = 1
Class 0:
Packet latency average = 20.2842
	minimum = 7
	maximum = 38
Network latency average = 20.2842
	minimum = 7
	maximum = 38
Slowest packet = 9941
Flit latency average = 20.2842
	minimum = 7
	maximum = 38
Slowest flit = 9941
Fragmentation average = 0
	minimum = 0
	maximum = 0
Injected packet rate average = 0.00925
	minimum = 0.0045 (at node 7)
	maximum = 0.0145 (at node 12)
Accepted packet rate average = 0.009125
	minimum = 0.004 (at node 13)
	maximum = 0.014 (at node 3)
Injected flit rate average = 0.00925
	minimum = 0.0045 (at node 7)
	maximum = 0.0145 (at node 12)
Accepted flit rate average= 0.009125
	minimum = 0.004 (at node 13)
	maximum = 0.014 (at node 3)
Injected packet length average = 1
Accepted packet length average = 1
Total in-flight flits = 4 (0 measured)
latency change    = 0.0270696
throughput change = 0.0136986
Class 0:
Packet latency average = 19.4913
	minimum = 7
	maximum = 48
Network latency average = 19.4913
	minimum = 7
	maximum = 48
Slowest packet = 10097
Flit latency average = 19.4913
	minimum = 7
	maximum = 48
Slowest flit = 10097
Fragmentation average = 0
	minimum = 0
	maximum = 0
Injected packet rate average = 0.0108125
	minimum = 0.006 (at node 4)
	maximum = 0.016 (at node 11)
Accepted packet rate average = 0.0108125
	minimum = 0.005 (at node 1)
	maximum = 0.016 (at node 14)
Injected flit rate average = 0.0108125
	minimum = 0.006 (at node 4)
	maximum = 0.016 (at node 11)
Accepted flit rate average= 0.0108125
	minimum = 0.005 (at node 1)
	maximum = 0.016 (at node 14)
Injected packet length average = 1
Accepted packet length average = 1
Total in-flight flits = 4 (0 measured)
latency change    = 0.0406805
throughput change = 0.156069
Warmed up ...Time used is 3000 cycles
Class 0:
Packet latency average = 19.3689
	minimum = 7
	maximum = 38
Network latency average = 19.3689
	minimum = 7
	maximum = 38
Slowest packet = 10210
Flit latency average = 19.6111
	minimum = 7
	maximum = 38
Slowest flit = 10210
Fragmentation average = 0
	minimum = 0
	maximum = 0
Injected packet rate average = 0.008
	minimum = 0.004 (at node 15)
	maximum = 0.013 (at node 3)
Accepted packet rate average = 0.007875
	minimum = 0.004 (at node 3)
	maximum = 0.012 (at node 10)
Injected flit rate average = 0.008
	minimum = 0.004 (at node 15)
	maximum = 0.013 (at node 3)
Accepted flit rate average= 0.007875
	minimum = 0.004 (at node 3)
	maximum = 0.012 (at node 10)
Injected packet length average = 1
Accepted packet length average = 1
Total in-flight flits = 6 (6 measured)
latency change    = 0.0063234
throughput change = 0.373016
Class 0:
Packet latency average = 19.4915
	minimum = 7
	maximum = 45
Network latency average = 19.4915
	minimum = 7
	maximum = 45
Slowest packet = 10407
Flit latency average = 19.592
	minimum = 7
	maximum = 45
Slowest flit = 10407
Fragmentation average = 0
	minimum = 0
	maximum = 0
Injected packet rate average = 0.00928125
	minimum = 0.006 (at node 12)
	maximum = 0.0125 (at node 10)
Accepted packet rate average = 0.00934375
	minimum = 0.006 (at node 3)
	maximum = 0.0125 (at node 1)
Injected flit rate average = 0.00928125
	minimum = 0.006 (at node 12)
	maximum = 0.0125 (at node 10)
Accepted flit rate average= 0.00934375
	minimum = 0.006 (at node 3)
	maximum = 0.0125 (at node 1)
Injected packet length average = 1
Accepted packet length average = 1
Total in-flight flits = 2 (2 measured)
latency change    = 0.00629366
throughput change = 0.157191
Class 0:
Packet latency average = 19.3356
	minimum = 7
	maximum = 45
Network latency average = 19.3356
	minimum = 7
	maximum = 45
Slowest packet = 10407
Flit latency average = 19.4055
	minimum = 7
	maximum = 45
Slowest flit = 10407
Fragmentation average = 0
	minimum = 0
	maximum = 0
Injected packet rate average = 0.00910417
	minimum = 0.00633333 (at node 12)
	maximum = 0.0123333 (at node 10)
Accepted packet rate average = 0.00914583
	minimum = 0.00633333 (at node 3)
	maximum = 0.0123333 (at node 10)
Injected flit rate average = 0.00910417
	minimum = 0.00633333 (at node 12)
	maximum = 0.0123333 (at node 10)
Accepted flit rate average= 0.00914583
	minimum = 0.00633333 (at node 3)
	maximum = 0.0123333 (at node 10)
Injected packet length average = 1
Accepted packet length average = 1
Total in-flight flits = 2 (2 measured)
latency change    = 0.00806248
throughput change = 0.0216401
Class 0:
Packet latency average = 19.2826
	minimum = 7
	maximum = 45
Network latency average = 19.2826
	minimum = 7
	maximum = 45
Slowest packet = 10407
Flit latency average = 19.3339
	minimum = 7
	maximum = 45
Slowest flit = 10407
Fragmentation average = 0
	minimum = 0
	maximum = 0
Injected packet rate average = 0.00942187
	minimum = 0.00575 (at node 12)
	maximum = 0.01275 (at node 10)
Accepted packet rate average = 0.00940625
	minimum = 0.00575 (at node 3)
	maximum = 0.01275 (at node 10)
Injected flit rate average = 0.00942187
	minimum = 0.00575 (at node 12)
	maximum = 0.01275 (at node 10)
Accepted flit rate average= 0.00940625
	minimum = 0.00575 (at node 3)
	maximum = 0.01275 (at node 10)
Injected packet length average = 1
Accepted packet length average = 1
Total in-flight flits = 5 (5 measured)
latency change    = 0.00274981
throughput change = 0.0276855
Class 0:
Packet latency average = 19.3303
	minimum = 7
	maximum = 45
Network latency average = 19.3303
	minimum = 7
	maximum = 45
Slowest packet = 10407
Flit latency average = 19.3697
	minimum = 7
	maximum = 45
Slowest flit = 10407
Fragmentation average = 0
	minimum = 0
	maximum = 0
Injected packet rate average = 0.0097375
	minimum = 0.0066 (at node 12)
	maximum = 0.0116 (at node 10)
Accepted packet rate average = 0.0097375
	minimum = 0.0064 (at node 3)
	maximum = 0.0116 (at node 10)
Injected flit rate average = 0.0097375
	minimum = 0.0066 (at node 12)
	maximum = 0.0116 (at node 10)
Accepted flit rate average= 0.0097375
	minimum = 0.0064 (at node 3)
	maximum = 0.0116 (at node 10)
Injected packet length average = 1
Accepted packet length average = 1
Total in-flight flits = 4 (4 measured)
latency change    = 0.00246834
throughput change = 0.034018
Draining all recorded packets ...
Draining remaining packets ...
Time taken is 8058 cycles
Class 0:
Packet latency average = 19.869
	minimum = 7
	maximum = 54
Network latency average = 19.869
	minimum = 7
	maximum = 54
Slowest packet = 11033
Flit latency average = 19.869
	minimum = 7
	maximum = 54
Slowest flit = 11033
Fragmentation average = 0
	minimum = 0
	maximum = 0
Injected packet rate average = 0.0105625
	minimum = 0.006 (at node 6)
	maximum = 0.016 (at node 9)
Accepted packet rate average = 0.0105
	minimum = 0.006 (at node 3)
	maximum = 0.016 (at node 6)
Injected flit rate average = 0.0105625
	minimum = 0.006 (at node 6)
	maximum = 0.016 (at node 9)
Accepted flit rate average= 0.0105
	minimum = 0.006 (at node 3)
	maximum = 0.016 (at node 6)
Injected packet length average = 1
Accepted packet length average = 1
Total in-flight flits = 1 (0 measured)
latency change    = 1
throughput change = 1
Class 0:
Packet latency average = 19.229
	minimum = 7
	maximum = 54
Network latency average = 19.229
	minimum = 7
	maximum = 54
Slowest packet = 11033
Flit latency average = 19.229
	minimum = 7
	maximum = 54
Slowest flit = 11033
Fragmentation average = 0
	minimum = 0
	maximum = 0
Injected packet rate average = 0.010875
	minimum = 0.006 (at node 12)
	maximum = 0.018 (at node 9)
Accepted packet rate average = 0.0107812
	minimum = 0.006 (at node 3)
	maximum = 0.018 (at node 6)
Injected flit rate average = 0.010875
	minimum = 0.006 (at node 12)
	maximum = 0.018 (at node 9)
Accepted flit rate average= 0.0107812
	minimum = 0.006 (at node 3)
	maximum = 0.018 (at node 6)
Injected packet length average = 1
Accepted packet length average = 1
Total in-flight flits = 3 (0 measured)
latency change    = 0.0332863
throughput change = 0.026087
Class 0:
Packet latency average = 18.9198
	minimum = 7
	maximum = 44
Network latency average = 18.9198
	minimum = 7
	maximum = 44
Slowest packet = 11361
Flit latency average = 18.9198
	minimum = 7
	maximum = 44
Slowest flit = 11361
Fragmentation average = 0
	minimum = 0
	maximum = 0
Injected packet rate average = 0.01
	minimum = 0.004 (at node 11)
	maximum = 0.015 (at node 1)
Accepted packet rate average = 0.010125
	minimum = 0.004 (at node 14)
	maximum = 0.015 (at node 4)
Injected flit rate average = 0.01
	minimum = 0.004 (at node 11)
	maximum = 0.015 (at node 1)
Accepted flit rate average= 0.010125
	minimum = 0.004 (at node 14)
	maximum = 0.015 (at node 4)
Injected packet length average = 1
Accepted packet length average = 1
Total in-flight flits = 1 (0 measured)
latency change    = 0.0163444
throughput change = 0.0648148
Warmed up ...Time used is 3000 cycles
Class 0:
Packet latency average = 20.5137
	minimum = 7
	maximum = 45
Network latency average = 20.5137
	minimum = 7
	maximum = 45
Slowest packet = 11551
Flit latency average = 20.5578
	minimum = 7
	maximum = 45
Slowest flit = 11551
Fragmentation average = 0
	minimum = 0
	maximum = 0
Injected packet rate average = 0.0093125
	minimum = 0.004 (at node 11)
	maximum = 0.014 (at node 13)
Accepted packet rate average = 0.0091875
	minimum = 0.004 (at node 14)
	maximum = 0.014 (at node 7)
Injected flit rate average = 0.0093125
	minimum = 0.004 (at node 11)
	maximum = 0.014 (at node 13)
Accepted flit rate average= 0.0091875
	minimum = 0.004 (at node 14)
	maximum = 0.014 (at node 7)
Injected packet length average = 1
Accepted packet length average = 1
Total in-flight flits = 3 (3 measured)
latency change    = 0.0777015
throughput change = 0.102041
Class 0:
Packet latency average = 20.8027
	minimum = 7
	maximum = 48
Network latency average = 20.8027
	minimum = 7
	maximum = 48
Slowest packet = 11722
Flit latency average = 20.8237
	minimum = 7
	maximum = 48
Slowest flit = 11722
Fragmentation average = 0
	minimum = 0
	maximum = 0
Injected packet rate average = 0.0093125
	minimum = 0.004 (at node 5)
	maximum = 0.014 (at node 12)
Accepted packet rate average = 0.00921875
	minimum = 0.004 (at node 5)
	maximum = 0.014 (at node 3)
Injected flit rate average = 0.0093125
	minimum = 0.004 (at node 5)
	maximum = 0.014 (at node 12)
Accepted flit rate average= 0.00921875
	minimum = 0.004 (at node 5)
	maximum = 0.014 (at node 3)
Injected packet length average = 1
Accepted packet length average = 1
Total in-flight flits = 4 (4 measured)
latency change    = 0.0138935
throughput change = 0.00338983
Class 0:
Packet latency average = 20.3259
	minimum = 7
	maximum = 48
Network latency average = 20.3259
	minimum = 7
	maximum = 48
Slowest packet = 11722
Flit latency average = 20.3407
	minimum = 7
	maximum = 48
Slowest flit = 11722
Fragmentation average = 0
	minimum = 0
	maximum = 0
Injected packet rate average = 0.0095
	minimum = 0.005 (at node 11)
	maximum = 0.0126667 (at node 6)
Accepted packet rate average = 0.00941667
	minimum = 0.005 (at node 14)
	maximum = 0.0126667 (at node 9)
Injected flit rate average = 0.0095
	minimum = 0.005 (at node 11)
	maximum = 0.0126667 (at node 6)
Accepted flit rate average= 0.00941667
	minimum = 0.005 (at node 14)
	maximum = 0.0126667 (at node 9)
Injected packet length average = 1
Accepted packet length average = 1
Total in-flight flits = 5 (5 measured)
latency change    = 0.0234567
throughput change = 0.0210177
Class 0:
Packet latency average = 20.4165
	minimum = 7
	maximum = 55
Network latency average = 20.4165
	minimum = 7
	maximum = 55
Slowest packet = 12001
Flit latency average = 20.4272
	minimum = 7
	maximum = 55
Slowest flit = 12001
Fragmentation average = 0
	minimum = 0
	maximum = 0
Injected packet rate average = 0.00965625
	minimum = 0.00625 (at node 11)
	maximum = 0.01375 (at node 12)
Accepted packet rate average = 0.00965625
	minimum = 0.00625 (at node 14)
	maximum = 0.01375 (at node 3)
Injected flit rate average = 0.00965625
	minimum = 0.00625 (at node 11)
	maximum = 0.01375 (at node 12)
Accepted flit rate average= 0.00965625
	minimum = 0.00625 (at node 14)
	maximum = 0.01375 (at node 3)
Injected packet length average = 1
Accepted packet length average = 1
Total in-flight flits = 1 (1 measured)
latency change    = 0.00443705
throughput change = 0.0248112
Draining all recorded packets ...
Draining remaining packets ...
Time taken is 7019 cycles
Class 0:
Packet latency average = 20
	minimum = 7
	maximum = 47
Network latency average = 20
	minimum = 7
	maximum = 47
Slowest packet = 12192
Flit latency average = 20
	minimum = 7
	maximum = 47
Slowest flit = 12192
Fragmentation average = 0
	minimum = 0
	maximum = 0
Injected packet rate average = 0.0094375
	minimum = 0.004 (at node 0)
	maximum = 0.015 (at node 4)
Accepted packet rate average = 0.00925
	minimum = 0.003 (at node 0)
	maximum = 0.014 (at node 1)
Injected flit rate average = 0.0094375
	minimum = 0.004 (at node 0)
	maximum = 0.015 (at node 4)
Accepted flit rate average= 0.00925
	minimum = 0.003 (at node 0)
	maximum = 0.014 (at node 1)
Injected packet length average = 1
Accepted packet length average = 1
Total in-flight flits = 3 (0 measured)
latency change    = 1
throughput change = 1
Class 0:
Packet latency average = 19.0915
	minimum = 7
	maximum = 47
Network latency average = 19.0915
	minimum = 7
	maximum = 47
Slowest packet = 12192
Flit latency average = 19.0915
	minimum = 7
	maximum = 47
Slowest flit = 12192
Fragmentation average = 0
	minimum = 0
	maximum = 0
Injected packet rate average = 0.009625
	minimum = 0.007 (at node 8)
	maximum = 0.014 (at node 4)
Accepted packet rate average = 0.0095625
	minimum = 0.0065 (at node 3)
	maximum = 0.014 (at node 1)
Injected flit rate average = 0.009625
	minimum = 0.007 (at node 8)
	maximum = 0.014 (at node 4)
Accepted flit rate average= 0.0095625
	minimum = 0.0065 (at node 3)
	maximum = 0.014 (at node 1)
Injected packet length average = 1
Accepted packet length average = 1
Total in-flight flits = 2 (0 measured)
latency change    = 0.0475864
throughput change = 0.0326797
Class 0:
Packet latency average = 18.6792
	minimum = 7
	maximum = 38
Network latency average = 18.6792
	minimum = 7
	maximum = 38
Slowest packet = 12508
Flit latency average = 18.6792
	minimum = 7
	maximum = 38
Slowest flit = 12508
Fragmentation average = 0
	minimum = 0
	maximum = 0
Injected packet rate average = 0.0100625
	minimum = 0.006 (at node 4)
	maximum = 0.018 (at node 15)
Accepted packet rate average = 0.0099375
	minimum = 0.006 (at node 1)
	maximum = 0.017 (at node 15)
Injected flit rate average = 0.0100625
	minimum = 0.006 (at node 4)
	maximum = 0.018 (at node 15)
Accepted flit rate average= 0.0099375
	minimum = 0.006 (at node 1)
	maximum = 0.017 (at node 15)
Injected packet length average = 1
Accepted packet length average = 1
Total in-flight flits = 4 (0 measured)
latency change    = 0.0220704
throughput change = 0.0377358
Warmed up ...Time used is 3000 cycles
Class 0:
Packet latency average = 21.0119
	minimum = 7
	maximum = 45
Network latency average = 21.0119
	minimum = 7
	maximum = 45
Slowest packet = 12705
Flit latency average = 21.093
	minimum = 7
	maximum = 45
Slowest flit = 12705
Fragmentation average = 0
	minimum = 0
	maximum = 0
Injected packet rate average = 0.010875
	minimum = 0.007 (at node 9)
	maximum = 0.016 (at node 3)
Accepted packet rate average = 0.01075
	minimum = 0.007 (at node 6)
	maximum = 0.017 (at node 12)
Injected flit rate average = 0.010875
	minimum = 0.007 (at node 9)
	maximum = 0.016 (at node 3)
Accepted flit rate average= 0.01075
	minimum = 0.007 (at node 6)
	maximum = 0.017 (at node 12)
Injected packet length average = 1
Accepted packet length average = 1
Total in-flight flits = 6 (6 measured)
latency change    = 0.111016
throughput change = 0.0755814
Class 0:
Packet latency average = 20.9296
	minimum = 7
	maximum = 46
Network latency average = 20.9296
	minimum = 7
	maximum = 46
Slowest packet = 12779
Flit latency average = 20.971
	minimum = 7
	maximum = 46
Slowest flit = 12779
Fragmentation average = 0
	minimum = 0
	maximum = 0
Injected packet rate average = 0.0107812
	minimum = 0.008 (at node 10)
	maximum = 0.016 (at node 12)
Accepted packet rate average = 0.0107812
	minimum = 0.008 (at node 10)
	maximum = 0.016 (at node 3)
Injected flit rate average = 0.0107812
	minimum = 0.008 (at node 10)
	maximum = 0.016 (at node 12)
Accepted flit rate average= 0.0107812
	minimum = 0.008 (at node 10)
	maximum = 0.016 (at node 3)
Injected packet length average = 1
Accepted packet length average = 1
Total in-flight flits = 4 (4 measured)
latency change    = 0.00393156
throughput change = 0.00289855
Class 0:
Packet latency average = 20.8932
	minimum = 7
	maximum = 46
Network latency average = 20.8932
	minimum = 7
	maximum = 46
Slowest packet = 12779
Flit latency average = 20.9226
	minimum = 7
	maximum = 46
Slowest flit = 12779
Fragmentation average = 0
	minimum = 0
	maximum = 0
Injected packet rate average = 0.0102083
	minimum = 0.00766667 (at node 10)
	maximum = 0.0153333 (at node 12)
Accepted packet rate average = 0.0102292
	minimum = 0.00733333 (at node 11)
	maximum = 0.0153333 (at node 3)
Injected flit rate average = 0.0102083
	minimum = 0.00766667 (at node 10)
	maximum = 0.0153333 (at node 12)
Accepted flit rate average= 0.0102292
	minimum = 0.00733333 (at node 11)
	maximum = 0.0153333 (at node 3)
Injected packet length average = 1
Accepted packet length average = 1
Total in-flight flits = 3 (3 measured)
latency change    = 0.00174195
throughput change = 0.0539715
Class 0:
Packet latency average = 20.4969
	minimum = 7
	maximum = 46
Network latency average = 20.4969
	minimum = 7
	maximum = 46
Slowest packet = 12779
Flit latency average = 20.5213
	minimum = 7
	maximum = 46
Slowest flit = 12779
Fragmentation average = 0
	minimum = 0
	maximum = 0
Injected packet rate average = 0.01025
	minimum = 0.00775 (at node 10)
	maximum = 0.01375 (at node 12)
Accepted packet rate average = 0.0102813
	minimum = 0.00775 (at node 10)
	maximum = 0.01375 (at node 3)
Injected flit rate average = 0.01025
	minimum = 0.00775 (at node 10)
	maximum = 0.01375 (at node 12)
Accepted flit rate average= 0.0102813
	minimum = 0.00775 (at node 10)
	maximum = 0.01375 (at node 3)
Injected packet length average = 1
Accepted packet length average = 1
Total in-flight flits = 2 (2 measured)
latency change    = 0.0193337
throughput change = 0.00506586
Class 0:
Packet latency average = 20.4877
	minimum = 7
	maximum = 46
Network latency average = 20.4877
	minimum = 7
	maximum = 46
Slowest packet = 12779
Flit latency average = 20.5074
	minimum = 7
	maximum = 46
Slowest flit = 12779
Fragmentation average = 0
	minimum = 0
	maximum = 0
Injected packet rate average = 0.0102
	minimum = 0.0078 (at node 14)
	maximum = 0.0132 (at node 12)
Accepted packet rate average = 0.0102
	minimum = 0.0076 (at node 11)
	maximum = 0.013 (at node 3)
Injected flit rate average = 0.0102
	minimum = 0.0078 (at node 14)
	maximum = 0.0132 (at node 12)
Accepted flit rate average= 0.0102
	minimum = 0.0076 (at node 11)
	maximum = 0.013 (at node 3)
Injected packet length average = 1
Accepted packet length average = 1
Total in-flight flits = 4 (4 measured)
latency change    = 0.000451841
throughput change = 0.00796569
Class 0:
Packet latency average = 20.1487
	minimum = 7
	maximum = 46
Network latency average = 20.1487
	minimum = 7
	maximum = 46
Slowest packet = 12779
Flit latency average = 20.1663
	minimum = 7
	maximum = 46
Slowest flit = 12779
Fragmentation average = 0
	minimum = 0
	maximum = 0
Injected packet rate average = 0.0102813
	minimum = 0.00816667 (at node 10)
	maximum = 0.0123333 (at node 11)
Accepted packet rate average = 0.0102708
	minimum = 0.00816667 (at node 10)
	maximum = 0.0123333 (at node 14)
Injected flit rate average = 0.0102813
	minimum = 0.00816667 (at node 10)
	maximum = 0.0123333 (at node 11)
Accepted flit rate average= 0.0102708
	minimum = 0.00816667 (at node 10)
	maximum = 0.0123333 (at node 14)
Injected packet length average = 1
Accepted packet length average = 1
Total in-flight flits = 5 (5 measured)
latency change    = 0.0168254
throughput change = 0.00689655
Draining all recorded packets ...
Draining remaining packets ...
Time taken is 9050 cycles
Class 0:
Packet latency average = 20.3608
	minimum = 7
	maximum = 43
Network latency average = 20.3608
	minimum = 7
	maximum = 43
Slowest packet = 13627
Flit latency average = 20.3608
	minimum = 7
	maximum = 43
Slowest flit = 13627
Fragmentation average = 0
	minimum = 0
	maximum = 0
Injected packet rate average = 0.0103125
	minimum = 0.005 (at node 0)
	maximum = 0.016 (at node 2)
Accepted packet rate average = 0.009875
	minimum = 0.005 (at node 0)
	maximum = 0.016 (at node 1)
Injected flit rate average = 0.0103125
	minimum = 0.005 (at node 0)
	maximum = 0.016 (at node 2)
Accepted flit rate average= 0.009875
	minimum = 0.005 (at node 0)
	maximum = 0.016 (at node 1)
Injected packet length average = 1
Accepted packet length average = 1
Total in-flight flits = 7 (0 measured)
latency change    = 1
throughput change = 1
Class 0:
Packet latency average = 20.059
	minimum = 7
	maximum = 43
Network latency average = 20.059
	minimum = 7
	maximum = 43
Slowest packet = 13627
Flit latency average = 20.059
	minimum = 7
	maximum = 43
Slowest flit = 13627
Fragmentation average = 0
	minimum = 0
	maximum = 0
Injected packet rate average = 0.0107188
	minimum = 0.0075 (at node 1)
	maximum = 0.016 (at node 2)
Accepted packet rate average = 0.0105938
	minimum = 0.0075 (at node 4)
	maximum = 0.016 (at node 8)
Injected flit rate average = 0.0107188
	minimum = 0.0075 (at node 1)
	maximum = 0.016 (at node 2)
Accepted flit rate average= 0.0105938
	minimum = 0.0075 (at node 4)
	maximum = 0.016 (at node 8)
Injected packet length average = 1
Accepted packet length average = 1
Total in-flight flits = 4 (0 measured)
latency change    = 0.0150437
throughput change = 0.0678466
Class 0:
Packet latency average = 20.0473
	minimum = 7
	maximum = 44
Network latency average = 20.0473
	minimum = 7
	maximum = 44
Slowest packet = 13943
Flit latency average = 20.0473
	minimum = 7
	maximum = 44
Slowest flit = 13943
Fragmentation average = 0
	minimum = 0
	maximum = 0
Injected packet rate average = 0.0091875
	minimum = 0.004 (at node 12)
	maximum = 0.016 (at node 6)
Accepted packet rate average = 0.00925
	minimum = 0.004 (at node 15)
	maximum = 0.016 (at node 9)
Injected flit rate average = 0.0091875
	minimum = 0.004 (at node 12)
	maximum = 0.016 (at node 6)
Accepted flit rate average= 0.00925
	minimum = 0.004 (at node 15)
	maximum = 0.016 (at node 9)
Injected packet length average = 1
Accepted packet length average = 1
Total in-flight flits = 3 (0 measured)
latency change    = 0.000583607
throughput change = 0.14527
Warmed up ...Time used is 3000 cycles
Class 0:
Packet latency average = 18.3557
	minimum = 7
	maximum = 45
Network latency average = 18.3557
	minimum = 7
	maximum = 45
Slowest packet = 14163
Flit latency average = 18.5263
	minimum = 7
	maximum = 45
Slowest flit = 14163
Fragmentation average = 0
	minimum = 0
	maximum = 0
Injected packet rate average = 0.0096875
	minimum = 0.005 (at node 6)
	maximum = 0.017 (at node 5)
Accepted packet rate average = 0.0095
	minimum = 0.005 (at node 9)
	maximum = 0.016 (at node 5)
Injected flit rate average = 0.0096875
	minimum = 0.005 (at node 6)
	maximum = 0.017 (at node 5)
Accepted flit rate average= 0.0095
	minimum = 0.005 (at node 9)
	maximum = 0.016 (at node 5)
Injected packet length average = 1
Accepted packet length average = 1
Total in-flight flits = 6 (6 measured)
latency change    = 0.0921562
throughput change = 0.0263158
Class 0:
Packet latency average = 19.4132
	minimum = 7
	maximum = 45
Network latency average = 19.4132
	minimum = 7
	maximum = 45
Slowest packet = 14163
Flit latency average = 19.4844
	minimum = 7
	maximum = 45
Slowest flit = 14163
Fragmentation average = 0
	minimum = 0
	maximum = 0
Injected packet rate average = 0.00996875
	minimum = 0.007 (at node 2)
	maximum = 0.012 (at node 3)
Accepted packet rate average = 0.01
	minimum = 0.007 (at node 8)
	maximum = 0.0125 (at node 12)
Injected flit rate average = 0.00996875
	minimum = 0.007 (at node 2)
	maximum = 0.012 (at node 3)
Accepted flit rate average= 0.01
	minimum = 0.007 (at node 8)
	maximum = 0.0125 (at node 12)
Injected packet length average = 1
Accepted packet length average = 1
Total in-flight flits = 2 (2 measured)
latency change    = 0.0544754
throughput change = 0.05
Class 0:
Packet latency average = 19.5129
	minimum = 7
	maximum = 47
Network latency average = 19.5129
	minimum = 7
	maximum = 47
Slowest packet = 14393
Flit latency average = 19.5608
	minimum = 7
	maximum = 47
Slowest flit = 14393
Fragmentation average = 0
	minimum = 0
	maximum = 0
Injected packet rate average = 0.00970833
	minimum = 0.00666667 (at node 6)
	maximum = 0.0146667 (at node 8)
Accepted packet rate average = 0.00977083
	minimum = 0.00666667 (at node 9)
	maximum = 0.0146667 (at node 2)
Injected flit rate average = 0.00970833
	minimum = 0.00666667 (at node 6)
	maximum = 0.0146667 (at node 8)
Accepted flit rate average= 0.00977083
	minimum = 0.00666667 (at node 9)
	maximum = 0.0146667 (at node 2)
Injected packet length average = 1
Accepted packet length average = 1
Total in-flight flits = 0 (0 measured)
latency change    = 0.00510567
throughput change = 0.0234542
Class 0:
Packet latency average = 20.04
	minimum = 7
	maximum = 47
Network latency average = 20.04
	minimum = 7
	maximum = 47
Slowest packet = 14393
Flit latency average = 20.0732
	minimum = 7
	maximum = 47
Slowest flit = 14393
Fragmentation average = 0
	minimum = 0
	maximum = 0
Injected packet rate average = 0.00989063
	minimum = 0.00775 (at node 6)
	maximum = 0.014 (at node 8)
Accepted packet rate average = 0.0098125
	minimum = 0.00725 (at node 9)
	maximum = 0.014 (at node 2)
Injected flit rate average = 0.00989063
	minimum = 0.00775 (at node 6)
	maximum = 0.014 (at node 8)
Accepted flit rate average= 0.0098125
	minimum = 0.00725 (at node 9)
	maximum = 0.014 (at node 2)
Injected packet length average = 1
Accepted packet length average = 1
Total in-flight flits = 8 (8 measured)
latency change    = 0.0263036
throughput change = 0.00424628
Class 0:
Packet latency average = 19.9246
[...]
	minimum = 0
	maximum = 0
Injected packet rate average = 0.0108125
	minimum = 0.006 (at node 6)
	maximum = 0.023 (at node 2)
Accepted packet rate average = 0.0105625
	minimum = 0.004 (at node 7)
	maximum = 0.022 (at node 8)
Injected flit rate average = 0.0108125
	minimum = 0.006 (at node 6)
	maximum = 0.023 (at node 2)
Accepted flit rate average= 0.0105625
	minimum = 0.004 (at node 7)
	maximum = 0.022 (at node 8)
Injected packet length average = 1
Accepted packet length average = 1
Total in-flight flits = 4 (0 measured)
latency change    = 1
throughput change = 1
Class 0:
Packet latency average = 19.3834
	minimum = 7
	maximum = 45
Network latency average = 19.3834
	minimum = 7
	maximum = 45
Slowest packet = 117749
Flit latency average = 19.3834
	minimum = 7
	maximum = 45
Slowest flit = 117749
Fragmentation average = 0
	minimum = 0
	maximum = 0
Injected packet rate average = 0.00996875
	minimum = 0.0065 (at node 9)
	maximum = 0.017 (at node 2)
Accepted packet rate average = 0.00978125
	minimum = 0.006 (at node 7)
	maximum = 0.017 (at node 8)
Injected flit rate average = 0.00996875
	minimum = 0.0065 (at node 9)
	maximum = 0.017 (at node 2)
Accepted flit rate average= 0.00978125
	minimum = 0.006 (at node 7)
	maximum = 0.017 (at node 8)
Injected packet length average = 1
Accepted packet length average = 1
Total in-flight flits = 6 (0 measured)
latency change    = 0.024485
throughput change = 0.0798722
Class 0:
Packet latency average = 21.7953
	minimum = 7
	maximum = 46
Network latency average = 21.7953
	minimum = 7
	maximum = 46
Slowest packet = 117877
Flit latency average = 21.7953
	minimum = 7
	maximum = 46
Slowest flit = 117877
Fragmentation average = 0
	minimum = 0
	maximum = 0
Injected packet rate average = 0.0104375
	minimum = 0.003 (at node 0)
	maximum = 0.016 (at node 3)
Accepted packet rate average = 0.0106875
	minimum = 0.003 (at node 0)
	maximum = 0.017 (at node 3)
Injected flit rate average = 0.0104375
	minimum = 0.003 (at node 0)
	maximum = 0.016 (at node 3)
Accepted flit rate average= 0.0106875
	minimum = 0.003 (at node 0)
	maximum = 0.017 (at node 3)
Injected packet length average = 1
Accepted packet length average = 1
Total in-flight flits = 2 (0 measured)
latency change    = 0.110663
throughput change = 0.0847953
Warmed up ...Time used is 3000 cycles
Class 0:
Packet latency average = 19.5503
	minimum = 7
	maximum = 43
Network latency average = 19.5503
	minimum = 7
	maximum = 43
Slowest packet = 118034
Flit latency average = 19.5828
	minimum = 7
	maximum = 43
Slowest flit = 118034
Fragmentation average = 0
	minimum = 0
	maximum = 0
Injected packet rate average = 0.0095
	minimum = 0.006 (at node 2)
	maximum = 0.016 (at node 10)
Accepted packet rate average = 0.0094375
	minimum = 0.006 (at node 7)
	maximum = 0.016 (at node 10)
Injected flit rate average = 0.0095
	minimum = 0.006 (at node 2)
	maximum = 0.016 (at node 10)
Accepted flit rate average= 0.0094375
	minimum = 0.006 (at node 7)
	maximum = 0.016 (at node 10)
Injected packet length average = 1
Accepted packet length average = 1
Total in-flight flits = 3 (3 measured)
latency change    = 0.114831
throughput change = 0.13245
Class 0:
Packet latency average = 19.6044
	minimum = 7
	maximum = 43
Network latency average = 19.6044
	minimum = 7
	maximum = 43
Slowest packet = 118034
Flit latency average = 19.6218
	minimum = 7
	maximum = 43
Slowest flit = 118034
Fragmentation average = 0
	minimum = 0
	maximum = 0
Injected packet rate average = 0.00875
	minimum = 0.006 (at node 2)
	maximum = 0.0115 (at node 6)
Accepted packet rate average = 0.00859375
	minimum = 0.0055 (at node 13)
	maximum = 0.011 (at node 3)
Injected flit rate average = 0.00875
	minimum = 0.006 (at node 2)
	maximum = 0.0115 (at node 6)
Accepted flit rate average= 0.00859375
	minimum = 0.0055 (at node 13)
	maximum = 0.011 (at node 3)
Injected packet length average = 1
Accepted packet length average = 1
Total in-flight flits = 7 (7 measured)
latency change    = 0.00275755
throughput change = 0.0981818
Class 0:
Packet latency average = 19.6319
	minimum = 7
	maximum = 45
Network latency average = 19.6319
	minimum = 7
	maximum = 45
Slowest packet = 118369
Flit latency average = 19.6429
	minimum = 7
	maximum = 45
Slowest flit = 118369
Fragmentation average = 0
	minimum = 0
	maximum = 0
Injected packet rate average = 0.00904167
	minimum = 0.00633333 (at node 2)
	maximum = 0.0126667 (at node 6)
Accepted packet rate average = 0.00904167
	minimum = 0.00633333 (at node 8)
	maximum = 0.0126667 (at node 9)
Injected flit rate average = 0.00904167
	minimum = 0.00633333 (at node 2)
	maximum = 0.0126667 (at node 6)
Accepted flit rate average= 0.00904167
	minimum = 0.00633333 (at node 8)
	maximum = 0.0126667 (at node 9)
Injected packet length average = 1
Accepted packet length average = 1
Total in-flight flits = 2 (2 measured)
latency change    = 0.00140327
throughput change = 0.0495392
Class 0:
Packet latency average = 19.7661
	minimum = 7
	maximum = 48
Network latency average = 19.7661
	minimum = 7
	maximum = 48
Slowest packet = 118509
Flit latency average = 19.7739
	minimum = 7
	maximum = 48
Slowest flit = 118509
Fragmentation average = 0
	minimum = 0
	maximum = 0
Injected packet rate average = 0.00898437
	minimum = 0.00725 (at node 2)
	maximum = 0.01125 (at node 6)
Accepted packet rate average = 0.00898437
	minimum = 0.0075 (at node 8)
	maximum = 0.011 (at node 7)
Injected flit rate average = 0.00898437
	minimum = 0.00725 (at node 2)
	maximum = 0.01125 (at node 6)
Accepted flit rate average= 0.00898437
	minimum = 0.0075 (at node 8)
	maximum = 0.011 (at node 7)
Injected packet length average = 1
Accepted packet length average = 1
Total in-flight flits = 2 (2 measured)
latency change    = 0.00678932
throughput change = 0.00637681
Class 0:
Packet latency average = 19.5816
	minimum = 7
	maximum = 50
Network latency average = 19.5816
	minimum = 7
	maximum = 50
Slowest packet = 118543
Flit latency average = 19.588
	minimum = 7
	maximum = 50
Slowest flit = 118543
Fragmentation average = 0
	minimum = 0
	maximum = 0
Injected packet rate average = 0.009425
	minimum = 0.0072 (at node 15)
	maximum = 0.0114 (at node 5)
Accepted packet rate average = 0.009375
	minimum = 0.0072 (at node 15)
	maximum = 0.0114 (at node 5)
Injected flit rate average = 0.009425
	minimum = 0.0072 (at node 15)
	maximum = 0.0114 (at node 5)
Accepted flit rate average= 0.009375
	minimum = 0.0072 (at node 15)
	maximum = 0.0114 (at node 5)
Injected packet length average = 1
Accepted packet length average = 1
Total in-flight flits = 6 (6 measured)
latency change    = 0.00942685
throughput change = 0.0416667
Draining all recorded packets ...
Draining remaining packets ...
Time taken is 8028 cycles
Class 0:
Packet latency average = 20.4012
	minimum = 7
	maximum = 39
Network latency average = 20.4012
	minimum = 7
	maximum = 39
Slowest packet = 118749
Flit latency average = 20.4012
	minimum = 7
	maximum = 39
Slowest flit = 118749
Fragmentation average = 0
	minimum = 0
	maximum = 0
Injected packet rate average = 0.0109375
	minimum = 0.003 (at node 1)
	maximum = 0.019 (at node 8)
Accepted packet rate average = 0.01075
	minimum = 0.003 (at node 4)
	maximum = 0.019 (at node 2)
Injected flit rate average = 0.0109375
	minimum = 0.003 (at node 1)
	maximum = 0.019 (at node 8)
Accepted flit rate average= 0.01075
	minimum = 0.003 (at node 4)
	maximum = 0.019 (at node 2)
Injected packet length average = 1
Accepted packet length average = 1
Total in-flight flits = 3 (0 measured)
latency change    = 1
throughput change = 1
Class 0:
Packet latency average = 19.7628
	minimum = 7
	maximum = 41
Network latency average = 19.7628
	minimum = 7
	maximum = 41
Slowest packet = 118914
Flit latency average = 19.7628
	minimum = 7
	maximum = 41
Slowest flit = 118914
Fragmentation average = 0
	minimum = 0
	maximum = 0
Injected packet rate average = 0.0105
	minimum = 0.0045 (at node 1)
	maximum = 0.0135 (at node 9)
Accepted packet rate average = 0.0104063
	minimum = 0.004 (at node 4)
	maximum = 0.0135 (at node 6)
Injected flit rate average = 0.0105
	minimum = 0.0045 (at node 1)
	maximum = 0.0135 (at node 9)
Accepted flit rate average= 0.0104063
	minimum = 0.004 (at node 4)
	maximum = 0.0135 (at node 6)
Injected packet length average = 1
Accepted packet length average = 1
Total in-flight flits = 3 (0 measured)
latency change    = 0.0323032
throughput change = 0.033033
Class 0:
Packet latency average = 19.8889
	minimum = 7
	maximum = 39
Network latency average = 19.8889
	minimum = 7
	maximum = 39
Slowest packet = 119169
Flit latency average = 19.8889
	minimum = 7
	maximum = 39
Slowest flit = 119169
Fragmentation average = 0
	minimum = 0
	maximum = 0
Injected packet rate average = 0.0096875
	minimum = 0.005 (at node 0)
	maximum = 0.017 (at node 2)
Accepted packet rate average = 0.0095625
	minimum = 0.004 (at node 0)
	maximum = 0.017 (at node 8)
Injected flit rate average = 0.0096875
	minimum = 0.005 (at node 0)
	maximum = 0.017 (at node 2)
Accepted flit rate average= 0.0095625
	minimum = 0.004 (at node 0)
	maximum = 0.017 (at node 8)
Injected packet length average = 1
Accepted packet length average = 1
Total in-flight flits = 5 (0 measured)
latency change    = 0.00634154
throughput change = 0.0882353
Warmed up ...Time used is 3000 cycles
Class 0:
Packet latency average = 18.5608
	minimum = 7
	maximum = 40
Network latency average = 18.5608
	minimum = 7
	maximum = 40
Slowest packet = 119275
Flit latency average = 18.6601
	minimum = 7
	maximum = 40
Slowest flit = 119206
Fragmentation average = 0
	minimum = 0
	maximum = 0
Injected packet rate average = 0.0094375
	minimum = 0.005 (at node 3)
	maximum = 0.014 (at node 6)
Accepted packet rate average = 0.0095625
	minimum = 0.005 (at node 12)
	maximum = 0.015 (at node 11)
Injected flit rate average = 0.0094375
	minimum = 0.005 (at node 3)
	maximum = 0.014 (at node 6)
Accepted flit rate average= 0.0095625
	minimum = 0.005 (at node 12)
	maximum = 0.015 (at node 11)
Injected packet length average = 1
Accepted packet length average = 1
Total in-flight flits = 3 (3 measured)
latency change    = 0.0715528
throughput change = 0
Class 0:
Packet latency average = 18.641
	minimum = 7
	maximum = 48
Network latency average = 18.641
	minimum = 7
	maximum = 48
Slowest packet = 119494
Flit latency average = 18.6877
	minimum = 7
	maximum = 48
Slowest flit = 119494
Fragmentation average = 0
	minimum = 0
	maximum = 0
Injected packet rate average = 0.00984375
	minimum = 0.006 (at node 3)
	maximum = 0.0125 (at node 0)
Accepted packet rate average = 0.00990625
	minimum = 0.006 (at node 12)
	maximum = 0.013 (at node 0)
Injected flit rate average = 0.00984375
	minimum = 0.006 (at node 3)
	maximum = 0.0125 (at node 0)
Accepted flit rate average= 0.00990625
	minimum = 0.006 (at node 12)
	maximum = 0.013 (at node 0)
Injected packet length average = 1
Accepted packet length average = 1
Total in-flight flits = 3 (3 measured)
latency change    = 0.00430313
throughput change = 0.0347003
Class 0:
Packet latency average = 19.0788
	minimum = 7
	maximum = 48
Network latency average = 19.0788
	minimum = 7
	maximum = 48
Slowest packet = 119494
Flit latency average = 19.1061
	minimum = 7
	maximum = 48
Slowest flit = 119494
Fragmentation average = 0
	minimum = 0
	maximum = 0
Injected packet rate average = 0.00960417
	minimum = 0.00666667 (at node 3)
	maximum = 0.0133333 (at node 14)
Accepted packet rate average = 0.009625
	minimum = 0.00633333 (at node 12)
	maximum = 0.014 (at node 11)
Injected flit rate average = 0.00960417
	minimum = 0.00666667 (at node 3)
	maximum = 0.0133333 (at node 14)
Accepted flit rate average= 0.009625
	minimum = 0.00633333 (at node 12)
	maximum = 0.014 (at node 11)
Injected packet length average = 1
Accepted packet length average = 1
Total in-flight flits = 4 (4 measured)
latency change    = 0.0229443
throughput change = 0.0292208
Class 0:
Packet latency average = 19.7005
	minimum = 7
	maximum = 48
Network latency average = 19.7005
	minimum = 7
	maximum = 48
Slowest packet = 119494
Flit latency average = 19.7159
	minimum = 7
	maximum = 48
Slowest flit = 119494
Fragmentation average = 0
	minimum = 0
	maximum = 0
Injected packet rate average = 0.00957812
	minimum = 0.008 (at node 9)
	maximum = 0.01275 (at node 14)
Accepted packet rate average = 0.009625
	minimum = 0.008 (at node 6)
	maximum = 0.01325 (at node 11)
Injected flit rate average = 0.00957812
	minimum = 0.008 (at node 9)
	maximum = 0.01275 (at node 14)
Accepted flit rate average= 0.009625
	minimum = 0.008 (at node 6)
	maximum = 0.01325 (at node 11)
Injected packet length average = 1
Accepted packet length average = 1
Total in-flight flits = 2 (2 measured)
latency change    = 0.0315584
throughput change = 0
Draining all recorded packets ...
Draining remaining packets ...
Time taken is 7063 cycles
Class 0:
Packet latency average = 18.6782
	minimum = 7
	maximum = 42
Network latency average = 18.6782
	minimum = 7
	maximum = 42
Slowest packet = 119933
Flit latency average = 18.6782
	minimum = 7
	maximum = 42
Slowest flit = 119933
Fragmentation average = 0
	minimum = 0
	maximum = 0
Injected packet rate average = 0.01125
	minimum = 0.006 (at node 12)
	maximum = 0.016 (at node 0)
Accepted packet rate average = 0.010875
	minimum = 0.005 (at node 3)
	maximum = 0.016 (at node 15)
Injected flit rate average = 0.01125
	minimum = 0.006 (at node 12)
	maximum = 0.016 (at node 0)
Accepted flit rate average= 0.010875
	minimum = 0.005 (at node 3)
	maximum = 0.016 (at node 15)
Injected packet length average = 1
Accepted packet length average = 1
Total in-flight flits = 6 (0 measured)
latency change    = 1
throughput change = 1
Class 0:
Packet latency average = 19.1955
	minimum = 7
	maximum = 44
Network latency average = 19.1955
	minimum = 7
	maximum = 44
Slowest packet = 120055
Flit latency average = 19.1955
	minimum = 7
	maximum = 44
Slowest flit = 120055
Fragmentation average = 0
	minimum = 0
	maximum = 0
Injected packet rate average = 0.0110625
	minimum = 0.007 (at node 5)
	maximum = 0.0155 (at node 15)
Accepted packet rate average = 0.0110312
	minimum = 0.007 (at node 5)
	maximum = 0.0155 (at node 15)
Injected flit rate average = 0.0110625
	minimum = 0.007 (at node 5)
	maximum = 0.0155 (at node 15)
Accepted flit rate average= 0.0110312
	minimum = 0.007 (at node 5)
	maximum = 0.0155 (at node 15)
Injected packet length average = 1
Accepted packet length average = 1
Total in-flight flits = 1 (0 measured)
latency change    = 0.0269494
throughput change = 0.0141643
Class 0:
Packet latency average = 19.986
	minimum = 7
	maximum = 40
Network latency average = 19.986
	minimum = 7
	maximum = 40
Slowest packet = 120186
Flit latency average = 19.986
	minimum = 7
	maximum = 40
Slowest flit = 120186
Fragmentation average = 0
	minimum = 0
	maximum = 0
Injected packet rate average = 0.0089375
	minimum = 0.004 (at node 7)
	maximum = 0.016 (at node 8)
Accepted packet rate average = 0.0089375
	minimum = 0.004 (at node 13)
	maximum = 0.015 (at node 2)
Injected flit rate average = 0.0089375
	minimum = 0.004 (at node 7)
	maximum = 0.016 (at node 8)
Accepted flit rate average= 0.0089375
	minimum = 0.004 (at node 13)
	maximum = 0.015 (at node 2)
Injected packet length average = 1
Accepted packet length average = 1
Total in-flight flits = 1 (0 measured)
latency change    = 0.039555
throughput change = 0.234266
Warmed up ...Time used is 3000 cycles
Class 0:
Packet latency average = 19.66
	minimum = 7
	maximum = 41
Network latency average = 19.66
	minimum = 7
	maximum = 41
Slowest packet = 120380
Flit latency average = 19.7086
	minimum = 7
	maximum = 41
Slowest flit = 120380
Fragmentation average = 0
	minimum = 0
	maximum = 0
Injected packet rate average = 0.0096875
	minimum = 0.005 (at node 12)
	maximum = 0.016 (at node 11)
Accepted packet rate average = 0.0094375
	minimum = 0.005 (at node 3)
	maximum = 0.016 (at node 14)
Injected flit rate average = 0.0096875
	minimum = 0.005 (at node 12)
	maximum = 0.016 (at node 11)
Accepted flit rate average= 0.0094375
	minimum = 0.005 (at node 3)
	maximum = 0.016 (at node 14)
Injected packet length average = 1
Accepted packet length average = 1
Total in-flight flits = 5 (5 measured)
latency change    = 0.0165826
throughput change = 0.0529801
Class 0:
Packet latency average = 19.7061
	minimum = 7
	maximum = 47
Network latency average = 19.7061
	minimum = 7
	maximum = 47
Slowest packet = 120501
Flit latency average = 19.7293
	minimum = 7
	maximum = 47
Slowest flit = 120501
Fragmentation average = 0
	minimum = 0
	maximum = 0
Injected packet rate average = 0.0098125
	minimum = 0.0075 (at node 13)
	maximum = 0.0135 (at node 11)
Accepted packet rate average = 0.0098125
	minimum = 0.0075 (at node 7)
	maximum = 0.0135 (at node 14)
Injected flit rate average = 0.0098125
	minimum = 0.0075 (at node 13)
	maximum = 0.0135 (at node 11)
Accepted flit rate average= 0.0098125
	minimum = 0.0075 (at node 7)
	maximum = 0.0135 (at node 14)
Injected packet length average = 1
Accepted packet length average = 1
Total in-flight flits = 1 (1 measured)
latency change    = 0.00233787
throughput change = 0.0382166
Class 0:
Packet latency average = 19.385
	minimum = 7
	maximum = 47
Network latency average = 19.385
	minimum = 7
	maximum = 47
Slowest packet = 120501
Flit latency average = 19.4018
	minimum = 7
	maximum = 47
Slowest flit = 120501
Fragmentation average = 0
	minimum = 0
	maximum = 0
Injected packet rate average = 0.00952083
	minimum = 0.00566667 (at node 9)
	maximum = 0.015 (at node 11)
Accepted packet rate average = 0.0094375
	minimum = 0.00566667 (at node 6)
	maximum = 0.0146667 (at node 14)
Injected flit rate average = 0.00952083
	minimum = 0.00566667 (at node 9)
	maximum = 0.015 (at node 11)
Accepted flit rate average= 0.0094375
	minimum = 0.00566667 (at node 6)
	maximum = 0.0146667 (at node 14)
Injected packet length average = 1
Accepted packet length average = 1
Total in-flight flits = 5 (5 measured)
latency change    = 0.0165651
throughput change = 0.0397351
Class 0:
Packet latency average = 19.4212
	minimum = 7
	maximum = 47
Network latency average = 19.4212
	minimum = 7
	maximum = 47
Slowest packet = 120501
Flit latency average = 19.4338
	minimum = 7
	maximum = 47
Slowest flit = 120501
Fragmentation average = 0
	minimum = 0
	maximum = 0
Injected packet rate average = 0.00946875
	minimum = 0.0065 (at node 9)
	maximum = 0.013 (at node 11)
Accepted packet rate average = 0.0094375
	minimum = 0.0065 (at node 6)
	maximum = 0.013 (at node 14)
Injected flit rate average = 0.00946875
	minimum = 0.0065 (at node 9)
	maximum = 0.013 (at node 11)
Accepted flit rate average= 0.0094375
	minimum = 0.0065 (at node 6)
	maximum = 0.013 (at node 14)
Injected packet length average = 1
Accepted packet length average = 1
Total in-flight flits = 3 (3 measured)
latency change    = 0.00186762
throughput change = 0
Draining all recorded packets ...
Draining remaining packets ...
Time taken is 7044 cycles
====== Overall Traffic Statistics ======
====== Traffic class 0 ======
Packet latency average = 19.7273 (100 samples)
	minimum = 7 (100 samples)
	maximum = 48.23 (100 samples)
Network latency average = 19.7273 (100 samples)
	minimum = 7 (100 samples)
	maximum = 48.23 (100 samples)
Flit latency average = 19.7558 (100 samples)
	minimum = 7 (100 samples)
	maximum = 48.25 (100 samples)
Fragmentation average = 0 (100 samples)
	minimum = 0 (100 samples)
	maximum = 0 (100 samples)
Injected packet rate average = 0.00998018 (100 samples)
	minimum = 0.0074791 (100 samples)
	maximum = 0.012849 (100 samples)
Accepted packet rate average = 0.0099822 (100 samples)
	minimum = 0.00747512 (100 samples)
	maximum = 0.0128323 (100 samples)
Injected flit rate average = 0.00998018 (100 samples)
	minimum = 0.0074791 (100 samples)
	maximum = 0.012849 (100 samples)
Accepted flit rate average = 0.0099822 (100 samples)
	minimum = 0.00747512 (100 samples)
	maximum = 0.0128323 (100 samples)
Injected packet size average = 1 (100 samples)
Accepted packet size average = 1 (100 samples)
Hops average = 3.51353 (100 samples)
Total run time 11.785
