BEGIN Configuration File: /tmp/tmp_pgp5gnc.cfg
topology = mesh;
k = 4;
n = 2;
routing_function = valiant;
num_vcs = 4;
vc_buf_size = 4;
wait_for_tail_credit = 1;
vc_allocator = islip;
sw_allocator = islip;
alloc_iters = 1;
credit_delay = 2;
routing_delay = 1;
vc_alloc_delay = 1;
sw_alloc_delay = 1;
input_speedup = 2;
output_speedup = 1;
internal_speedup = 1.0;
traffic = hotspot;
packet_size = 1;
sim_type = latency;
injection_rate = 0.02;
warmup_periods = 3;
sample_period = 1000;
sim_count = 100;
seed = 3;

END Configuration File: /tmp/tmp_pgp5gnc.cfg
Class 0:
Packet latency average = 35.625
	minimum = 7
	maximum = 91
Network latency average = 35.625
	minimum = 7
	maximum = 91
Slowest packet = 197
Flit latency average = 35.625
	minimum = 7
	maximum = 91
Slowest flit = 197
Fragmentation average = 0
	minimum = 0
	maximum = 0
Injected packet rate average = 0.0194375
	minimum = 0.011 (at node 12)
	maximum = 0.032 (at node 13)
Accepted packet rate average = 0.0185
	minimum = 0 (at node 0)
	maximum = 0.296 (at node 11)
Injected flit rate average = 0.0194375
	minimum = 0.011 (at node 12)
	maximum = 0.032 (at node 13)
Accepted flit rate average= 0.0185
	minimum = 0 (at node 0)
	maximum = 0.296 (at node 11)
Injected packet length average = 1
Accepted packet length average = 1
Total in-flight flits = 15 (0 measured)
latency change    = 1
throughput change = 1
Class 0:
Packet latency average = 36.0835
	minimum = 7
	maximum = 110
Network latency average = 36.0835
	minimum = 7
	maximum = 110
Slowest packet = 497
Flit latency average = 36.0835
	minimum = 7
	maximum = 110
Slowest flit = 497
Fragmentation average = 0
	minimum = 0
	maximum = 0
Injected packet rate average = 0.019
	minimum = 0.014 (at node 12)
	maximum = 0.025 (at node 11)
Accepted packet rate average = 0.0187187
	minimum = 0 (at node 0)
	maximum = 0.2995 (at node 11)
Injected flit rate average = 0.019
	minimum = 0.014 (at node 12)
	maximum = 0.025 (at node 11)
Accepted flit rate average= 0.0187187
	minimum = 0 (at node 0)
	maximum = 0.2995 (at node 11)
Injected packet length average = 1
Accepted packet length average = 1
Total in-flight flits = 9 (0 measured)
latency change    = 0.0127059
throughput change = 0.0116861
Class 0:
Packet latency average = 40.3778
	minimum = 12
	maximum = 124
Network latency average = 40.3778
	minimum = 12
	maximum = 124
Slowest packet = 767
Flit latency average = 40.3778
	minimum = 12
	maximum = 124
Slowest flit = 767
Fragmentation average = 0
	minimum = 0
	maximum = 0
Injected packet rate average = 0.019625
	minimum = 0.013 (at node 9)
	maximum = 0.027 (at node 12)
Accepted packet rate average = 0.0196875
	minimum = 0 (at node 0)
	maximum = 0.315 (at node 11)
Injected flit rate average = 0.019625
	minimum = 0.013 (at node 9)
	maximum = 0.027 (at node 12)
Accepted flit rate average= 0.0196875
	minimum = 0 (at node 0)
	maximum = 0.315 (at node 11)
Injected packet length average = 1
Accepted packet length average = 1
Total in-flight flits = 8 (0 measured)
latency change    = 0.106353
throughput change = 0.0492063
Warmed up ...Time used is 3000 cycles
Class 0:
Packet latency average = 35.8247
	minimum = 7
	maximum = 85
Network latency average = 35.8247
	minimum = 7
	maximum = 85
Slowest packet = 962
Flit latency average = 36.0201
	minimum = 7
	maximum = 85
Slowest flit = 962
Fragmentation average = 0
	minimum = 0
	maximum = 0
Injected packet rate average = 0.018875
	minimum = 0.01 (at node 2)
	maximum = 0.027 (at node 8)
Accepted packet rate average = 0.0186875
	minimum = 0 (at node 0)
	maximum = 0.299 (at node 11)
Injected flit rate average = 0.018875
	minimum = 0.01 (at node 2)
	maximum = 0.027 (at node 8)
Accepted flit rate average= 0.0186875
	minimum = 0 (at node 0)
	maximum = 0.299 (at node 11)
Injected packet length average = 1
Accepted packet length average = 1
Total in-flight flits = 11 (11 measured)
latency change    = 0.127092
throughput change = 0.0535117
Class 0:
Packet latency average = 36.5535
	minimum = 7
	maximum = 114
Network latency average = 36.5535
	minimum = 7
	maximum = 114
Slowest packet = 1536
Flit latency average = 36.6329
	minimum = 7
	maximum = 114
Slowest flit = 1536
Fragmentation average = 0
	minimum = 0
	maximum = 0
Injected packet rate average = 0.0207188
	minimum = 0.0155 (at node 2)
	maximum = 0.025 (at node 10)
Accepted packet rate average = 0.0206875
	minimum = 0 (at node 0)
	maximum = 0.331 (at node 11)
Injected flit rate average = 0.0207188
	minimum = 0.0155 (at node 2)
	maximum = 0.025 (at node 10)
Accepted flit rate average= 0.0206875
	minimum = 0 (at node 0)
	maximum = 0.331 (at node 11)
Injected packet length average = 1
Accepted packet length average = 1
Total in-flight flits = 9 (9 measured)
latency change    = 0.0199372
throughput change = 0.0966767
Class 0:
Packet latency average = 36.2239
	minimum = 7
	maximum = 114
Network latency average = 36.2239
	minimum = 7
	maximum = 114
Slowest packet = 1536
Flit latency average = 36.2799
	minimum = 7
	maximum = 114
Slowest flit = 1536
Fragmentation average = 0
	minimum = 0
	maximum = 0
Injected packet rate average = 0.0208125
	minimum = 0.015 (at node 2)
	maximum = 0.0246667 (at node 9)
Accepted packet rate average = 0.0205417
	minimum = 0 (at node 0)
	maximum = 0.328667 (at node 11)
Injected flit rate average = 0.0208125
	minimum = 0.015 (at node 2)
	maximum = 0.0246667 (at node 9)
Accepted flit rate average= 0.0205417
	minimum = 0 (at node 0)
	maximum = 0.328667 (at node 11)
Injected packet length average = 1
Accepted packet length average = 1
Total in-flight flits = 21 (21 measured)
latency change    = 0.00909869
throughput change = 0.00709939
Class 0:
Packet latency average = 36.4538
	minimum = 7
	maximum = 114
Network latency average = 36.4538
	minimum = 7
	maximum = 114
Slowest packet = 1536
Flit latency average = 36.4946
	minimum = 7
	maximum = 114
Slowest flit = 1536
Fragmentation average = 0
	minimum = 0
	maximum = 0
Injected packet rate average = 0.0204531
	minimum = 0.01625 (at node 3)
	maximum = 0.02375 (at node 10)
Accepted packet rate average = 0.0204375
	minimum = 0 (at node 0)
	maximum = 0.327 (at node 11)
Injected flit rate average = 0.0204531
	minimum = 0.01625 (at node 3)
	maximum = 0.02375 (at node 10)
Accepted flit rate average= 0.0204375
	minimum = 0 (at node 0)
	maximum = 0.327 (at node 11)
Injected packet length average = 1
Accepted packet length average = 1
Total in-flight flits = 9 (9 measured)
latency change    = 0.00630715
throughput change = 0.00509684
Class 0:
Packet latency average = 36.619
	minimum = 7
	maximum = 114
Network latency average = 36.619
	minimum = 7
	maximum = 114
Slowest packet = 1536
Flit latency average = 36.6506
	minimum = 7
	maximum = 114
Slowest flit = 1536
Fragmentation average = 0
	minimum = 0
	maximum = 0
Injected packet rate average = 0.020575
	minimum = 0.0166 (at node 3)
	maximum = 0.0234 (at node 5)
Accepted packet rate average = 0.0205375
	minimum = 0 (at node 0)
	maximum = 0.3286 (at node 11)
Injected flit rate average = 0.020575
	minimum = 0.0166 (at node 3)
	maximum = 0.0234 (at node 5)
Accepted flit rate average= 0.0205375
	minimum = 0 (at node 0)
	maximum = 0.3286 (at node 11)
Injected packet length average = 1
Accepted packet length average = 1
Total in-flight flits = 11 (11 measured)
latency change    = 0.00450898
throughput change = 0.00486914
Draining all recorded packets ...
Draining remaining packets ...
Time taken is 8096 cycles
Class 0:
Packet latency average = 39.7924
	minimum = 7
	maximum = 154
Network latency average = 39.7924
	minimum = 7
	maximum = 154
Slowest packet = 2818
Flit latency average = 39.7924
	minimum = 7
	maximum = 154
Slowest flit = 2818
Fragmentation average = 0
	minimum = 0
	maximum = 0
Injected packet rate average = 0.022
	minimum = 0.01 (at node 8)
	maximum = 0.028 (at node 6)
Accepted packet rate average = 0.021375
	minimum = 0 (at node 0)
	maximum = 0.342 (at node 11)
Injected flit rate average = 0.022
	minimum = 0.01 (at node 8)
	maximum = 0.028 (at node 6)
Accepted flit rate average= 0.021375
	minimum = 0 (at node 0)
	maximum = 0.342 (at node 11)
Injected packet length average = 1
Accepted packet length average = 1
Total in-flight flits = 10 (0 measured)
latency change    = 1
throughput change = 1
Class 0:
Packet latency average = 38.3253
	minimum = 7
	maximum = 154
Network latency average = 38.3253
	minimum = 7
	maximum = 154
Slowest packet = 2818
Flit latency average = 38.3253
	minimum = 7
	maximum = 154
Slowest flit = 2818
Fragmentation average = 0
	minimum = 0
	maximum = 0
Injected packet rate average = 0.0211563
	minimum = 0.013 (at node 8)
	maximum = 0.024 (at node 4)
Accepted packet rate average = 0.02075
	minimum = 0 (at node 0)
	maximum = 0.332 (at node 11)
Injected flit rate average = 0.0211563
	minimum = 0.013 (at node 8)
	maximum = 0.024 (at node 4)
Accepted flit rate average= 0.02075
	minimum = 0 (at node 0)
	maximum = 0.332 (at node 11)
Injected packet length average = 1
Accepted packet length average = 1
Total in-flight flits = 13 (0 measured)
latency change    = 0.0382801
throughput change = 0.0301205
Class 0:
Packet latency average = 36.0495
	minimum = 7
	maximum = 82
Network latency average = 36.0495
	minimum = 7
	maximum = 82
Slowest packet = 3250
Flit latency average = 36.0495
	minimum = 7
	maximum = 82
Slowest flit = 3250
Fragmentation average = 0
	minimum = 0
	maximum = 0
Injected packet rate average = 0.02025
	minimum = 0.014 (at node 1)
	maximum = 0.027 (at node 14)
Accepted packet rate average = 0.0201875
	minimum = 0 (at node 0)
	maximum = 0.323 (at node 11)
Injected flit rate average = 0.02025
	minimum = 0.014 (at node 1)
	maximum = 0.027 (at node 14)
Accepted flit rate average= 0.0201875
	minimum = 0 (at node 0)
	maximum = 0.323 (at node 11)
Injected packet length average = 1
Accepted packet length average = 1
Total in-flight flits = 14 (0 measured)
latency change    = 0.0631288
throughput change = 0.0278638
Warmed up ...Time used is 3000 cycles
Class 0:
Packet latency average = 34.2518
	minimum = 12
	maximum = 66
Network latency average = 34.2518
	minimum = 12
	maximum = 66
Slowest packet = 3849
Flit latency average = 34.5304
	minimum = 12
	maximum = 66
Slowest flit = 3849
Fragmentation average = 0
	minimum = 0
	maximum = 0
Injected packet rate average = 0.0183125
	minimum = 0.014 (at node 2)
	maximum = 0.027 (at node 1)
Accepted packet rate average = 0.0185
	minimum = 0 (at node 0)
	maximum = 0.296 (at node 11)
Injected flit rate average = 0.0183125
	minimum = 0.014 (at node 2)
	maximum = 0.027 (at node 1)
Accepted flit rate average= 0.0185
	minimum = 0 (at node 0)
	maximum = 0.296 (at node 11)
Injected packet length average = 1
Accepted packet length average = 1
Total in-flight flits = 11 (11 measured)
latency change    = 0.0524867
throughput change = 0.0912162
Class 0:
Packet latency average = 38.2407
	minimum = 7
	maximum = 139
Network latency average = 38.2407
	minimum = 7
	maximum = 139
Slowest packet = 3892
Flit latency average = 38.283
	minimum = 7
	maximum = 139
Slowest flit = 3892
Fragmentation average = 0
	minimum = 0
	maximum = 0
Injected packet rate average = 0.0195312
	minimum = 0.014 (at node 15)
	maximum = 0.0265 (at node 1)
Accepted packet rate average = 0.0196563
	minimum = 0 (at node 0)
	maximum = 0.3145 (at node 11)
Injected flit rate average = 0.0195312
	minimum = 0.014 (at node 15)
	maximum = 0.0265 (at node 1)
Accepted flit rate average= 0.0196563
	minimum = 0 (at node 0)
	maximum = 0.3145 (at node 11)
Injected packet length average = 1
Accepted packet length average = 1
Total in-flight flits = 10 (10 measured)
latency change    = 0.10431
throughput change = 0.0588235
Class 0:
Packet latency average = 42.6816
	minimum = 7
	maximum = 266
Network latency average = 42.6816
	minimum = 7
	maximum = 266
Slowest packet = 4411
Flit latency average = 42.6451
	minimum = 7
	maximum = 266
Slowest flit = 4411
Fragmentation average = 0
	minimum = 0
	maximum = 0
Injected packet rate average = 0.0202083
	minimum = 0.017 (at node 10)
	maximum = 0.025 (at node 5)
Accepted packet rate average = 0.02025
	minimum = 0 (at node 0)
	maximum = 0.324 (at node 11)
Injected flit rate average = 0.0202083
	minimum = 0.017 (at node 10)
	maximum = 0.025 (at node 5)
Accepted flit rate average= 0.02025
	minimum = 0 (at node 0)
	maximum = 0.324 (at node 11)
Injected packet length average = 1
Accepted packet length average = 1
Total in-flight flits = 12 (12 measured)
latency change    = 0.104049
throughput change = 0.029321
Class 0:
Packet latency average = 40.7622
	minimum = 7
	maximum = 266
Network latency average = 40.7622
	minimum = 7
	maximum = 266
Slowest packet = 4411
Flit latency average = 40.7555
	minimum = 7
	maximum = 266
Slowest flit = 4411
Fragmentation average = 0
	minimum = 0
	maximum = 0
Injected packet rate average = 0.0199688
	minimum = 0.01575 (at node 13)
	maximum = 0.025 (at node 5)
Accepted packet rate average = 0.0200625
	minimum = 0 (at node 0)
	maximum = 0.321 (at node 11)
Injected flit rate average = 0.0199688
	minimum = 0.01575 (at node 13)
	maximum = 0.025 (at node 5)
Accepted flit rate average= 0.0200625
	minimum = 0 (at node 0)
	maximum = 0.321 (at node 11)
Injected packet length average = 1
Accepted packet length average = 1
Total in-flight flits = 8 (8 measured)
latency change    = 0.0470883
throughput change = 0.00934579
Class 0:
Packet latency average = 40.3201
	minimum = 7
	maximum = 266
Network latency average = 40.3201
	minimum = 7
	maximum = 266
Slowest packet = 4411
Flit latency average = 40.3186
	minimum = 7
	maximum = 266
Slowest flit = 4411
Fragmentation average = 0
	minimum = 0
	maximum = 0
Injected packet rate average = 0.0199875
	minimum = 0.017 (at node 15)
	maximum = 0.0238 (at node 1)
Accepted packet rate average = 0.02005
	minimum = 0 (at node 0)
	maximum = 0.3208 (at node 11)
Injected flit rate average = 0.0199875
	minimum = 0.017 (at node 15)
	maximum = 0.0238 (at node 1)
Accepted flit rate average= 0.02005
	minimum = 0 (at node 0)
	maximum = 0.3208 (at node 11)
Injected packet length average = 1
Accepted packet length average = 1
Total in-flight flits = 9 (9 measured)
latency change    = 0.0109642
throughput change = 0.000623441
Class 0:
Packet latency average = 40.2328
	minimum = 7
	maximum = 266
Network latency average = 40.2328
	minimum = 7
	maximum = 266
Slowest packet = 4411
Flit latency average = 40.2322
	minimum = 7
	maximum = 266
Slowest flit = 4411
Fragmentation average = 0
	minimum = 0
	maximum = 0
Injected packet rate average = 0.0203438
	minimum = 0.0175 (at node 15)
	maximum = 0.0233333 (at node 3)
Accepted packet rate average = 0.0203229
	minimum = 0 (at node 0)
	maximum = 0.325167 (at node 11)
Injected flit rate average = 0.0203438
	minimum = 0.0175 (at node 15)
	maximum = 0.0233333 (at node 3)
Accepted flit rate average= 0.0203229
	minimum = 0 (at node 0)
	maximum = 0.325167 (at node 11)
Injected packet length average = 1
Accepted packet length average = 1
Total in-flight flits = 16 (16 measured)
latency change    = 0.00216966
throughput change = 0.013429
Draining all recorded packets ...
Draining remaining packets ...
Time taken is 9139 cycles
Class 0:
Packet latency average = 37.8197
	minimum = 7
	maximum = 102
Network latency average = 37.8197
	minimum = 7
	maximum = 102
Slowest packet = 5653
Flit latency average = 37.8197
	minimum = 7
	maximum = 102
Slowest flit = 5653
Fragmentation average = 0
	minimum = 0
	maximum = 0
Injected packet rate average = 0.0201875
	minimum = 0.01 (at node 8)
	maximum = 0.028 (at node 6)
Accepted packet rate average = 0.0190625
	minimum = 0 (at node 0)
	maximum = 0.305 (at node 11)
Injected flit rate average = 0.0201875
	minimum = 0.01 (at node 8)
	maximum = 0.028 (at node 6)
Accepted flit rate average= 0.0190625
	minimum = 0 (at node 0)
	maximum = 0.305 (at node 11)
Injected packet length average = 1
Accepted packet length average = 1
Total in-flight flits = 18 (0 measured)
latency change    = 1
throughput change = 1
Class 0:
Packet latency average = 38.9301
	minimum = 7
	maximum = 136
Network latency average = 38.9301
	minimum = 7
	maximum = 136
Slowest packet = 6091
Flit latency average = 38.9301
	minimum = 7
	maximum = 136
Slowest flit = 6091
Fragmentation average = 0
	minimum = 0
	maximum = 0
Injected packet rate average = 0.0205
	minimum = 0.014 (at node 8)
	maximum = 0.0265 (at node 6)
Accepted packet rate average = 0.020125
	minimum = 0 (at node 0)
	maximum = 0.322 (at node 11)
Injected flit rate average = 0.0205
	minimum = 0.014 (at node 8)
	maximum = 0.0265 (at node 6)
Accepted flit rate average= 0.020125
	minimum = 0 (at node 0)
	maximum = 0.322 (at node 11)
Injected packet length average = 1
Accepted packet length average = 1
Total in-flight flits = 12 (0 measured)
latency change    = 0.0285242
throughput change = 0.052795
Class 0:
Packet latency average = 35.9556
	minimum = 7
	maximum = 90
Network latency average = 35.9556
	minimum = 7
	maximum = 90
Slowest packet = 6276
Flit latency average = 35.9556
	minimum = 7
	maximum = 90
Slowest flit = 6276
Fragmentation average = 0
	minimum = 0
	maximum = 0
Injected packet rate average = 0.0214375
	minimum = 0.014 (at node 2)
	maximum = 0.027 (at node 5)
Accepted packet rate average = 0.021125
	minimum = 0 (at node 0)
	maximum = 0.338 (at node 11)
Injected flit rate average = 0.0214375
	minimum = 0.014 (at node 2)
	maximum = 0.027 (at node 5)
Accepted flit rate average= 0.021125
	minimum = 0 (at node 0)
	maximum = 0.338 (at node 11)
Injected packet length average = 1
Accepted packet length average = 1
Total in-flight flits = 17 (0 measured)
latency change    = 0.0827271
throughput change = 0.0473373
Warmed up ...Time used is 3000 cycles
Class 0:
Packet latency average = 37.0977
	minimum = 12
	maximum = 117
Network latency average = 37.0977
	minimum = 12
	maximum = 117
Slowest packet = 6610
Flit latency average = 37.6914
	minimum = 12
	maximum = 117
Slowest flit = 6610
Fragmentation average = 0
	minimum = 0
	maximum = 0
Injected packet rate average = 0.0200625
	minimum = 0.01 (at node 9)
	maximum = 0.028 (at node 12)
Accepted packet rate average = 0.02025
	minimum = 0 (at node 0)
	maximum = 0.324 (at node 11)
Injected flit rate average = 0.0200625
	minimum = 0.01 (at node 9)
	maximum = 0.028 (at node 12)
Accepted flit rate average= 0.02025
	minimum = 0 (at node 0)
	maximum = 0.324 (at node 11)
Injected packet length average = 1
Accepted packet length average = 1
Total in-flight flits = 14 (14 measured)
latency change    = 0.0307862
throughput change = 0.0432099
Class 0:
Packet latency average = 38.2267
	minimum = 7
	maximum = 117
Network latency average = 38.2267
	minimum = 7
	maximum = 117
Slowest packet = 6610
Flit latency average = 38.4887
	minimum = 7
	maximum = 117
Slowest flit = 6610
Fragmentation average = 0
	minimum = 0
	maximum = 0
Injected packet rate average = 0.0205625
	minimum = 0.0165 (at node 9)
	maximum = 0.027 (at node 12)
Accepted packet rate average = 0.0206563
	minimum = 0 (at node 0)
	maximum = 0.3305 (at node 11)
Injected flit rate average = 0.0205625
	minimum = 0.0165 (at node 9)
	maximum = 0.027 (at node 12)
Accepted flit rate average= 0.0206563
	minimum = 0 (at node 0)
	maximum = 0.3305 (at node 11)
Injected packet length average = 1
Accepted packet length average = 1
Total in-flight flits = 14 (14 measured)
latency change    = 0.029534
throughput change = 0.0196672
Class 0:
Packet latency average = 37.8045
	minimum = 7
	maximum = 117
Network latency average = 37.8045
	minimum = 7
	maximum = 117
Slowest packet = 6610
Flit latency average = 37.9869
	minimum = 7
	maximum = 117
Slowest flit = 6610
Fragmentation average = 0
	minimum = 0
	maximum = 0
Injected packet rate average = 0.0204167
	minimum = 0.017 (at node 7)
	maximum = 0.023 (at node 12)
Accepted packet rate average = 0.0206042
	minimum = 0 (at node 0)
	maximum = 0.329667 (at node 11)
Injected flit rate average = 0.0204167
	minimum = 0.017 (at node 7)
	maximum = 0.023 (at node 12)
Accepted flit rate average= 0.0206042
	minimum = 0 (at node 0)
	maximum = 0.329667 (at node 11)
Injected packet length average = 1
Accepted packet length average = 1
Total in-flight flits = 8 (8 measured)
latency change    = 0.0111675
throughput change = 0.00252781
Draining all recorded packets ...
Draining remaining packets ...
Time taken is 6064 cycles
Class 0:
Packet latency average = 37.9907
	minimum = 7
	maximum = 98
Network latency average = 37.9907
	minimum = 7
	maximum = 98
Slowest packet = 7753
Flit latency average = 37.9907
	minimum = 7
	maximum = 98
Slowest flit = 7753
Fragmentation average = 0
	minimum = 0
	maximum = 0
Injected packet rate average = 0.021125
	minimum = 0.014 (at node 5)
	maximum = 0.038 (at node 2)
Accepted packet rate average = 0.02025
	minimum = 0 (at node 0)
	maximum = 0.324 (at node 11)
Injected flit rate average = 0.021125
	minimum = 0.014 (at node 5)
	maximum = 0.038 (at node 2)
Accepted flit rate average= 0.02025
	minimum = 0 (at node 0)
	maximum = 0.324 (at node 11)
Injected packet length average = 1
Accepted packet length average = 1
Total in-flight flits = 14 (0 measured)
latency change    = 1
throughput change = 1
Class 0:
Packet latency average = 37.2231
	minimum = 7
	maximum = 98
Network latency average = 37.2231
	minimum = 7
	maximum = 98
Slowest packet = 7753
Flit latency average = 37.2231
	minimum = 7
	maximum = 98
Slowest flit = 7753
Fragmentation average = 0
	minimum = 0
	maximum = 0
Injected packet rate average = 0.0205313
	minimum = 0.015 (at node 5)
	maximum = 0.028 (at node 2)
Accepted packet rate average = 0.0200313
	minimum = 0 (at node 0)
	maximum = 0.3205 (at node 11)
Injected flit rate average = 0.0205313
	minimum = 0.015 (at node 5)
	maximum = 0.028 (at node 2)
Accepted flit rate average= 0.0200313
	minimum = 0 (at node 0)
	maximum = 0.3205 (at node 11)
Injected packet length average = 1
Accepted packet length average = 1
Total in-flight flits = 16 (0 measured)
latency change    = 0.020623
throughput change = 0.0109204
Class 0:
Packet latency average = 34.858
	minimum = 7
	maximum = 94
Network latency average = 34.858
	minimum = 7
	maximum = 94
Slowest packet = 8279
Flit latency average = 34.858
	minimum = 7
	maximum = 94
Slowest flit = 8279
Fragmentation average = 0
	minimum = 0
	maximum = 0
Injected packet rate average = 0.0196875
	minimum = 0.014 (at node 2)
	maximum = 0.026 (at node 13)
Accepted packet rate average = 0.0198125
	minimum = 0 (at node 0)
	maximum = 0.317 (at node 11)
Injected flit rate average = 0.0196875
	minimum = 0.014 (at node 2)
	maximum = 0.026 (at node 13)
Accepted flit rate average= 0.0198125
	minimum = 0 (at node 0)
	maximum = 0.317 (at node 11)
Injected packet length average = 1
Accepted packet length average = 1
Total in-flight flits = 14 (0 measured)
latency change    = 0.0678479
throughput change = 0.011041
Warmed up ...Time used is 3000 cycles
Class 0:
Packet latency average = 41.9322
	minimum = 7
	maximum = 149
Network latency average = 41.9322
	minimum = 7
	maximum = 149
Slowest packet = 8700
Flit latency average = 41.9972
	minimum = 7
	maximum = 149
Slowest flit = 8700
Fragmentation average = 0
	minimum = 0
	maximum = 0
Injected packet rate average = 0.0225625
	minimum = 0.016 (at node 1)
	maximum = 0.03 (at node 7)
Accepted packet rate average = 0.0220625
	minimum = 0 (at node 0)
	maximum = 0.353 (at node 11)
Injected flit rate average = 0.0225625
	minimum = 0.016 (at node 1)
	maximum = 0.03 (at node 7)
Accepted flit rate average= 0.0220625
	minimum = 0 (at node 0)
	maximum = 0.353 (at node 11)
Injected packet length average = 1
Accepted packet length average = 1
Total in-flight flits = 22 (22 measured)
latency change    = 0.168704
throughput change = 0.101983
Class 0:
Packet latency average = 40.232
	minimum = 7
	maximum = 149
Network latency average = 40.232
	minimum = 7
	maximum = 149
Slowest packet = 8700
Flit latency average = 40.3006
	minimum = 7
	maximum = 149
Slowest flit = 8700
Fragmentation average = 0
	minimum = 0
	maximum = 0
Injected packet rate average = 0.0214375
	minimum = 0.0145 (at node 1)
	maximum = 0.0255 (at node 7)
Accepted packet rate average = 0.0213125
	minimum = 0 (at node 0)
	maximum = 0.341 (at node 11)
Injected flit rate average = 0.0214375
	minimum = 0.0145 (at node 1)
	maximum = 0.0255 (at node 7)
Accepted flit rate average= 0.0213125
	minimum = 0 (at node 0)
	maximum = 0.341 (at node 11)
Injected packet length average = 1
Accepted packet length average = 1
Total in-flight flits = 18 (18 measured)
latency change    = 0.0422578
throughput change = 0.0351906
Class 0:
Packet latency average = 38.9147
	minimum = 7
	maximum = 149
Network latency average = 38.9147
	minimum = 7
	maximum = 149
Slowest packet = 8700
Flit latency average = 38.9815
	minimum = 7
	maximum = 149
Slowest flit = 8700
Fragmentation average = 0
	minimum = 0
	maximum = 0
Injected packet rate average = 0.020125
	minimum = 0.015 (at node 1)
	maximum = 0.0236667 (at node 8)
Accepted packet rate average = 0.0203125
	minimum = 0 (at node 0)
	maximum = 0.325 (at node 11)
Injected flit rate average = 0.020125
	minimum = 0.015 (at node 1)
	maximum = 0.0236667 (at node 8)
Accepted flit rate average= 0.0203125
	minimum = 0 (at node 0)
	maximum = 0.325 (at node 11)
Injected packet length average = 1
Accepted packet length average = 1
Total in-flight flits = 5 (5 measured)
latency change    = 0.0338526
throughput change = 0.0492308
Class 0:
Packet latency average = 38.9686
	minimum = 7
	maximum = 155
Network latency average = 38.9686
	minimum = 7
	maximum = 155
Slowest packet = 9595
Flit latency average = 39.0186
	minimum = 7
	maximum = 155
Slowest flit = 9595
Fragmentation average = 0
	minimum = 0
	maximum = 0
Injected packet rate average = 0.0201563
	minimum = 0.01725 (at node 5)
	maximum = 0.0235 (at node 6)
Accepted packet rate average = 0.020125
	minimum = 0 (at node 0)
	maximum = 0.322 (at node 11)
Injected flit rate average = 0.0201563
	minimum = 0.01725 (at node 5)
	maximum = 0.0235 (at node 6)
Accepted flit rate average= 0.020125
	minimum = 0 (at node 0)
	maximum = 0.322 (at node 11)
Injected packet length average = 1
Accepted packet length average = 1
Total in-flight flits = 16 (16 measured)
latency change    = 0.00138395
throughput change = 0.00931677
Draining all recorded packets ...
Draining remaining packets ...
Time taken is 7109 cycles
Class 0:
Packet latency average = 35.7066
	minimum = 9
	maximum = 115
Network latency average = 35.7066
	minimum = 9
	maximum = 115
Slowest packet = 9929
Flit latency average = 35.7066
	minimum = 9
	maximum = 115
Slowest flit = 9929
Fragmentation average = 0
	minimum = 0
	maximum = 0
Injected packet rate average = 0.02075
	minimum = 0.015 (at node 11)
	maximum = 0.028 (at node 6)
Accepted packet rate average = 0.0198125
	minimum = 0 (at node 0)
	maximum = 0.317 (at node 11)
Injected flit rate average = 0.02075
	minimum = 0.015 (at node 11)
	maximum = 0.028 (at node 6)
Accepted flit rate average= 0.0198125
	minimum = 0 (at node 0)
	maximum = 0.317 (at node 11)
Injected packet length average = 1
Accepted packet length average = 1
Total in-flight flits = 15 (0 measured)
latency change    = 1
throughput change = 1
Class 0:
Packet latency average = 35.4205
	minimum = 9
	maximum = 115
Network latency average = 35.4205
	minimum = 9
	maximum = 115
Slowest packet = 9929
Flit latency average = 35.4205
	minimum = 9
	maximum = 115
Slowest flit = 9929
Fragmentation average = 0
	minimum = 0
	maximum = 0
Injected packet rate average = 0.0195938
	minimum = 0.0155 (at node 11)
	maximum = 0.026 (at node 12)
Accepted packet rate average = 0.01925
	minimum = 0 (at node 0)
	maximum = 0.308 (at node 11)
Injected flit rate average = 0.0195938
	minimum = 0.0155 (at node 11)
	maximum = 0.026 (at node 12)
Accepted flit rate average= 0.01925
	minimum = 0 (at node 0)
	maximum = 0.308 (at node 11)
Injected packet length average = 1
Accepted packet length average = 1
Total in-flight flits = 11 (0 measured)
latency change    = 0.00807923
throughput change = 0.0292208
Class 0:
Packet latency average = 39.4286
	minimum = 7
	maximum = 147
Network latency average = 39.4286
	minimum = 7
	maximum = 147
Slowest packet = 10635
Flit latency average = 39.4286
	minimum = 7
	maximum = 147
Slowest flit = 10635
Fragmentation average = 0
	minimum = 0
	maximum = 0
Injected packet rate average = 0.0190625
	minimum = 0.011 (at node 8)
	maximum = 0.028 (at node 6)
Accepted packet rate average = 0.0188125
	minimum = 0 (at node 0)
	maximum = 0.301 (at node 11)
Injected flit rate average = 0.0190625
	minimum = 0.011 (at node 8)
	maximum = 0.028 (at node 6)
Accepted flit rate average= 0.0188125
	minimum = 0 (at node 0)
	maximum = 0.301 (at node 11)
Injected packet length average = 1
Accepted packet length average = 1
Total in-flight flits = 15 (0 measured)
latency change    = 0.101655
throughput change = 0.0232558
Warmed up ...Time used is 3000 cycles
Class 0:
Packet latency average = 41.3735
	minimum = 7
	maximum = 154
Network latency average = 41.3735
	minimum = 7
	maximum = 154
Slowest packet = 10882
Flit latency average = 41.5965
	minimum = 7
	maximum = 154
Slowest flit = 10882
Fragmentation average = 0
	minimum = 0
	maximum = 0
Injected packet rate average = 0.0216875
	minimum = 0.015 (at node 14)
	maximum = 0.029 (at node 1)
Accepted packet rate average = 0.0216875
	minimum = 0 (at node 0)
	maximum = 0.347 (at node 11)
Injected flit rate average = 0.0216875
	minimum = 0.015 (at node 14)
	maximum = 0.029 (at node 1)
Accepted flit rate average= 0.0216875
	minimum = 0 (at node 0)
	maximum = 0.347 (at node 11)
Injected packet length average = 1
Accepted packet length average = 1
Total in-flight flits = 15 (15 measured)
latency change    = 0.0470089
throughput change = 0.132565
Class 0:
Packet latency average = 38.4907
	minimum = 7
	maximum = 154
Network latency average = 38.4907
	minimum = 7
	maximum = 154
Slowest packet = 10882
Flit latency average = 38.6732
	minimum = 7
	maximum = 154
Slowest flit = 10882
Fragmentation average = 0
	minimum = 0
	maximum = 0
Injected packet rate average = 0.0205625
	minimum = 0.0165 (at node 3)
	maximum = 0.0265 (at node 1)
Accepted packet rate average = 0.0206563
	minimum = 0 (at node 0)
	maximum = 0.3305 (at node 11)
Injected flit rate average = 0.0205625
	minimum = 0.0165 (at node 3)
	maximum = 0.0265 (at node 1)
Accepted flit rate average= 0.0206563
	minimum = 0 (at node 0)
	maximum = 0.3305 (at node 11)
Injected packet length average = 1
Accepted packet length average = 1
Total in-flight flits = 12 (12 measured)
latency change    = 0.0748955
throughput change = 0.0499244
Class 0:
Packet latency average = 37.1179
	minimum = 7
	maximum = 154
Network latency average = 37.1179
	minimum = 7
	maximum = 154
Slowest packet = 10882
Flit latency average = 37.2617
	minimum = 7
	maximum = 154
Slowest flit = 10882
Fragmentation average = 0
	minimum = 0
	maximum = 0
Injected packet rate average = 0.0204375
	minimum = 0.0156667 (at node 3)
	maximum = 0.0246667 (at node 1)
Accepted packet rate average = 0.0204583
	minimum = 0 (at node 0)
	maximum = 0.327333 (at node 11)
Injected flit rate average = 0.0204375
	minimum = 0.0156667 (at node 3)
	maximum = 0.0246667 (at node 1)
Accepted flit rate average= 0.0204583
	minimum = 0 (at node 0)
	maximum = 0.327333 (at node 11)
Injected packet length average = 1
Accepted packet length average = 1
Total in-flight flits = 14 (14 measured)
latency change    = 0.0369854
throughput change = 0.00967413
Class 0:
Packet latency average = 36.7933
	minimum = 7
	maximum = 154
Network latency average = 36.7933
	minimum = 7
	maximum = 154
Slowest packet = 10882
Flit latency average = 36.9063
	minimum = 7
	maximum = 154
Slowest flit = 10882
Fragmentation average = 0
	minimum = 0
	maximum = 0
Injected packet rate average = 0.0201406
	minimum = 0.01575 (at node 3)
	maximum = 0.023 (at node 1)
Accepted packet rate average = 0.0201875
	minimum = 0 (at node 0)
	maximum = 0.323 (at node 11)
Injected flit rate average = 0.0201406
	minimum = 0.01575 (at node 3)
	maximum = 0.023 (at node 1)
Accepted flit rate average= 0.0201875
	minimum = 0 (at node 0)
	maximum = 0.323 (at node 11)
Injected packet length average = 1
Accepted packet length average = 1
Total in-flight flits = 12 (12 measured)
latency change    = 0.00882294
throughput change = 0.0134159
Class 0:
Packet latency average = 39.6302
	minimum = 7
	maximum = 298
Network latency average = 39.6302
	minimum = 7
	maximum = 298
Slowest packet = 12271
Flit latency average = 39.6925
	minimum = 7
	maximum = 298
Slowest flit = 12271
Fragmentation average = 0
	minimum = 0
	maximum = 0
Injected packet rate average = 0.0207
	minimum = 0.0174 (at node 10)
	maximum = 0.0236 (at node 15)
Accepted packet rate average = 0.020775
	minimum = 0 (at node 0)
	maximum = 0.3324 (at node 11)
Injected flit rate average = 0.0207
	minimum = 0.0174 (at node 10)
	maximum = 0.0236 (at node 15)
Accepted flit rate average= 0.020775
	minimum = 0 (at node 0)
	maximum = 0.3324 (at node 11)
Injected packet length average = 1
Accepted packet length average = 1
Total in-flight flits = 9 (9 measured)
latency change    = 0.071586
throughput change = 0.0282792
Class 0:
Packet latency average = 39.309
	minimum = 7
	maximum = 298
Network latency average = 39.309
	minimum = 7
	maximum = 298
Slowest packet = 12271
Flit latency average = 39.3635
	minimum = 7
	maximum = 298
Slowest flit = 12271
Fragmentation average = 0
	minimum = 0
	maximum = 0
Injected packet rate average = 0.0206979
	minimum = 0.018 (at node 10)
	maximum = 0.0233333 (at node 6)
Accepted packet rate average = 0.0206875
	minimum = 0 (at node 0)
	maximum = 0.331 (at node 11)
Injected flit rate average = 0.0206979
	minimum = 0.018 (at node 10)
	maximum = 0.0233333 (at node 6)
Accepted flit rate average= 0.0206875
	minimum = 0 (at node 0)
	maximum = 0.331 (at node 11)
Injected packet length average = 1
Accepted packet length average = 1
Total in-flight flits = 16 (16 measured)
latency change    = 0.0081726
throughput change = 0.00422961
Class 0:
Packet latency average = 40.0545
	minimum = 7
	maximum = 298
Network latency average = 40.0545
	minimum = 7
	maximum = 298
Slowest packet = 12271
Flit latency average = 40.0965
	minimum = 7
	maximum = 298
Slowest flit = 12271
Fragmentation average = 0
	minimum = 0
	maximum = 0
Injected packet rate average = 0.020625
	minimum = 0.0181429 (at node 10)
	maximum = 0.0232857 (at node 6)
Accepted packet rate average = 0.020625
	minimum = 0 (at node 0)
	maximum = 0.33 (at node 11)
Injected flit rate average = 0.020625
	minimum = 0.0181429 (at node 10)
	maximum = 0.0232857 (at node 6)
Accepted flit rate average= 0.020625
	minimum = 0 (at node 0)
	maximum = 0.33 (at node 11)
Injected packet length average = 1
Accepted packet length average = 1
Total in-flight flits = 15 (15 measured)
latency change    = 0.0186118
throughput change = 0.0030303
Draining all recorded packets ...
Draining remaining packets ...
Time taken is 10126 cycles
Class 0:
Packet latency average = 33.8049
	minimum = 7
	maximum = 76
Network latency average = 33.8049
	minimum = 7
	maximum = 76
Slowest packet = 13293
Flit latency average = 33.8049
	minimum = 7
	maximum = 76
Slowest flit = 13293
Fragmentation average = 0
	minimum = 0
	maximum = 0
Injected packet rate average = 0.0188125
	minimum = 0.014 (at node 6)
	maximum = 0.026 (at node 13)
Accepted packet rate average = 0.0179375
	minimum = 0 (at node 0)
	maximum = 0.287 (at node 11)
Injected flit rate average = 0.0188125
	minimum = 0.014 (at node 6)
	maximum = 0.026 (at node 13)
Accepted flit rate average= 0.0179375
	minimum = 0 (at node 0)
	maximum = 0.287 (at node 11)
Injected packet length average = 1
Accepted packet length average = 1
Total in-flight flits = 14 (0 measured)
latency change    = 1
throughput change = 1
Class 0:
Packet latency average = 35.0974
	minimum = 7
	maximum = 85
Network latency average = 35.0974
	minimum = 7
	maximum = 85
Slowest packet = 13539
Flit latency average = 35.0974
	minimum = 7
	maximum = 85
Slowest flit = 13539
Fragmentation average = 0
	minimum = 0
	maximum = 0
Injected packet rate average = 0.0195
	minimum = 0.015 (at node 7)
	maximum = 0.025 (at node 13)
Accepted packet rate average = 0.01925
	minimum = 0 (at node 0)
	maximum = 0.308 (at node 11)
Injected flit rate average = 0.0195
	minimum = 0.015 (at node 7)
	maximum = 0.025 (at node 13)
Accepted flit rate average= 0.01925
	minimum = 0 (at node 0)
	maximum = 0.308 (at node 11)
Injected packet length average = 1
Accepted packet length average = 1
Total in-flight flits = 8 (0 measured)
latency change    = 0.0368268
throughput change = 0.0681818
Class 0:
Packet latency average = 34.8594
	minimum = 7
	maximum = 73
Network latency average = 34.8594
	minimum = 7
	maximum = 73
Slowest packet = 13809
Flit latency average = 34.8594
	minimum = 7
	maximum = 73
Slowest flit = 13809
Fragmentation average = 0
	minimum = 0
	maximum = 0
Injected packet rate average = 0.0200625
	minimum = 0.012 (at node 15)
	maximum = 0.028 (at node 7)
Accepted packet rate average = 0.02
	minimum = 0 (at node 0)
	maximum = 0.32 (at node 11)
Injected flit rate average = 0.0200625
	minimum = 0.012 (at node 15)
	maximum = 0.028 (at node 7)
Accepted flit rate average= 0.02
	minimum = 0 (at node 0)
	maximum = 0.32 (at node 11)
Injected packet length average = 1
Accepted packet length average = 1
Total in-flight flits = 9 (0 measured)
latency change    = 0.00682822
throughput change = 0.0375
Warmed up ...Time used is 3000 cycles
Class 0:
Packet latency average = 41.6289
	minimum = 7
	maximum = 138
Network latency average = 41.6289
	minimum = 7
	maximum = 138
Slowest packet = 14078
Flit latency average = 41.3456
	minimum = 7
	maximum = 138
Slowest flit = 14078
Fragmentation average = 0
	minimum = 0
	maximum = 0
Injected packet rate average = 0.020375
	minimum = 0.013 (at node 5)
	maximum = 0.033 (at node 15)
Accepted packet rate average = 0.0204375
	minimum = 0 (at node 0)
	maximum = 0.327 (at node 11)
Injected flit rate average = 0.020375
	minimum = 0.013 (at node 5)
	maximum = 0.033 (at node 15)
Accepted flit rate average= 0.0204375
	minimum = 0 (at node 0)
	maximum = 0.327 (at node 11)
Injected packet length average = 1
Accepted packet length average = 1
Total in-flight flits = 8 (8 measured)
latency change    = 0.162617
throughput change = 0.0214067
Class 0:
Packet latency average = 38.9429
	minimum = 7
	maximum = 138
Network latency average = 38.9429
	minimum = 7
	maximum = 138
Slowest packet = 14078
Flit latency average = 38.8387
	minimum = 7
	maximum = 138
Slowest flit = 14078
Fragmentation average = 0
	minimum = 0
	maximum = 0
Injected packet rate average = 0.0205625
	minimum = 0.0145 (at node 12)
	maximum = 0.027 (at node 15)
Accepted packet rate average = 0.0205313
	minimum = 0 (at node 0)
	maximum = 0.3285 (at node 11)
Injected flit rate average = 0.0205625
	minimum = 0.0145 (at node 12)
	maximum = 0.027 (at node 15)
Accepted flit rate average= 0.0205313
	minimum = 0 (at node 0)
	maximum = 0.3285 (at node 11)
Injected packet length average = 1
Accepted packet length average = 1
Total in-flight flits = 10 (10 measured)
latency change    = 0.0689735
throughput change = 0.00456621
Class 0:
Packet latency average = 37.9616
	minimum = 7
	maximum = 138
Network latency average = 37.9616
	minimum = 7
	maximum = 138
Slowest packet = 14078
Flit latency average = 37.9003
	minimum = 7
	maximum = 138
Slowest flit = 14078
Fragmentation average = 0
	minimum = 0
	maximum = 0
Injected packet rate average = 0.0202917
	minimum = 0.0156667 (at node 11)
	maximum = 0.027 (at node 1)
Accepted packet rate average = 0.0202708
	minimum = 0 (at node 0)
	maximum = 0.324333 (at node 11)
Injected flit rate average = 0.0202917
	minimum = 0.0156667 (at node 11)
	maximum = 0.027 (at node 1)
Accepted flit rate average= 0.0202708
	minimum = 0 (at node 0)
	maximum = 0.324333 (at node 11)
Injected packet length average = 1
Accepted packet length average = 1
Total in-flight flits = 10 (10 measured)
latency change    = 0.0258493
throughput change = 0.0128469
Class 0:
Packet latency average = 37.5819
	minimum = 7
	maximum = 138
Network latency average = 37.5819
	minimum = 7
	maximum = 138
Slowest packet = 14078
Flit latency average = 37.5383
	minimum = 7
	maximum = 138
Slowest flit = 14078
Fragmentation average = 0
	minimum = 0
	maximum = 0
Injected packet rate average = 0.0202031
	minimum = 0.016 (at node 11)
	maximum = 0.02625 (at node 1)
Accepted packet rate average = 0.0201719
	minimum = 0 (at node 0)
	maximum = 0.32275 (at node 11)
Injected flit rate average = 0.0202031
	minimum = 0.016 (at node 11)
	maximum = 0.02625 (at node 1)
Accepted flit rate average= 0.0201719
	minimum = 0 (at node 0)
	maximum = 0.32275 (at node 11)
Injected packet length average = 1
Accepted packet length average = 1
Total in-flight flits = 11 (11 measured)
latency change    = 0.0101037
throughput change = 0.00490576
Class 0:
Packet latency average = 37.3695
	minimum = 7
	maximum = 138
Network latency average = 37.3695
	minimum = 7
	maximum = 138
Slowest packet = 14078
Flit latency average = 37.3364
	minimum = 7
	maximum = 138
Slowest flit = 14078
Fragmentation average = 0
	minimum = 0
	maximum = 0
Injected packet rate average = 0.0204875
	minimum = 0.0176 (at node 4)
	maximum = 0.0258 (at node 1)
Accepted packet rate average = 0.0205125
	minimum = 0 (at node 0)
	maximum = 0.3282 (at node 11)
Injected flit rate average = 0.0204875
	minimum = 0.0176 (at node 4)
	maximum = 0.0258 (at node 1)
Accepted flit rate average= 0.0205125
	minimum = 0 (at node 0)
	maximum = 0.3282 (at node 11)
Injected packet length average = 1
Accepted packet length average = 1
Total in-flight flits = 7 (7 measured)
latency change    = 0.00568426
throughput change = 0.0166057
Draining all recorded packets ...
Draining remaining packets ...
Time taken is 8083 cycles
Class 0:
Packet latency average = 40.6033
	minimum = 7
	maximum = 139
Network latency average = 40.6033
	minimum = 7
	maximum = 139
Slowest packet = 15931
Flit latency average = 40.6033
	minimum = 7
	maximum = 139
Slowest flit = 15931
Fragmentation average = 0
	minimum = 0
	maximum = 0
Injected packet rate average = 0.019875
	minimum = 0.013 (at node 14)
	maximum = 0.025 (at node 4)
Accepted packet rate average = 0.0190625
	minimum = 0 (at node 0)
	maximum = 0.305 (at node 11)
Injected flit rate average = 0.019875
	minimum = 0.013 (at node 14)
	maximum = 0.025 (at node 4)
Accepted flit rate average= 0.0190625
	minimum = 0 (at node 0)
	maximum = 0.305 (at node 11)
Injected packet length average = 1
Accepted packet length average = 1
Total in-flight flits = 13 (0 measured)
latency change    = 1
throughput change = 1
Class 0:
Packet latency average = 39.6419
	minimum = 7
	maximum = 157
Network latency average = 39.6419
	minimum = 7
	maximum = 157
Slowest packet = 16239
Flit latency average = 39.6419
	minimum = 7
	maximum = 157
Slowest flit = 16239
Fragmentation average = 0
	minimum = 0
	maximum = 0
Injected packet rate average = 0.0199063
	minimum = 0.0165 (at node 8)
	maximum = 0.027 (at node 13)
Accepted packet rate average = 0.019375
	minimum = 0 (at node 0)
	maximum = 0.31 (at node 11)
Injected flit rate average = 0.0199063
	minimum = 0.0165 (at node 8)
	maximum = 0.027 (at node 13)
Accepted flit rate average= 0.019375
	minimum = 0 (at node 0)
	maximum = 0.31 (at node 11)
Injected packet length average = 1
Accepted packet length average = 1
Total in-flight flits = 17 (0 measured)
latency change    = 0.0242507
throughput change = 0.016129
Class 0:
Packet latency average = 43.7134
	minimum = 12
	maximum = 143
Network latency average = 43.7134
	minimum = 12
	maximum = 143
Slowest packet = 16317
Flit latency average = 43.7134
	minimum = 12
	maximum = 143
Slowest flit = 16317
Fragmentation average = 0
	minimum = 0
	maximum = 0
Injected packet rate average = 0.0203125
	minimum = 0.01 (at node 11)
	maximum = 0.028 (at node 5)
Accepted packet rate average = 0.0209375
	minimum = 0 (at node 0)
	maximum = 0.335 (at node 11)
Injected flit rate average = 0.0203125
	minimum = 0.01 (at node 11)
	maximum = 0.028 (at node 5)
Accepted flit rate average= 0.0209375
	minimum = 0 (at node 0)
	maximum = 0.335 (at node 11)
Injected packet length average = 1
Accepted packet length average = 1
Total in-flight flits = 7 (0 measured)
latency change    = 0.0931406
throughput change = 0.0746269
Warmed up ...Time used is 3000 cycles
Class 0:
Packet latency average = 47.2277
	minimum = 7
	maximum = 227
Network latency average = 47.2277
	minimum = 7
	maximum = 227
Slowest packet = 16787
Flit latency average = 47.0271
	minimum = 7
	maximum = 227
Slowest flit = 16787
Fragmentation average = 0
	minimum = 0
	maximum = 0
Injected packet rate average = 0.021
	minimum = 0.015 (at node 8)
	maximum = 0.025 (at node 1)
Accepted packet rate average = 0.02075
	minimum = 0 (at node 0)
	maximum = 0.332 (at node 11)
Injected flit rate average = 0.021
	minimum = 0.015 (at node 8)
	maximum = 0.025 (at node 1)
Accepted flit rate average= 0.02075
	minimum = 0 (at node 0)
	maximum = 0.332 (at node 11)
Injected packet length average = 1
Accepted packet length average = 1
Total in-flight flits = 11 (11 measured)
latency change    = 0.074411
throughput change = 0.00903614
Class 0:
Packet latency average = 42.6838
	minimum = 7
	maximum = 227
Network latency average = 42.6838
	minimum = 7
	maximum = 227
Slowest packet = 16787
Flit latency average = 42.6302
	minimum = 7
	maximum = 227
Slowest flit = 16787
Fragmentation average = 0
	minimum = 0
	maximum = 0
Injected packet rate average = 0.0204375
	minimum = 0.0155 (at node 4)
	maximum = 0.026 (at node 0)
Accepted packet rate average = 0.0202813
	minimum = 0 (at node 0)
	maximum = 0.3245 (at node 11)
Injected flit rate average = 0.0204375
	minimum = 0.0155 (at node 4)
	maximum = 0.026 (at node 0)
Accepted flit rate average= 0.0202813
	minimum = 0 (at node 0)
	maximum = 0.3245 (at node 11)
Injected packet length average = 1
Accepted packet length average = 1
Total in-flight flits = 12 (12 measured)
latency change    = 0.106455
throughput change = 0.0231125
Class 0:
Packet latency average = 41.0021
	minimum = 7
	maximum = 227
Network latency average = 41.0021
	minimum = 7
	maximum = 227
Slowest packet = 16787
Flit latency average = 40.9784
	minimum = 7
	maximum = 227
Slowest flit = 16787
Fragmentation average = 0
	minimum = 0
	maximum = 0
Injected packet rate average = 0.0203542
	minimum = 0.016 (at node 8)
	maximum = 0.024 (at node 11)
Accepted packet rate average = 0.0202917
	minimum = 0 (at node 0)
	maximum = 0.324667 (at node 11)
Injected flit rate average = 0.0203542
	minimum = 0.016 (at node 8)
	maximum = 0.024 (at node 11)
Accepted flit rate average= 0.0202917
	minimum = 0 (at node 0)
	maximum = 0.324667 (at node 11)
Injected packet length average = 1
Accepted packet length average = 1
Total in-flight flits = 10 (10 measured)
latency change    = 0.0410158
throughput change = 0.000513347
Class 0:
Packet latency average = 38.8927
	minimum = 7
	maximum = 227
Network latency average = 38.8927
	minimum = 7
	maximum = 227
Slowest packet = 16787
Flit latency average = 38.8863
	minimum = 7
	maximum = 227
Slowest flit = 16787
Fragmentation average = 0
	minimum = 0
	maximum = 0
Injected packet rate average = 0.0201563
	minimum = 0.0165 (at node 7)
	maximum = 0.02325 (at node 11)
Accepted packet rate average = 0.0200625
	minimum = 0 (at node 0)
	maximum = 0.321 (at node 11)
Injected flit rate average = 0.0201563
	minimum = 0.0165 (at node 7)
	maximum = 0.02325 (at node 11)
Accepted flit rate average= 0.0200625
	minimum = 0 (at node 0)
	maximum = 0.321 (at node 11)
Injected packet length average = 1
Accepted packet length average = 1
Total in-flight flits = 13 (13 measured)
latency change    = 0.0542351
throughput change = 0.0114226
Class 0:
Packet latency average = 39.3924
	minimum = 7
	maximum = 227
Network latency average = 39.3924
	minimum = 7
	maximum = 227
Slowest packet = 16787
Flit latency average = 39.3851
	minimum = 7
	maximum = 227
Slowest flit = 16787
Fragmentation average = 0
	minimum = 0
	maximum = 0
Injected packet rate average = 0.0201125
	minimum = 0.0164 (at node 7)
	maximum = 0.0226 (at node 11)
Accepted packet rate average = 0.020125
	minimum = 0 (at node 0)
	maximum = 0.322 (at node 11)
Injected flit rate average = 0.0201125
	minimum = 0.0164 (at node 7)
	maximum = 0.0226 (at node 11)
Accepted flit rate average= 0.020125
	minimum = 0 (at node 0)
	maximum = 0.322 (at node 11)
Injected packet length average = 1
Accepted packet length average = 1
Total in-flight flits = 6 (6 measured)
latency change    = 0.0126845
throughput change = 0.00310559
Class 0:
Packet latency average = 39.3199
	minimum = 7
	maximum = 227
Network latency average = 39.3199
	minimum = 7
	maximum = 227
Slowest packet = 16787
Flit latency average = 39.314
	minimum = 7
	maximum = 227
Slowest flit = 16787
Fragmentation average = 0
	minimum = 0
	maximum = 0
Injected packet rate average = 0.0197604
	minimum = 0.0165 (at node 7)
	maximum = 0.0218333 (at node 5)
Accepted packet rate average = 0.0197083
	minimum = 0 (at node 0)
	maximum = 0.315333 (at node 11)
Injected flit rate average = 0.0197604
	minimum = 0.0165 (at node 7)
	maximum = 0.0218333 (at node 5)
Accepted flit rate average= 0.0197083
	minimum = 0 (at node 0)
	maximum = 0.315333 (at node 11)
Injected packet length average = 1
Accepted packet length average = 1
Total in-flight flits = 12 (12 measured)
latency change    = 0.00184373
throughput change = 0.0211416
Class 0:
Packet latency average = 38.8676
	minimum = 7
	maximum = 227
Network latency average = 38.8676
	minimum = 7
	maximum = 227
Slowest packet = 16787
Flit latency average = 38.864
	minimum = 7
	maximum = 227
Slowest flit = 16787
Fragmentation average = 0
	minimum = 0
	maximum = 0
Injected packet rate average = 0.019625
	minimum = 0.0165714 (at node 7)
	maximum = 0.0222857 (at node 3)
Accepted packet rate average = 0.019625
	minimum = 0 (at node 0)
	maximum = 0.314 (at node 11)
Injected flit rate average = 0.019625
	minimum = 0.0165714 (at node 7)
	maximum = 0.0222857 (at node 3)
Accepted flit rate average= 0.019625
	minimum = 0 (at node 0)
	maximum = 0.314 (at node 11)
Injected packet length average = 1
Accepted packet length average = 1
Total in-flight flits = 7 (7 measured)
latency change    = 0.0116357
throughput change = 0.00424628
Draining all recorded packets ...
Draining remaining packets ...
Time taken is 10069 cycles
Class 0:
Packet latency average = 36.3854
	minimum = 12
	maximum = 102
Network latency average = 36.3854
	minimum = 12
	maximum = 102
Slowest packet = 19136
Flit latency average = 36.3854
	minimum = 12
	maximum = 102
Slowest flit = 19136
Fragmentation average = 0
	minimum = 0
	maximum = 0
Injected packet rate average = 0.02025
	minimum = 0.014 (at node 7)
	maximum = 0.027 (at node 8)
Accepted packet rate average = 0.019625
	minimum = 0 (at node 0)
	maximum = 0.314 (at node 11)
Injected flit rate average = 0.02025
	minimum = 0.014 (at node 7)
	maximum = 0.027 (at node 8)
Accepted flit rate average= 0.019625
	minimum = 0 (at node 0)
	maximum = 0.314 (at node 11)
Injected packet length average = 1
Accepted packet length average = 1
Total in-flight flits = 10 (0 measured)
latency change    = 1
throughput change = 1
Class 0:
Packet latency average = 38.1197
	minimum = 7
	maximum = 166
Network latency average = 38.1197
	minimum = 7
	maximum = 166
Slowest packet = 19368
Flit latency average = 38.1197
	minimum = 7
	maximum = 166
Slowest flit = 19368
Fragmentation average = 0
	minimum = 0
	maximum = 0
Injected packet rate average = 0.0202813
	minimum = 0.0135 (at node 15)
	maximum = 0.0245 (at node 8)
Accepted packet rate average = 0.0198438
	minimum = 0 (at node 0)
	maximum = 0.3175 (at node 11)
Injected flit rate average = 0.0202813
	minimum = 0.0135 (at node 15)
	maximum = 0.0245 (at node 8)
Accepted flit rate average= 0.0198438
	minimum = 0 (at node 0)
	maximum = 0.3175 (at node 11)
Injected packet length average = 1
Accepted packet length average = 1
Total in-flight flits = 14 (0 measured)
latency change    = 0.0454971
throughput change = 0.0110236
Class 0:
Packet latency average = 34.6136
	minimum = 12
	maximum = 75
Network latency average = 34.6136
	minimum = 12
	maximum = 75
Slowest packet = 19581
Flit latency average = 34.6136
	minimum = 12
	maximum = 75
Slowest flit = 19581
Fragmentation average = 0
	minimum = 0
	maximum = 0
Injected packet rate average = 0.0180625
	minimum = 0.009 (at node 8)
	maximum = 0.027 (at node 13)
Accepted packet rate average = 0.0184375
	minimum = 0 (at node 0)
	maximum = 0.295 (at node 11)
Injected flit rate average = 0.0180625
	minimum = 0.009 (at node 8)
	maximum = 0.027 (at node 13)
Accepted flit rate average= 0.0184375
	minimum = 0 (at node 0)
	maximum = 0.295 (at node 11)
Injected packet length average = 1
Accepted packet length average = 1
Total in-flight flits = 8 (0 measured)
latency change    = 0.101293
throughput change = 0.0762712
Warmed up ...Time used is 3000 cycles
Class 0:
Packet latency average = 37.0127
	minimum = 12
	maximum = 106
Network latency average = 37.0127
	minimum = 12
	maximum = 106
Slowest packet = 19917
Flit latency average = 37.1115
	minimum = 12
	maximum = 106
Slowest flit = 19917
Fragmentation average = 0
	minimum = 0
	maximum = 0
Injected packet rate average = 0.020375
	minimum = 0.016 (at node 14)
	maximum = 0.026 (at node 0)
Accepted packet rate average = 0.0201875
	minimum = 0 (at node 0)
	maximum = 0.323 (at node 11)
Injected flit rate average = 0.020375
	minimum = 0.016 (at node 14)
	maximum = 0.026 (at node 0)
Accepted flit rate average= 0.0201875
	minimum = 0 (at node 0)
	maximum = 0.323 (at node 11)
Injected packet length average = 1
Accepted packet length average = 1
Total in-flight flits = 11 (11 measured)
latency change    = 0.0648194
throughput change = 0.0866873
Class 0:
Packet latency average = 37.319
	minimum = 7
	maximum = 106
Network latency average = 37.319
	minimum = 7
	maximum = 106
Slowest packet = 19917
Flit latency average = 37.3638
	minimum = 7
	maximum = 106
Slowest flit = 19917
Fragmentation average = 0
	minimum = 0
	maximum = 0
Injected packet rate average = 0.0205625
	minimum = 0.015 (at node 13)
	maximum = 0.0265 (at node 9)
Accepted packet rate average = 0.0205313
	minimum = 0 (at node 0)
	maximum = 0.3285 (at node 11)
Injected flit rate average = 0.0205625
	minimum = 0.015 (at node 13)
	maximum = 0.0265 (at node 9)
Accepted flit rate average= 0.0205313
	minimum = 0 (at node 0)
	maximum = 0.3285 (at node 11)
Injected packet length average = 1
Accepted packet length average = 1
Total in-flight flits = 9 (9 measured)
latency change    = 0.00820639
throughput change = 0.0167428
Class 0:
Packet latency average = 38.3211
	minimum = 7
	maximum = 157
Network latency average = 38.3211
	minimum = 7
	maximum = 157
Slowest packet = 20690
Flit latency average = 38.3434
	minimum = 7
	maximum = 157
Slowest flit = 20690
Fragmentation average = 0
	minimum = 0
	maximum = 0
Injected packet rate average = 0.0203125
	minimum = 0.0156667 (at node 2)
	maximum = 0.0253333 (at node 0)
Accepted packet rate average = 0.0200208
	minimum = 0 (at node 0)
	maximum = 0.320333 (at node 11)
Injected flit rate average = 0.0203125
	minimum = 0.0156667 (at node 2)
	maximum = 0.0253333 (at node 0)
Accepted flit rate average= 0.0200208
	minimum = 0 (at node 0)
	maximum = 0.320333 (at node 11)
Injected packet length average = 1
Accepted packet length average = 1
Total in-flight flits = 22 (22 measured)
latency change    = 0.0261511
throughput change = 0.0254943
Class 0:
Packet latency average = 39.6986
	minimum = 7
	maximum = 218
Network latency average = 39.6986
	minimum = 7
	maximum = 218
Slowest packet = 20761
Flit latency average = 39.7068
	minimum = 7
	maximum = 218
Slowest flit = 20761
Fragmentation average = 0
	minimum = 0
	maximum = 0
Injected packet rate average = 0.0198594
	minimum = 0.01625 (at node 2)
	maximum = 0.023 (at node 9)
Accepted packet rate average = 0.019875
	minimum = 0 (at node 0)
	maximum = 0.318 (at node 11)
Injected flit rate average = 0.0198594
	minimum = 0.01625 (at node 2)
	maximum = 0.023 (at node 9)
Accepted flit rate average= 0.019875
	minimum = 0 (at node 0)
	maximum = 0.318 (at node 11)
Injected packet length average = 1
Accepted packet length average = 1
Total in-flight flits = 7 (7 measured)
latency change    = 0.0346986
throughput change = 0.00733753
Draining all recorded packets ...
Draining remaining packets ...
Time taken is 7088 cycles
Class 0:
Packet latency average = 36.0958
	minimum = 7
	maximum = 101
Network latency average = 36.0958
	minimum = 7
	maximum = 101
Slowest packet = 21265
Flit latency average = 36.0958
	minimum = 7
	maximum = 101
Slowest flit = 21265
Fragmentation average = 0
	minimum = 0
	maximum = 0
Injected packet rate average = 0.0203125
	minimum = 0.013 (at node 15)
	maximum = 0.026 (at node 0)
Accepted packet rate average = 0.0195625
	minimum = 0 (at node 0)
	maximum = 0.313 (at node 11)
Injected flit rate average = 0.0203125
	minimum = 0.013 (at node 15)
	maximum = 0.026 (at node 0)
Accepted flit rate average= 0.0195625
	minimum = 0 (at node 0)
	maximum = 0.313 (at node 11)
Injected packet length average = 1
Accepted packet length average = 1
Total in-flight flits = 12 (0 measured)
latency change    = 1
throughput change = 1
Class 0:
Packet latency average = 36.2649
	minimum = 7
	maximum = 118
Network latency average = 36.2649
	minimum = 7
	maximum = 118
Slowest packet = 21661
Flit latency average = 36.2649
	minimum = 7
	maximum = 118
Slowest flit = 21661
Fragmentation average = 0
	minimum = 0
	maximum = 0
Injected packet rate average = 0.0202813
	minimum = 0.0155 (at node 15)
	maximum = 0.025 (at node 3)
Accepted packet rate average = 0.0199375
	minimum = 0 (at node 0)
	maximum = 0.319 (at node 11)
Injected flit rate average = 0.0202813
	minimum = 0.0155 (at node 15)
	maximum = 0.025 (at node 3)
Accepted flit rate average= 0.0199375
	minimum = 0 (at node 0)
	maximum = 0.319 (at node 11)
Injected packet length average = 1
Accepted packet length average = 1
Total in-flight flits = 11 (0 measured)
latency change    = 0.00466136
throughput change = 0.0188088
Class 0:
Packet latency average = 36.2675
	minimum = 7
	maximum = 119
Network latency average = 36.2675
	minimum = 7
	maximum = 119
Slowest packet = 21908
Flit latency average = 36.2675
	minimum = 7
	maximum = 119
Slowest flit = 21908
Fragmentation average = 0
	minimum = 0
	maximum = 0
Injected packet rate average = 0.0203125
	minimum = 0.013 (at node 0)
	maximum = 0.028 (at node 1)
Accepted packet rate average = 0.0205625
	minimum = 0 (at node 0)
	maximum = 0.329 (at node 11)
Injected flit rate average = 0.0203125
	minimum = 0.013 (at node 0)
	maximum = 0.028 (at node 1)
Accepted flit rate average= 0.0205625
	minimum = 0 (at node 0)
	maximum = 0.329 (at node 11)
Injected packet length average = 1
Accepted packet length average = 1
Total in-flight flits = 7 (0 measured)
latency change    = 7.1329e-05
throughput change = 0.0303951
Warmed up ...Time used is 3000 cycles
Class 0:
Packet latency average = 35.7913
	minimum = 7
	maximum = 92
Network latency average = 35.7913
	minimum = 7
	maximum = 92
Slowest packet = 22126
Flit latency average = 35.875
	minimum = 7
	maximum = 92
Slowest flit = 22126
Fragmentation average = 0
	minimum = 0
	maximum = 0
Injected packet rate average = 0.0205625
	minimum = 0.016 (at node 6)
	maximum = 0.026 (at node 14)
Accepted packet rate average = 0.0205
	minimum = 0 (at node 0)
	maximum = 0.328 (at node 11)
Injected flit rate average = 0.0205625
	minimum = 0.016 (at node 6)
	maximum = 0.026 (at node 14)
Accepted flit rate average= 0.0205
	minimum = 0 (at node 0)
	maximum = 0.328 (at node 11)
Injected packet length average = 1
Accepted packet length average = 1
Total in-flight flits = 8 (8 measured)
latency change    = 0.0133049
throughput change = 0.00304878
Class 0:
Packet latency average = 35.6325
	minimum = 7
	maximum = 92
Network latency average = 35.6325
	minimum = 7
	maximum = 92
Slowest packet = 22126
Flit latency average = 35.6771
	minimum = 7
	maximum = 92
Slowest flit = 22126
Fragmentation average = 0
	minimum = 0
	maximum = 0
Injected packet rate average = 0.0201563
	minimum = 0.014 (at node 5)
	maximum = 0.0265 (at node 0)
Accepted packet rate average = 0.0200313
	minimum = 0 (at node 0)
	maximum = 0.3205 (at node 11)
Injected flit rate average = 0.0201563
	minimum = 0.014 (at node 5)
	maximum = 0.0265 (at node 0)
Accepted flit rate average= 0.0200313
	minimum = 0 (at node 0)
	maximum = 0.3205 (at node 11)
Injected packet length average = 1
Accepted packet length average = 1
Total in-flight flits = 11 (11 measured)
latency change    = 0.00445619
throughput change = 0.0234009
Class 0:
Packet latency average = 35.2746
	minimum = 7
	maximum = 92
Network latency average = 35.2746
	minimum = 7
	maximum = 92
Slowest packet = 22126
Flit latency average = 35.3071
	minimum = 7
	maximum = 92
Slowest flit = 22126
Fragmentation average = 0
	minimum = 0
	maximum = 0
Injected packet rate average = 0.0200208
	minimum = 0.0143333 (at node 5)
	maximum = 0.025 (at node 0)
Accepted packet rate average = 0.019875
	minimum = 0 (at node 0)
	maximum = 0.318 (at node 11)
Injected flit rate average = 0.0200208
	minimum = 0.0143333 (at node 5)
	maximum = 0.025 (at node 0)
Accepted flit rate average= 0.019875
	minimum = 0 (at node 0)
	maximum = 0.318 (at node 11)
Injected packet length average = 1
Accepted packet length average = 1
Total in-flight flits = 14 (14 measured)
latency change    = 0.0101473
throughput change = 0.00786164
Draining all recorded packets ...
Draining remaining packets ...
Time taken is 6097 cycles
Class 0:
Packet latency average = 34.8814
	minimum = 7
	maximum = 90
Network latency average = 34.8814
	minimum = 7
	maximum = 90
Slowest packet = 23205
Flit latency average = 34.8814
	minimum = 7
	maximum = 90
Slowest flit = 23205
Fragmentation average = 0
	minimum = 0
	maximum = 0
Injected packet rate average = 0.019
	minimum = 0.011 (at node 14)
	maximum = 0.025 (at node 13)
Accepted packet rate average = 0.0184375
	minimum = 0 (at node 0)
	maximum = 0.295 (at node 11)
Injected flit rate average = 0.019
	minimum = 0.011 (at node 14)
	maximum = 0.025 (at node 13)
Accepted flit rate average= 0.0184375
	minimum = 0 (at node 0)
	maximum = 0.295 (at node 11)
Injected packet length average = 1
Accepted packet length average = 1
Total in-flight flits = 9 (0 measured)
latency change    = 1
throughput change = 1
Class 0:
Packet latency average = 38.5163
	minimum = 7
	maximum = 136
Network latency average = 38.5163
	minimum = 7
	maximum = 136
Slowest packet = 23457
Flit latency average = 38.5163
	minimum = 7
	maximum = 136
Slowest flit = 23457
Fragmentation average = 0
	minimum = 0
	maximum = 0
Injected packet rate average = 0.0205625
	minimum = 0.017 (at node 5)
	maximum = 0.025 (at node 11)
Accepted packet rate average = 0.0201563
	minimum = 0 (at node 0)
	maximum = 0.3225 (at node 11)
Injected flit rate average = 0.0205625
	minimum = 0.017 (at node 5)
	maximum = 0.025 (at node 11)
Accepted flit rate average= 0.0201563
	minimum = 0 (at node 0)
	maximum = 0.3225 (at node 11)
Injected packet length average = 1
Accepted packet length average = 1
Total in-flight flits = 13 (0 measured)
latency change    = 0.0943737
throughput change = 0.0852713
Class 0:
Packet latency average = 40.8432
	minimum = 7
	maximum = 107
Network latency average = 40.8432
	minimum = 7
	maximum = 107
Slowest packet = 23795
Flit latency average = 40.8432
	minimum = 7
	maximum = 107
Slowest flit = 23795
Fragmentation average = 0
	minimum = 0
	maximum = 0
Injected packet rate average = 0.0216875
	minimum = 0.014 (at node 5)
	maximum = 0.031 (at node 8)
Accepted packet rate average = 0.021125
	minimum = 0 (at node 0)
	maximum = 0.338 (at node 11)
Injected flit rate average = 0.0216875
	minimum = 0.014 (at node 5)
	maximum = 0.031 (at node 8)
Accepted flit rate average= 0.021125
	minimum = 0 (at node 0)
	maximum = 0.338 (at node 11)
Injected packet length average = 1
Accepted packet length average = 1
Total in-flight flits = 22 (0 measured)
latency change    = 0.0569719
throughput change = 0.045858
Warmed up ...Time used is 3000 cycles
Class 0:
Packet latency average = 44.2648
	minimum = 7
	maximum = 217
Network latency average = 44.2648
	minimum = 7
	maximum = 217
Slowest packet = 24034
Flit latency average = 46.7697
	minimum = 7
	maximum = 217
Slowest flit = 24034
Fragmentation average = 0
	minimum = 0
	maximum = 0
Injected packet rate average = 0.0205625
	minimum = 0.012 (at node 6)
	maximum = 0.035 (at node 13)
Accepted packet rate average = 0.0214375
	minimum = 0 (at node 0)
	maximum = 0.343 (at node 11)
Injected flit rate average = 0.0205625
	minimum = 0.012 (at node 6)
	maximum = 0.035 (at node 13)
Accepted flit rate average= 0.0214375
	minimum = 0 (at node 0)
	maximum = 0.343 (at node 11)
Injected packet length average = 1
Accepted packet length average = 1
Total in-flight flits = 8 (8 measured)
latency change    = 0.0772985
throughput change = 0.0145773
Class 0:
Packet latency average = 41.6699
	minimum = 7
	maximum = 217
Network latency average = 41.6699
	minimum = 7
	maximum = 217
Slowest packet = 24034
Flit latency average = 43.0882
	minimum = 7
	maximum = 217
Slowest flit = 24034
Fragmentation average = 0
	minimum = 0
	maximum = 0
Injected packet rate average = 0.0200938
	minimum = 0.0135 (at node 6)
	maximum = 0.0285 (at node 14)
Accepted packet rate average = 0.0201875
	minimum = 0 (at node 0)
	maximum = 0.323 (at node 11)
Injected flit rate average = 0.0200938
	minimum = 0.0135 (at node 6)
	maximum = 0.0285 (at node 14)
Accepted flit rate average= 0.0201875
	minimum = 0 (at node 0)
	maximum = 0.323 (at node 11)
Injected packet length average = 1
Accepted packet length average = 1
Total in-flight flits = 19 (19 measured)
latency change    = 0.0622734
throughput change = 0.0619195
Class 0:
Packet latency average = 41.27
	minimum = 7
	maximum = 217
Network latency average = 41.27
	minimum = 7
	maximum = 217
Slowest packet = 24034
Flit latency average = 42.2346
	minimum = 7
	maximum = 217
Slowest flit = 24034
Fragmentation average = 0
	minimum = 0
	maximum = 0
Injected packet rate average = 0.0198958
	minimum = 0.0136667 (at node 6)
	maximum = 0.0256667 (at node 13)
Accepted packet rate average = 0.0199792
	minimum = 0 (at node 0)
	maximum = 0.319667 (at node 11)
Injected flit rate average = 0.0198958
	minimum = 0.0136667 (at node 6)
	maximum = 0.0256667 (at node 13)
Accepted flit rate average= 0.0199792
	minimum = 0 (at node 0)
	maximum = 0.319667 (at node 11)
Injected packet length average = 1
Accepted packet length average = 1
Total in-flight flits = 18 (18 measured)
latency change    = 0.0096889
throughput change = 0.0104275
Class 0:
Packet latency average = 40.2284
	minimum = 7
	maximum = 217
Network latency average = 40.2284
	minimum = 7
	maximum = 217
Slowest packet = 24034
Flit latency average = 40.9725
	minimum = 7
	maximum = 217
Slowest flit = 24034
Fragmentation average = 0
	minimum = 0
	maximum = 0
Injected packet rate average = 0.0197031
	minimum = 0.01575 (at node 6)
	maximum = 0.02375 (at node 13)
Accepted packet rate average = 0.0199063
	minimum = 0 (at node 0)
	maximum = 0.3185 (at node 11)
Injected flit rate average = 0.0197031
	minimum = 0.01575 (at node 6)
	maximum = 0.02375 (at node 13)
Accepted flit rate average= 0.0199063
	minimum = 0 (at node 0)
	maximum = 0.3185 (at node 11)
Injected packet length average = 1
Accepted packet length average = 1
Total in-flight flits = 9 (9 measured)
latency change    = 0.0258915
throughput change = 0.003663
Class 0:
Packet latency average = 39.3085
	minimum = 7
	maximum = 217
Network latency average = 39.3085
	minimum = 7
	maximum = 217
Slowest packet = 24034
Flit latency average = 39.926
	minimum = 7
	maximum = 217
Slowest flit = 24034
Fragmentation average = 0
	minimum = 0
	maximum = 0
Injected packet rate average = 0.0195125
	minimum = 0.0162 (at node 6)
	maximum = 0.0226 (at node 13)
Accepted packet rate average = 0.0196
	minimum = 0 (at node 0)
	maximum = 0.3136 (at node 11)
Injected flit rate average = 0.0195125
	minimum = 0.0162 (at node 6)
	maximum = 0.0226 (at node 13)
Accepted flit rate average= 0.0196
	minimum = 0 (at node 0)
	maximum = 0.3136 (at node 11)
Injected packet length average = 1
Accepted packet length average = 1
Total in-flight flits = 15 (15 measured)
latency change    = 0.0234019
throughput change = 0.015625
Draining all recorded packets ...
Draining remaining packets ...
Time taken is 8103 cycles
Class 0:
Packet latency average = 42.9115
	minimum = 12
	maximum = 169
Network latency average = 42.9115
	minimum = 12
	maximum = 169
Slowest packet = 25712
Flit latency average = 42.9115
	minimum = 12
	maximum = 169
Slowest flit = 25712
Fragmentation average = 0
	minimum = 0
	maximum = 0
Injected packet rate average = 0.0218125
	minimum = 0.015 (at node 9)
	maximum = 0.028 (at node 0)
Accepted packet rate average = 0.0211875
	minimum = 0 (at node 0)
	maximum = 0.339 (at node 11)
Injected flit rate average = 0.0218125
	minimum = 0.015 (at node 9)
	maximum = 0.028 (at node 0)
Accepted flit rate average= 0.0211875
	minimum = 0 (at node 0)
	maximum = 0.339 (at node 11)
Injected packet length average = 1
Accepted packet length average = 1
Total in-flight flits = 10 (0 measured)
latency change    = 1
throughput change = 1
Class 0:
Packet latency average = 40.5063
	minimum = 12
	maximum = 169
Network latency average = 40.5063
	minimum = 12
	maximum = 169
Slowest packet = 25712
Flit latency average = 40.5063
	minimum = 12
	maximum = 169
Slowest flit = 25712
Fragmentation average = 0
	minimum = 0
	maximum = 0
Injected packet rate average = 0.0205
	minimum = 0.017 (at node 4)
	maximum = 0.0245 (at node 3)
Accepted packet rate average = 0.0198125
	minimum = 0 (at node 0)
	maximum = 0.317 (at node 11)
Injected flit rate average = 0.0205
	minimum = 0.017 (at node 4)
	maximum = 0.0245 (at node 3)
Accepted flit rate average= 0.0198125
	minimum = 0 (at node 0)
	maximum = 0.317 (at node 11)
Injected packet length average = 1
Accepted packet length average = 1
Total in-flight flits = 22 (0 measured)
latency change    = 0.0593783
throughput change = 0.0694006
Class 0:
Packet latency average = 36.9703
	minimum = 12
	maximum = 87
Network latency average = 36.9703
	minimum = 12
	maximum = 87
Slowest packet = 26234
Flit latency average = 36.9703
	minimum = 12
	maximum = 87
Slowest flit = 26234
Fragmentation average = 0
	minimum = 0
	maximum = 0
Injected packet rate average = 0.0205
	minimum = 0.014 (at node 3)
	maximum = 0.029 (at node 0)
Accepted packet rate average = 0.0210625
	minimum = 0 (at node 0)
	maximum = 0.337 (at node 11)
Injected flit rate average = 0.0205
	minimum = 0.014 (at node 3)
	maximum = 0.029 (at node 0)
Accepted flit rate average= 0.0210625
	minimum = 0 (at node 0)
	maximum = 0.337 (at node 11)
Injected packet length average = 1
Accepted packet length average = 1
Total in-flight flits = 13 (0 measured)
latency change    = 0.0956438
throughput change = 0.0593472
Warmed up ...Time used is 3000 cycles
Class 0:
Packet latency average = 37.1538
	minimum = 7
	maximum = 160
Network latency average = 37.1538
	minimum = 7
	maximum = 160
Slowest packet = 26747
Flit latency average = 37.2426
	minimum = 7
	maximum = 160
Slowest flit = 26747
Fragmentation average = 0
	minimum = 0
	maximum = 0
Injected packet rate average = 0.0210625
	minimum = 0.015 (at node 11)
	maximum = 0.028 (at node 7)
Accepted packet rate average = 0.021125
	minimum = 0 (at node 0)
	maximum = 0.338 (at node 11)
Injected flit rate average = 0.0210625
	minimum = 0.015 (at node 11)
	maximum = 0.028 (at node 7)
Accepted flit rate average= 0.021125
	minimum = 0 (at node 0)
	maximum = 0.338 (at node 11)
Injected packet length average = 1
Accepted packet length average = 1
Total in-flight flits = 12 (12 measured)
latency change    = 0.00493945
throughput change = 0.00295858
Class 0:
Packet latency average = 36.8612
	minimum = 7
	maximum = 160
Network latency average = 36.8612
	minimum = 7
	maximum = 160
Slowest packet = 26747
Flit latency average = 36.9134
	minimum = 7
	maximum = 160
Slowest flit = 26747
Fragmentation average = 0
	minimum = 0
	maximum = 0
Injected packet rate average = 0.0201875
	minimum = 0.0145 (at node 14)
	maximum = 0.025 (at node 7)
Accepted packet rate average = 0.0202188
	minimum = 0 (at node 0)
	maximum = 0.3235 (at node 11)
Injected flit rate average = 0.0201875
	minimum = 0.0145 (at node 14)
	maximum = 0.025 (at node 7)
Accepted flit rate average= 0.0202188
	minimum = 0 (at node 0)
	maximum = 0.3235 (at node 11)
Injected packet length average = 1
Accepted packet length average = 1
Total in-flight flits = 12 (12 measured)
latency change    = 0.00793917
throughput change = 0.0448223
Class 0:
Packet latency average = 35.9989
	minimum = 7
	maximum = 160
Network latency average = 35.9989
	minimum = 7
	maximum = 160
Slowest packet = 26747
Flit latency average = 36.0459
	minimum = 7
	maximum = 160
Slowest flit = 26747
Fragmentation average = 0
	minimum = 0
	maximum = 0
Injected packet rate average = 0.0199167
	minimum = 0.0156667 (at node 8)
	maximum = 0.023 (at node 5)
Accepted packet rate average = 0.0199792
	minimum = 0 (at node 0)
	maximum = 0.319667 (at node 11)
Injected flit rate average = 0.0199167
	minimum = 0.0156667 (at node 8)
	maximum = 0.023 (at node 5)
Accepted flit rate average= 0.0199792
	minimum = 0 (at node 0)
	maximum = 0.319667 (at node 11)
Injected packet length average = 1
Accepted packet length average = 1
Total in-flight flits = 10 (10 measured)
latency change    = 0.0239523
throughput change = 0.0119917
Draining all recorded packets ...
Draining remaining packets ...
Time taken is 6110 cycles
Class 0:
Packet latency average = 37.069
	minimum = 7
	maximum = 148
Network latency average = 37.069
	minimum = 7
	maximum = 148
Slowest packet = 27592
Flit latency average = 37.069
	minimum = 7
	maximum = 148
Slowest flit = 27592
Fragmentation average = 0
	minimum = 0
	maximum = 0
Injected packet rate average = 0.0206875
	minimum = 0.015 (at node 9)
	maximum = 0.031 (at node 3)
Accepted packet rate average = 0.0199375
	minimum = 0 (at node 0)
	maximum = 0.319 (at node 11)
Injected flit rate average = 0.0206875
	minimum = 0.015 (at node 9)
	maximum = 0.031 (at node 3)
Accepted flit rate average= 0.0199375
	minimum = 0 (at node 0)
	maximum = 0.319 (at node 11)
Injected packet length average = 1
Accepted packet length average = 1
Total in-flight flits = 12 (0 measured)
latency change    = 1
throughput change = 1
Class 0:
Packet latency average = 36.2824
	minimum = 7
	maximum = 148
Network latency average = 36.2824
	minimum = 7
	maximum = 148
Slowest packet = 27592
Flit latency average = 36.2824
	minimum = 7
	maximum = 148
Slowest flit = 27592
Fragmentation average = 0
	minimum = 0
	maximum = 0
Injected packet rate average = 0.0203438
	minimum = 0.018 (at node 1)
	maximum = 0.024 (at node 4)
Accepted packet rate average = 0.0200313
	minimum = 0 (at node 0)
	maximum = 0.3205 (at node 11)
Injected flit rate average = 0.0203438
	minimum = 0.018 (at node 1)
	maximum = 0.024 (at node 4)
Accepted flit rate average= 0.0200313
	minimum = 0 (at node 0)
	maximum = 0.3205 (at node 11)
Injected packet length average = 1
Accepted packet length average = 1
Total in-flight flits = 10 (0 measured)
latency change    = 0.0216798
throughput change = 0.00468019
Class 0:
Packet latency average = 36.9481
	minimum = 7
	maximum = 89
Network latency average = 36.9481
	minimum = 7
	maximum = 89
Slowest packet = 28379
Flit latency average = 36.9481
	minimum = 7
	maximum = 89
Slowest flit = 28379
Fragmentation average = 0
	minimum = 0
	maximum = 0
Injected packet rate average = 0.0184375
	minimum = 0.011 (at node 7)
	maximum = 0.025 (at node 2)
Accepted packet rate average = 0.0180625
	minimum = 0 (at node 0)
	maximum = 0.289 (at node 11)
Injected flit rate average = 0.0184375
	minimum = 0.011 (at node 7)
	maximum = 0.025 (at node 2)
Accepted flit rate average= 0.0180625
	minimum = 0 (at node 0)
	maximum = 0.289 (at node 11)
Injected packet length average = 1
Accepted packet length average = 1
Total in-flight flits = 16 (0 measured)
latency change    = 0.0180179
throughput change = 0.108997
Warmed up ...Time used is 3000 cycles
Class 0:
Packet latency average = 36.6426
	minimum = 12
	maximum = 83
Network latency average = 36.6426
	minimum = 12
	maximum = 83
Slowest packet = 28760
Flit latency average = 37.4608
	minimum = 12
	maximum = 83
Slowest flit = 28760
Fragmentation average = 0
	minimum = 0
	maximum = 0
Injected packet rate average = 0.018125
	minimum = 0.011 (at node 2)
	maximum = 0.025 (at node 5)
Accepted packet rate average = 0.0183125
	minimum = 0 (at node 0)
	maximum = 0.293 (at node 11)
Injected flit rate average = 0.018125
	minimum = 0.011 (at node 2)
	maximum = 0.025 (at node 5)
Accepted flit rate average= 0.0183125
	minimum = 0 (at node 0)
	maximum = 0.293 (at node 11)
Injected packet length average = 1
Accepted packet length average = 1
Total in-flight flits = 13 (13 measured)
latency change    = 0.00833723
throughput change = 0.0136519
Class 0:
Packet latency average = 36.7111
	minimum = 12
	maximum = 90
Network latency average = 36.7111
	minimum = 12
	maximum = 90
Slowest packet = 28955
Flit latency average = 37.1036
	minimum = 12
	maximum = 90
Slowest flit = 28955
Fragmentation average = 0
	minimum = 0
	maximum = 0
Injected packet rate average = 0.0189375
	minimum = 0.015 (at node 2)
	maximum = 0.024 (at node 10)
Accepted packet rate average = 0.019
	minimum = 0 (at node 0)
	maximum = 0.304 (at node 11)
Injected flit rate average = 0.0189375
	minimum = 0.015 (at node 2)
	maximum = 0.024 (at node 10)
Accepted flit rate average= 0.019
	minimum = 0 (at node 0)
	maximum = 0.304 (at node 11)
Injected packet length average = 1
Accepted packet length average = 1
Total in-flight flits = 14 (14 measured)
latency change    = 0.00186726
throughput change = 0.0361842
Class 0:
Packet latency average = 37.2342
	minimum = 12
	maximum = 99
Network latency average = 37.2342
	minimum = 12
	maximum = 99
Slowest packet = 29205
Flit latency average = 37.473
	minimum = 12
	maximum = 99
Slowest flit = 29205
Fragmentation average = 0
	minimum = 0
	maximum = 0
Injected packet rate average = 0.02
	minimum = 0.0176667 (at node 4)
	maximum = 0.0223333 (at node 5)
Accepted packet rate average = 0.0200833
	minimum = 0 (at node 0)
	maximum = 0.321333 (at node 11)
Injected flit rate average = 0.02
	minimum = 0.0176667 (at node 4)
	maximum = 0.0223333 (at node 5)
Accepted flit rate average= 0.0200833
	minimum = 0 (at node 0)
	maximum = 0.321333 (at node 11)
Injected packet length average = 1
Accepted packet length average = 1
Total in-flight flits = 12 (12 measured)
latency change    = 0.014047
throughput change = 0.0539419
Class 0:
Packet latency average = 37.2831
	minimum = 7
	maximum = 135
Network latency average = 37.2831
	minimum = 7
	maximum = 135
Slowest packet = 29568
Flit latency average = 37.4638
	minimum = 7
	maximum = 135
Slowest flit = 29568
Fragmentation average = 0
	minimum = 0
	maximum = 0
Injected packet rate average = 0.0197344
	minimum = 0.01725 (at node 14)
	maximum = 0.02175 (at node 3)
Accepted packet rate average = 0.0198438
	minimum = 0 (at node 0)
	maximum = 0.3175 (at node 11)
Injected flit rate average = 0.0197344
	minimum = 0.01725 (at node 14)
	maximum = 0.02175 (at node 3)
Accepted flit rate average= 0.0198438
	minimum = 0 (at node 0)
	maximum = 0.3175 (at node 11)
Injected packet length average = 1
Accepted packet length average = 1
Total in-flight flits = 9 (9 measured)
latency change    = 0.00131204
throughput change = 0.0120735
Class 0:
Packet latency average = 38.0459
	minimum = 7
	maximum = 170
Network latency average = 38.0459
	minimum = 7
	maximum = 170
Slowest packet = 29912
Flit latency average = 38.181
	minimum = 7
	maximum = 170
Slowest flit = 29912
Fragmentation average = 0
	minimum = 0
	maximum = 0
Injected packet rate average = 0.02005
	minimum = 0.0174 (at node 4)
	maximum = 0.0226 (at node 12)
Accepted packet rate average = 0.0201
	minimum = 0 (at node 0)
	maximum = 0.3216 (at node 11)
Injected flit rate average = 0.02005
[...]
	minimum = 7
	maximum = 140
Slowest packet = 243820
Flit latency average = 37.6054
	minimum = 7
	maximum = 140
Slowest flit = 243820
Fragmentation average = 0
	minimum = 0
	maximum = 0
Injected packet rate average = 0.0205
	minimum = 0.016 (at node 7)
	maximum = 0.027 (at node 4)
Accepted packet rate average = 0.02075
	minimum = 0 (at node 0)
	maximum = 0.332 (at node 11)
Injected flit rate average = 0.0205
	minimum = 0.016 (at node 7)
	maximum = 0.027 (at node 4)
Accepted flit rate average= 0.02075
	minimum = 0 (at node 0)
	maximum = 0.332 (at node 11)
Injected packet length average = 1
Accepted packet length average = 1
Total in-flight flits = 9 (0 measured)
latency change    = 0.0144216
throughput change = 0.0451807
Warmed up ...Time used is 3000 cycles
Class 0:
Packet latency average = 34.6907
	minimum = 7
	maximum = 88
Network latency average = 34.6907
	minimum = 7
	maximum = 88
Slowest packet = 244164
Flit latency average = 34.8633
	minimum = 7
	maximum = 88
Slowest flit = 244164
Fragmentation average = 0
	minimum = 0
	maximum = 0
Injected packet rate average = 0.0191875
	minimum = 0.009 (at node 12)
	maximum = 0.028 (at node 2)
Accepted packet rate average = 0.01875
	minimum = 0 (at node 0)
	maximum = 0.3 (at node 11)
Injected flit rate average = 0.0191875
	minimum = 0.009 (at node 12)
	maximum = 0.028 (at node 2)
Accepted flit rate average= 0.01875
	minimum = 0 (at node 0)
	maximum = 0.3 (at node 11)
Injected packet length average = 1
Accepted packet length average = 1
Total in-flight flits = 16 (16 measured)
latency change    = 0.0840196
throughput change = 0.106667
Class 0:
Packet latency average = 37.7552
	minimum = 7
	maximum = 114
Network latency average = 37.7552
	minimum = 7
	maximum = 114
Slowest packet = 244460
Flit latency average = 37.7937
	minimum = 7
	maximum = 114
Slowest flit = 244460
Fragmentation average = 0
	minimum = 0
	maximum = 0
Injected packet rate average = 0.0197813
	minimum = 0.0105 (at node 12)
	maximum = 0.026 (at node 2)
Accepted packet rate average = 0.0196875
	minimum = 0 (at node 0)
	maximum = 0.315 (at node 11)
Injected flit rate average = 0.0197813
	minimum = 0.0105 (at node 12)
	maximum = 0.026 (at node 2)
Accepted flit rate average= 0.0196875
	minimum = 0 (at node 0)
	maximum = 0.315 (at node 11)
Injected packet length average = 1
Accepted packet length average = 1
Total in-flight flits = 12 (12 measured)
latency change    = 0.0811679
throughput change = 0.047619
Class 0:
Packet latency average = 36.579
	minimum = 7
	maximum = 114
Network latency average = 36.579
	minimum = 7
	maximum = 114
Slowest packet = 244460
Flit latency average = 36.6171
	minimum = 7
	maximum = 114
Slowest flit = 244460
Fragmentation average = 0
	minimum = 0
	maximum = 0
Injected packet rate average = 0.0190208
	minimum = 0.015 (at node 12)
	maximum = 0.0216667 (at node 2)
Accepted packet rate average = 0.0190417
	minimum = 0 (at node 0)
	maximum = 0.304667 (at node 11)
Injected flit rate average = 0.0190208
	minimum = 0.015 (at node 12)
	maximum = 0.0216667 (at node 2)
Accepted flit rate average= 0.0190417
	minimum = 0 (at node 0)
	maximum = 0.304667 (at node 11)
Injected packet length average = 1
Accepted packet length average = 1
Total in-flight flits = 8 (8 measured)
latency change    = 0.0321558
throughput change = 0.0339168
Class 0:
Packet latency average = 37.5427
	minimum = 7
	maximum = 122
Network latency average = 37.5427
	minimum = 7
	maximum = 122
Slowest packet = 244898
Flit latency average = 37.5635
	minimum = 7
	maximum = 122
Slowest flit = 244898
Fragmentation average = 0
	minimum = 0
	maximum = 0
Injected packet rate average = 0.019625
	minimum = 0.01625 (at node 1)
	maximum = 0.0225 (at node 4)
Accepted packet rate average = 0.0195469
	minimum = 0 (at node 0)
	maximum = 0.31275 (at node 11)
Injected flit rate average = 0.019625
	minimum = 0.01625 (at node 1)
	maximum = 0.0225 (at node 4)
Accepted flit rate average= 0.0195469
	minimum = 0 (at node 0)
	maximum = 0.31275 (at node 11)
Injected packet length average = 1
Accepted packet length average = 1
Total in-flight flits = 14 (14 measured)
latency change    = 0.0256686
throughput change = 0.025846
Class 0:
Packet latency average = 37.7077
	minimum = 7
	maximum = 136
Network latency average = 37.7077
	minimum = 7
	maximum = 136
Slowest packet = 245109
Flit latency average = 37.7234
	minimum = 7
	maximum = 136
Slowest flit = 245109
Fragmentation average = 0
	minimum = 0
	maximum = 0
Injected packet rate average = 0.0195875
	minimum = 0.0168 (at node 13)
	maximum = 0.0216 (at node 4)
Accepted packet rate average = 0.0196125
	minimum = 0 (at node 0)
	maximum = 0.3138 (at node 11)
Injected flit rate average = 0.0195875
	minimum = 0.0168 (at node 13)
	maximum = 0.0216 (at node 4)
Accepted flit rate average= 0.0196125
	minimum = 0 (at node 0)
	maximum = 0.3138 (at node 11)
Injected packet length average = 1
Accepted packet length average = 1
Total in-flight flits = 7 (7 measured)
latency change    = 0.00437627
throughput change = 0.00334608
Draining all recorded packets ...
Draining remaining packets ...
Time taken is 8076 cycles
Class 0:
Packet latency average = 36.3539
	minimum = 7
	maximum = 76
Network latency average = 36.3539
	minimum = 7
	maximum = 76
Slowest packet = 245706
Flit latency average = 36.3539
	minimum = 7
	maximum = 76
Slowest flit = 245706
Fragmentation average = 0
	minimum = 0
	maximum = 0
Injected packet rate average = 0.0201875
	minimum = 0.01 (at node 10)
	maximum = 0.026 (at node 8)
Accepted packet rate average = 0.01925
	minimum = 0 (at node 0)
	maximum = 0.308 (at node 11)
Injected flit rate average = 0.0201875
	minimum = 0.01 (at node 10)
	maximum = 0.026 (at node 8)
Accepted flit rate average= 0.01925
	minimum = 0 (at node 0)
	maximum = 0.308 (at node 11)
Injected packet length average = 1
Accepted packet length average = 1
Total in-flight flits = 15 (0 measured)
latency change    = 1
throughput change = 1
Class 0:
Packet latency average = 36.1122
	minimum = 7
	maximum = 98
Network latency average = 36.1122
	minimum = 7
	maximum = 98
Slowest packet = 245922
Flit latency average = 36.1122
	minimum = 7
	maximum = 98
Slowest flit = 245922
Fragmentation average = 0
	minimum = 0
	maximum = 0
Injected packet rate average = 0.0198438
	minimum = 0.0125 (at node 10)
	maximum = 0.0245 (at node 0)
Accepted packet rate average = 0.0192187
	minimum = 0 (at node 0)
	maximum = 0.3075 (at node 11)
Injected flit rate average = 0.0198438
	minimum = 0.0125 (at node 10)
	maximum = 0.0245 (at node 0)
Accepted flit rate average= 0.0192187
	minimum = 0 (at node 0)
	maximum = 0.3075 (at node 11)
Injected packet length average = 1
Accepted packet length average = 1
Total in-flight flits = 20 (0 measured)
latency change    = 0.00669306
throughput change = 0.00162602
Class 0:
Packet latency average = 39.8423
	minimum = 12
	maximum = 120
Network latency average = 39.8423
	minimum = 12
	maximum = 120
Slowest packet = 246326
Flit latency average = 39.8423
	minimum = 12
	maximum = 120
Slowest flit = 246326
Fragmentation average = 0
	minimum = 0
	maximum = 0
Injected packet rate average = 0.0215625
	minimum = 0.015 (at node 1)
	maximum = 0.034 (at node 0)
Accepted packet rate average = 0.0221875
	minimum = 0 (at node 0)
	maximum = 0.355 (at node 11)
Injected flit rate average = 0.0215625
	minimum = 0.015 (at node 1)
	maximum = 0.034 (at node 0)
Accepted flit rate average= 0.0221875
	minimum = 0 (at node 0)
	maximum = 0.355 (at node 11)
Injected packet length average = 1
Accepted packet length average = 1
Total in-flight flits = 10 (0 measured)
latency change    = 0.0936207
throughput change = 0.133803
Warmed up ...Time used is 3000 cycles
Class 0:
Packet latency average = 39.1621
	minimum = 12
	maximum = 106
Network latency average = 39.1621
	minimum = 12
	maximum = 106
Slowest packet = 246534
Flit latency average = 39.0653
	minimum = 12
	maximum = 106
Slowest flit = 246534
Fragmentation average = 0
	minimum = 0
	maximum = 0
Injected packet rate average = 0.0211875
	minimum = 0.015 (at node 7)
	maximum = 0.027 (at node 2)
Accepted packet rate average = 0.0210625
	minimum = 0 (at node 0)
	maximum = 0.337 (at node 11)
Injected flit rate average = 0.0211875
	minimum = 0.015 (at node 7)
	maximum = 0.027 (at node 2)
Accepted flit rate average= 0.0210625
	minimum = 0 (at node 0)
	maximum = 0.337 (at node 11)
Injected packet length average = 1
Accepted packet length average = 1
Total in-flight flits = 12 (12 measured)
latency change    = 0.0173682
throughput change = 0.0534125
Class 0:
Packet latency average = 37.273
	minimum = 7
	maximum = 106
Network latency average = 37.273
	minimum = 7
	maximum = 106
Slowest packet = 246534
Flit latency average = 37.2519
	minimum = 7
	maximum = 106
Slowest flit = 246534
Fragmentation average = 0
	minimum = 0
	maximum = 0
Injected packet rate average = 0.0202188
	minimum = 0.0125 (at node 7)
	maximum = 0.0255 (at node 2)
Accepted packet rate average = 0.0203438
	minimum = 0 (at node 0)
	maximum = 0.3255 (at node 11)
Injected flit rate average = 0.0202188
	minimum = 0.0125 (at node 7)
	maximum = 0.0255 (at node 2)
Accepted flit rate average= 0.0203438
	minimum = 0 (at node 0)
	maximum = 0.3255 (at node 11)
Injected packet length average = 1
Accepted packet length average = 1
Total in-flight flits = 6 (6 measured)
latency change    = 0.0506819
throughput change = 0.0353303
Class 0:
Packet latency average = 36.5743
	minimum = 7
	maximum = 106
Network latency average = 36.5743
	minimum = 7
	maximum = 106
Slowest packet = 246534
Flit latency average = 36.5673
	minimum = 7
	maximum = 106
Slowest flit = 246534
Fragmentation average = 0
	minimum = 0
	maximum = 0
Injected packet rate average = 0.0201458
	minimum = 0.015 (at node 7)
	maximum = 0.024 (at node 13)
Accepted packet rate average = 0.020125
	minimum = 0 (at node 0)
	maximum = 0.322 (at node 11)
Injected flit rate average = 0.0201458
	minimum = 0.015 (at node 7)
	maximum = 0.024 (at node 13)
Accepted flit rate average= 0.020125
	minimum = 0 (at node 0)
	maximum = 0.322 (at node 11)
Injected packet length average = 1
Accepted packet length average = 1
Total in-flight flits = 11 (11 measured)
latency change    = 0.0191048
throughput change = 0.0108696
Class 0:
Packet latency average = 36.2022
	minimum = 7
	maximum = 106
Network latency average = 36.2022
	minimum = 7
	maximum = 106
Slowest packet = 246534
Flit latency average = 36.1998
	minimum = 7
	maximum = 106
Slowest flit = 246534
Fragmentation average = 0
	minimum = 0
	maximum = 0
Injected packet rate average = 0.0200469
	minimum = 0.014 (at node 7)
	maximum = 0.02325 (at node 13)
Accepted packet rate average = 0.0200156
	minimum = 0 (at node 0)
	maximum = 0.32025 (at node 11)
Injected flit rate average = 0.0200469
	minimum = 0.014 (at node 7)
	maximum = 0.02325 (at node 13)
Accepted flit rate average= 0.0200156
	minimum = 0 (at node 0)
	maximum = 0.32025 (at node 11)
Injected packet length average = 1
Accepted packet length average = 1
Total in-flight flits = 12 (12 measured)
latency change    = 0.0102774
throughput change = 0.00546448
Class 0:
Packet latency average = 36.0019
	minimum = 7
	maximum = 106
Network latency average = 36.0019
	minimum = 7
	maximum = 106
Slowest packet = 246534
Flit latency average = 36.0013
	minimum = 7
	maximum = 106
Slowest flit = 246534
Fragmentation average = 0
	minimum = 0
	maximum = 0
Injected packet rate average = 0.019975
	minimum = 0.0158 (at node 7)
	maximum = 0.0226 (at node 9)
Accepted packet rate average = 0.0199
	minimum = 0 (at node 0)
	maximum = 0.3184 (at node 11)
Injected flit rate average = 0.019975
	minimum = 0.0158 (at node 7)
	maximum = 0.0226 (at node 9)
Accepted flit rate average= 0.0199
	minimum = 0 (at node 0)
	maximum = 0.3184 (at node 11)
Injected packet length average = 1
Accepted packet length average = 1
Total in-flight flits = 16 (16 measured)
latency change    = 0.00556378
throughput change = 0.0058103
Draining all recorded packets ...
Draining remaining packets ...
Time taken is 8092 cycles
Class 0:
Packet latency average = 41.9664
	minimum = 12
	maximum = 160
Network latency average = 41.9664
	minimum = 12
	maximum = 160
Slowest packet = 248249
Flit latency average = 41.9664
	minimum = 12
	maximum = 160
Slowest flit = 248249
Fragmentation average = 0
	minimum = 0
	maximum = 0
Injected packet rate average = 0.019125
	minimum = 0.013 (at node 14)
	maximum = 0.029 (at node 9)
Accepted packet rate average = 0.018625
	minimum = 0 (at node 0)
	maximum = 0.298 (at node 11)
Injected flit rate average = 0.019125
	minimum = 0.013 (at node 14)
	maximum = 0.029 (at node 9)
Accepted flit rate average= 0.018625
	minimum = 0 (at node 0)
	maximum = 0.298 (at node 11)
Injected packet length average = 1
Accepted packet length average = 1
Total in-flight flits = 8 (0 measured)
latency change    = 1
throughput change = 1
Class 0:
Packet latency average = 39.1424
	minimum = 7
	maximum = 160
Network latency average = 39.1424
	minimum = 7
	maximum = 160
Slowest packet = 248249
Flit latency average = 39.1424
	minimum = 7
	maximum = 160
Slowest flit = 248249
Fragmentation average = 0
	minimum = 0
	maximum = 0
Injected packet rate average = 0.0195312
	minimum = 0.0135 (at node 12)
	maximum = 0.024 (at node 11)
Accepted packet rate average = 0.0190937
	minimum = 0 (at node 0)
	maximum = 0.3055 (at node 11)
Injected flit rate average = 0.0195312
	minimum = 0.0135 (at node 12)
	maximum = 0.024 (at node 11)
Accepted flit rate average= 0.0190937
	minimum = 0 (at node 0)
	maximum = 0.3055 (at node 11)
Injected packet length average = 1
Accepted packet length average = 1
Total in-flight flits = 14 (0 measured)
latency change    = 0.0721482
throughput change = 0.0245499
Class 0:
Packet latency average = 37.684
	minimum = 8
	maximum = 110
Network latency average = 37.684
	minimum = 8
	maximum = 110
Slowest packet = 248699
Flit latency average = 37.684
	minimum = 8
	maximum = 110
Slowest flit = 248699
Fragmentation average = 0
	minimum = 0
	maximum = 0
Injected packet rate average = 0.0211875
	minimum = 0.014 (at node 8)
	maximum = 0.031 (at node 2)
Accepted packet rate average = 0.020375
	minimum = 0 (at node 0)
	maximum = 0.326 (at node 11)
Injected flit rate average = 0.0211875
	minimum = 0.014 (at node 8)
	maximum = 0.031 (at node 2)
Accepted flit rate average= 0.020375
	minimum = 0 (at node 0)
	maximum = 0.326 (at node 11)
Injected packet length average = 1
Accepted packet length average = 1
Total in-flight flits = 27 (0 measured)
latency change    = 0.0386991
throughput change = 0.0628834
Warmed up ...Time used is 3000 cycles
Class 0:
Packet latency average = 52.4205
	minimum = 9
	maximum = 236
Network latency average = 52.4205
	minimum = 9
	maximum = 236
Slowest packet = 249053
Flit latency average = 55.4103
	minimum = 9
	maximum = 254
Slowest flit = 249031
Fragmentation average = 0
	minimum = 0
	maximum = 0
Injected packet rate average = 0.0196875
	minimum = 0.012 (at node 4)
	maximum = 0.029 (at node 14)
Accepted packet rate average = 0.0205625
	minimum = 0 (at node 0)
	maximum = 0.329 (at node 11)
Injected flit rate average = 0.0196875
	minimum = 0.012 (at node 4)
	maximum = 0.029 (at node 14)
Accepted flit rate average= 0.0205625
	minimum = 0 (at node 0)
	maximum = 0.329 (at node 11)
Injected packet length average = 1
Accepted packet length average = 1
Total in-flight flits = 13 (13 measured)
latency change    = 0.28112
throughput change = 0.00911854
Class 0:
Packet latency average = 44.0428
	minimum = 9
	maximum = 236
Network latency average = 44.0428
	minimum = 9
	maximum = 236
Slowest packet = 249053
Flit latency average = 45.9511
	minimum = 9
	maximum = 254
Slowest flit = 249031
Fragmentation average = 0
	minimum = 0
	maximum = 0
Injected packet rate average = 0.019375
	minimum = 0.012 (at node 4)
	maximum = 0.023 (at node 13)
Accepted packet rate average = 0.0198125
	minimum = 0 (at node 0)
	maximum = 0.317 (at node 11)
Injected flit rate average = 0.019375
	minimum = 0.012 (at node 4)
	maximum = 0.023 (at node 13)
Accepted flit rate average= 0.0198125
	minimum = 0 (at node 0)
	maximum = 0.317 (at node 11)
Injected packet length average = 1
Accepted packet length average = 1
Total in-flight flits = 13 (13 measured)
latency change    = 0.190217
throughput change = 0.0378549
Class 0:
Packet latency average = 42.4193
	minimum = 9
	maximum = 236
Network latency average = 42.4193
	minimum = 9
	maximum = 236
Slowest packet = 249053
Flit latency average = 43.7131
	minimum = 9
	maximum = 254
Slowest flit = 249031
Fragmentation average = 0
	minimum = 0
	maximum = 0
Injected packet rate average = 0.02
	minimum = 0.0146667 (at node 4)
	maximum = 0.0233333 (at node 13)
Accepted packet rate average = 0.0201875
	minimum = 0 (at node 0)
	maximum = 0.323 (at node 11)
Injected flit rate average = 0.02
	minimum = 0.0146667 (at node 4)
	maximum = 0.0233333 (at node 13)
Accepted flit rate average= 0.0201875
	minimum = 0 (at node 0)
	maximum = 0.323 (at node 11)
Injected packet length average = 1
Accepted packet length average = 1
Total in-flight flits = 18 (18 measured)
latency change    = 0.038273
throughput change = 0.0185759
Class 0:
Packet latency average = 41.2248
	minimum = 9
	maximum = 236
Network latency average = 41.2248
	minimum = 9
	maximum = 236
Slowest packet = 249053
Flit latency average = 42.2148
	minimum = 9
	maximum = 254
Slowest flit = 249031
Fragmentation average = 0
	minimum = 0
	maximum = 0
Injected packet rate average = 0.0201406
	minimum = 0.017 (at node 4)
	maximum = 0.023 (at node 13)
Accepted packet rate average = 0.0202969
	minimum = 0 (at node 0)
	maximum = 0.32475 (at node 11)
Injected flit rate average = 0.0201406
	minimum = 0.017 (at node 4)
	maximum = 0.023 (at node 13)
Accepted flit rate average= 0.0202969
	minimum = 0 (at node 0)
	maximum = 0.32475 (at node 11)
Injected packet length average = 1
Accepted packet length average = 1
Total in-flight flits = 17 (17 measured)
latency change    = 0.0289747
throughput change = 0.00538876
Class 0:
Packet latency average = 40.4178
	minimum = 8
	maximum = 236
Network latency average = 40.4178
	minimum = 8
	maximum = 236
Slowest packet = 249053
Flit latency average = 41.2186
	minimum = 8
	maximum = 254
Slowest flit = 249031
Fragmentation average = 0
	minimum = 0
	maximum = 0
Injected packet rate average = 0.0202
	minimum = 0.0172 (at node 4)
	maximum = 0.0246 (at node 13)
Accepted packet rate average = 0.0204125
	minimum = 0 (at node 0)
	maximum = 0.3266 (at node 11)
Injected flit rate average = 0.0202
	minimum = 0.0172 (at node 4)
	maximum = 0.0246 (at node 13)
Accepted flit rate average= 0.0204125
	minimum = 0 (at node 0)
	maximum = 0.3266 (at node 11)
Injected packet length average = 1
Accepted packet length average = 1
Total in-flight flits = 10 (10 measured)
latency change    = 0.0199673
throughput change = 0.00566442
Draining all recorded packets ...
Draining remaining packets ...
Time taken is 8082 cycles
====== Overall Traffic Statistics ======
====== Traffic class 0 ======
Packet latency average = 38.4346 (100 samples)
	minimum = 7.03 (100 samples)
	maximum = 175.95 (100 samples)
Network latency average = 38.4346 (100 samples)
	minimum = 7.03 (100 samples)
	maximum = 175.95 (100 samples)
Flit latency average = 38.5349 (100 samples)
	minimum = 7.03 (100 samples)
	maximum = 177.05 (100 samples)
Fragmentation average = 0 (100 samples)
	minimum = 0 (100 samples)
	maximum = 0 (100 samples)
Injected packet rate average = 0.0200961 (100 samples)
	minimum = 0.0165738 (100 samples)
	maximum = 0.0238321 (100 samples)
Accepted packet rate average = 0.020095 (100 samples)
	minimum = 0 (100 samples)
	maximum = 0.32152 (100 samples)
Injected flit rate average = 0.0200961 (100 samples)
	minimum = 0.0165738 (100 samples)
	maximum = 0.0238321 (100 samples)
Accepted flit rate average = 0.020095 (100 samples)
	minimum = 0 (100 samples)
	maximum = 0.32152 (100 samples)
Injected packet size average = 1 (100 samples)
Accepted packet size average = 1 (100 samples)
Hops average = 6.00143 (100 samples)
Total run time 26.6871
