BEGIN Configuration File: /tmp/tmp_vrmmg4c.cfg
topology = mesh;
k = 4;
n = 2;
routing_function = romm;
num_vcs = 4;
vc_buf_size = 4;
wait_for_tail_credit = 1;
vc_allocator = islip;
sw_allocator = islip;
alloc_iters = 1;
credit_delay = 2;
routing_delay = 1;
vc_alloc_delay = 1;
sw_alloc_delay = 1;
input_speedup = 2;
output_speedup = 1;
internal_speedup = 1.0;
traffic = transpose;
packet_size = 1;
sim_type = latency;
injection_rate = 0.1;
warmup_periods = 3;
sample_period = 1000;
sim_count = 100;
seed = 0;

END Configuration File: /tmp/tmp_vrmmg4c.cfg
Class 0:
Packet latency average = 21.2268
	minimum = 7
	maximum = 90
Network latency average = 21.185
	minimum = 7
	maximum = 90
Slowest packet = 653
Flit latency average = 21.185
	minimum = 7
	maximum = 90
Slowest flit = 653
Fragmentation average = 0
	minimum = 0
	maximum = 0
Injected packet rate average = 0.095875
	minimum = 0.084 (at node 8)
	maximum = 0.106 (at node 4)
Accepted packet rate average = 0.09425
	minimum = 0.083 (at node 2)
	maximum = 0.106 (at node 10)
Injected flit rate average = 0.095875
	minimum = 0.084 (at node 8)
	maximum = 0.106 (at node 4)
Accepted flit rate average= 0.09425
	minimum = 0.083 (at node 2)
	maximum = 0.106 (at node 10)
Injected packet length average = 1
Accepted packet length average = 1
Total in-flight flits = 26 (0 measured)
latency change    = 1
throughput change = 1
Class 0:
Packet latency average = 21.587
	minimum = 7
	maximum = 110
Network latency average = 21.5387
	minimum = 7
	maximum = 108
Slowest packet = 1897
Flit latency average = 21.5387
	minimum = 7
	maximum = 108
Slowest flit = 1897
Fragmentation average = 0
	minimum = 0
	maximum = 0
Injected packet rate average = 0.0950312
	minimum = 0.084 (at node 7)
	maximum = 0.104 (at node 4)
Accepted packet rate average = 0.09375
	minimum = 0.0835 (at node 13)
	maximum = 0.103 (at node 1)
Injected flit rate average = 0.0950312
	minimum = 0.084 (at node 7)
	maximum = 0.104 (at node 4)
Accepted flit rate average= 0.09375
	minimum = 0.0835 (at node 13)
	maximum = 0.103 (at node 1)
Injected packet length average = 1
Accepted packet length average = 1
Total in-flight flits = 41 (0 measured)
latency change    = 0.0166864
throughput change = 0.00533333
Class 0:
Packet latency average = 21.391
	minimum = 7
	maximum = 111
Network latency average = 21.3801
	minimum = 7
	maximum = 111
Slowest packet = 3406
Flit latency average = 21.3801
	minimum = 7
	maximum = 111
Slowest flit = 3406
Fragmentation average = 0
	minimum = 0
	maximum = 0
Injected packet rate average = 0.102813
	minimum = 0.092 (at node 0)
	maximum = 0.116 (at node 6)
Accepted packet rate average = 0.102938
	minimum = 0.091 (at node 0)
	maximum = 0.115 (at node 5)
Injected flit rate average = 0.102813
	minimum = 0.092 (at node 0)
	maximum = 0.116 (at node 6)
Accepted flit rate average= 0.102938
	minimum = 0.091 (at node 0)
	maximum = 0.115 (at node 5)
Injected packet length average = 1
Accepted packet length average = 1
Total in-flight flits = 39 (0 measured)
latency change    = 0.00916207
throughput change = 0.0892532
Warmed up ...Time used is 3000 cycles
Class 0:
Packet latency average = 23.5231
	minimum = 7
	maximum = 123
Network latency average = 22.9479
	minimum = 7
	maximum = 118
Slowest packet = 5262
Flit latency average = 23.1166
	minimum = 7
	maximum = 118
Slowest flit = 5294
Fragmentation average = 0
	minimum = 0
	maximum = 0
Injected packet rate average = 0.099625
	minimum = 0.074 (at node 0)
	maximum = 0.122 (at node 11)
Accepted packet rate average = 0.0996875
	minimum = 0.074 (at node 0)
	maximum = 0.125 (at node 14)
Injected flit rate average = 0.099625
	minimum = 0.074 (at node 0)
	maximum = 0.122 (at node 11)
Accepted flit rate average= 0.0996875
	minimum = 0.074 (at node 0)
	maximum = 0.125 (at node 14)
Injected packet length average = 1
Accepted packet length average = 1
Total in-flight flits = 38 (38 measured)
latency change    = 0.0906394
throughput change = 0.0326019
Class 0:
Packet latency average = 22.6529
	minimum = 7
	maximum = 123
Network latency average = 22.3566
	minimum = 7
	maximum = 118
Slowest packet = 5262
Flit latency average = 22.4484
	minimum = 7
	maximum = 118
Slowest flit = 5294
Fragmentation average = 0
	minimum = 0
	maximum = 0
Injected packet rate average = 0.09925
	minimum = 0.0885 (at node 3)
	maximum = 0.1125 (at node 15)
Accepted packet rate average = 0.0995313
	minimum = 0.089 (at node 0)
	maximum = 0.1125 (at node 15)
Injected flit rate average = 0.09925
	minimum = 0.0885 (at node 3)
	maximum = 0.1125 (at node 15)
Accepted flit rate average= 0.0995313
	minimum = 0.089 (at node 0)
	maximum = 0.1125 (at node 15)
Injected packet length average = 1
Accepted packet length average = 1
Total in-flight flits = 30 (30 measured)
latency change    = 0.0384164
throughput change = 0.00156986
Class 0:
Packet latency average = 22.2746
	minimum = 7
	maximum = 123
Network latency average = 22.071
	minimum = 7
	maximum = 118
Slowest packet = 5262
Flit latency average = 22.1345
	minimum = 7
	maximum = 118
Slowest flit = 5294
Fragmentation average = 0
	minimum = 0
	maximum = 0
Injected packet rate average = 0.0993542
	minimum = 0.0936667 (at node 3)
	maximum = 0.112667 (at node 15)
Accepted packet rate average = 0.0994583
	minimum = 0.0943333 (at node 0)
	maximum = 0.112667 (at node 15)
Injected flit rate average = 0.0993542
	minimum = 0.0936667 (at node 3)
	maximum = 0.112667 (at node 15)
Accepted flit rate average= 0.0994583
	minimum = 0.0943333 (at node 0)
	maximum = 0.112667 (at node 15)
Injected packet length average = 1
Accepted packet length average = 1
Total in-flight flits = 34 (34 measured)
latency change    = 0.0169854
throughput change = 0.000733138
Class 0:
Packet latency average = 22.2742
	minimum = 7
	maximum = 123
Network latency average = 22.1148
	minimum = 7
	maximum = 123
Slowest packet = 5262
Flit latency average = 22.162
	minimum = 7
	maximum = 123
Slowest flit = 10359
Fragmentation average = 0
	minimum = 0
	maximum = 0
Injected packet rate average = 0.0997656
	minimum = 0.09375 (at node 4)
	maximum = 0.10825 (at node 15)
Accepted packet rate average = 0.0999375
	minimum = 0.09325 (at node 1)
	maximum = 0.108 (at node 15)
Injected flit rate average = 0.0997656
	minimum = 0.09375 (at node 4)
	maximum = 0.10825 (at node 15)
Accepted flit rate average= 0.0999375
	minimum = 0.09325 (at node 1)
	maximum = 0.108 (at node 15)
Injected packet length average = 1
Accepted packet length average = 1
Total in-flight flits = 28 (28 measured)
latency change    = 1.63991e-05
throughput change = 0.00479466
Draining all recorded packets ...
Draining remaining packets ...
Time taken is 7075 cycles
Class 0:
Packet latency average = 22.3194
	minimum = 7
	maximum = 93
Network latency average = 22.2954
	minimum = 7
	maximum = 93
Slowest packet = 11911
Flit latency average = 22.2954
	minimum = 7
	maximum = 93
Slowest flit = 11911
Fragmentation average = 0
	minimum = 0
	maximum = 0
Injected packet rate average = 0.101187
	minimum = 0.089 (at node 7)
	maximum = 0.124 (at node 3)
Accepted packet rate average = 0.0988125
	minimum = 0.087 (at node 13)
	maximum = 0.117 (at node 12)
Injected flit rate average = 0.101187
	minimum = 0.089 (at node 7)
	maximum = 0.124 (at node 3)
Accepted flit rate average= 0.0988125
	minimum = 0.087 (at node 13)
	maximum = 0.117 (at node 12)
Injected packet length average = 1
Accepted packet length average = 1
Total in-flight flits = 38 (0 measured)
latency change    = 1
throughput change = 1
Class 0:
Packet latency average = 21.8427
	minimum = 7
	maximum = 93
Network latency average = 21.8099
	minimum = 7
	maximum = 93
Slowest packet = 11911
Flit latency average = 21.8099
	minimum = 7
	maximum = 93
Slowest flit = 11911
Fragmentation average = 0
	minimum = 0
	maximum = 0
Injected packet rate average = 0.0993125
	minimum = 0.0915 (at node 7)
	maximum = 0.1095 (at node 8)
Accepted packet rate average = 0.098125
	minimum = 0.0905 (at node 13)
	maximum = 0.108 (at node 2)
Injected flit rate average = 0.0993125
	minimum = 0.0915 (at node 7)
	maximum = 0.1095 (at node 8)
Accepted flit rate average= 0.098125
	minimum = 0.0905 (at node 13)
	maximum = 0.108 (at node 2)
Injected packet length average = 1
Accepted packet length average = 1
Total in-flight flits = 38 (0 measured)
latency change    = 0.0218262
throughput change = 0.00700637
Class 0:
Packet latency average = 21.2026
	minimum = 7
	maximum = 78
Network latency average = 21.2013
	minimum = 7
	maximum = 78
Slowest packet = 15108
Flit latency average = 21.2013
	minimum = 7
	maximum = 78
Slowest flit = 15108
Fragmentation average = 0
	minimum = 0
	maximum = 0
Injected packet rate average = 0.094625
	minimum = 0.073 (at node 13)
	maximum = 0.11 (at node 11)
Accepted packet rate average = 0.0946875
	minimum = 0.074 (at node 7)
	maximum = 0.109 (at node 14)
Injected flit rate average = 0.094625
	minimum = 0.073 (at node 13)
	maximum = 0.11 (at node 11)
Accepted flit rate average= 0.0946875
	minimum = 0.074 (at node 7)
	maximum = 0.109 (at node 14)
Injected packet length average = 1
Accepted packet length average = 1
Total in-flight flits = 37 (0 measured)
latency change    = 0.0301866
throughput change = 0.0363036
Warmed up ...Time used is 3000 cycles
Class 0:
Packet latency average = 21.5065
	minimum = 7
	maximum = 92
Network latency average = 21.5039
	minimum = 7
	maximum = 92
Slowest packet = 16861
Flit latency average = 21.7098
	minimum = 7
	maximum = 92
Slowest flit = 16861
Fragmentation average = 0
	minimum = 0
	maximum = 0
Injected packet rate average = 0.0980625
	minimum = 0.087 (at node 14)
	maximum = 0.106 (at node 4)
Accepted packet rate average = 0.0984375
	minimum = 0.088 (at node 11)
	maximum = 0.106 (at node 9)
Injected flit rate average = 0.0980625
	minimum = 0.087 (at node 14)
	maximum = 0.106 (at node 4)
Accepted flit rate average= 0.0984375
	minimum = 0.088 (at node 11)
	maximum = 0.106 (at node 9)
Injected packet length average = 1
Accepted packet length average = 1
Total in-flight flits = 31 (31 measured)
latency change    = 0.0141288
throughput change = 0.0380952
Class 0:
Packet latency average = 21.253
	minimum = 7
	maximum = 92
Network latency average = 21.2129
	minimum = 7
	maximum = 92
Slowest packet = 16861
Flit latency average = 21.3175
	minimum = 7
	maximum = 92
Slowest flit = 16861
Fragmentation average = 0
	minimum = 0
	maximum = 0
Injected packet rate average = 0.10025
	minimum = 0.088 (at node 1)
	maximum = 0.114 (at node 0)
Accepted packet rate average = 0.100094
	minimum = 0.088 (at node 4)
	maximum = 0.114 (at node 0)
Injected flit rate average = 0.10025
	minimum = 0.088 (at node 1)
	maximum = 0.114 (at node 0)
Accepted flit rate average= 0.100094
	minimum = 0.088 (at node 4)
	maximum = 0.114 (at node 0)
Injected packet length average = 1
Accepted packet length average = 1
Total in-flight flits = 42 (42 measured)
latency change    = 0.0119278
throughput change = 0.016547
Class 0:
Packet latency average = 21.328
	minimum = 7
	maximum = 94
Network latency average = 21.2988
	minimum = 7
	maximum = 94
Slowest packet = 19809
Flit latency average = 21.3679
	minimum = 7
	maximum = 94
Slowest flit = 19809
Fragmentation average = 0
	minimum = 0
	maximum = 0
Injected packet rate average = 0.100104
	minimum = 0.0883333 (at node 14)
	maximum = 0.111333 (at node 0)
Accepted packet rate average = 0.100125
	minimum = 0.0886667 (at node 4)
	maximum = 0.111333 (at node 0)
Injected flit rate average = 0.100104
	minimum = 0.0883333 (at node 14)
	maximum = 0.111333 (at node 0)
Accepted flit rate average= 0.100125
	minimum = 0.0886667 (at node 4)
	maximum = 0.111333 (at node 0)
Injected packet length average = 1
Accepted packet length average = 1
Total in-flight flits = 36 (36 measured)
latency change    = 0.0035142
throughput change = 0.00031211
Draining all recorded packets ...
Draining remaining packets ...
Time taken is 6082 cycles
Class 0:
Packet latency average = 20.9048
	minimum = 7
	maximum = 99
Network latency average = 20.9048
	minimum = 7
	maximum = 99
Slowest packet = 22112
Flit latency average = 20.9048
	minimum = 7
	maximum = 99
Slowest flit = 22112
Fragmentation average = 0
	minimum = 0
	maximum = 0
Injected packet rate average = 0.101312
	minimum = 0.083 (at node 3)
	maximum = 0.113 (at node 12)
Accepted packet rate average = 0.09975
	minimum = 0.081 (at node 12)
	maximum = 0.111 (at node 10)
Injected flit rate average = 0.101312
	minimum = 0.083 (at node 3)
	maximum = 0.113 (at node 12)
Accepted flit rate average= 0.09975
	minimum = 0.081 (at node 12)
	maximum = 0.111 (at node 10)
Injected packet length average = 1
Accepted packet length average = 1
Total in-flight flits = 25 (0 measured)
latency change    = 1
throughput change = 1
Class 0:
Packet latency average = 21.0916
	minimum = 7
	maximum = 99
Network latency average = 21.09
	minimum = 7
	maximum = 99
Slowest packet = 22112
Flit latency average = 21.09
	minimum = 7
	maximum = 99
Slowest flit = 22112
Fragmentation average = 0
	minimum = 0
	maximum = 0
Injected packet rate average = 0.09925
	minimum = 0.089 (at node 1)
	maximum = 0.1125 (at node 10)
Accepted packet rate average = 0.0982813
	minimum = 0.087 (at node 4)
	maximum = 0.112 (at node 10)
Injected flit rate average = 0.09925
	minimum = 0.089 (at node 1)
	maximum = 0.1125 (at node 10)
Accepted flit rate average= 0.0982813
	minimum = 0.087 (at node 4)
	maximum = 0.112 (at node 10)
Injected packet length average = 1
Accepted packet length average = 1
Total in-flight flits = 31 (0 measured)
latency change    = 0.00885719
throughput change = 0.0149444
Class 0:
Packet latency average = 21.439
	minimum = 7
	maximum = 89
Network latency average = 21.4254
	minimum = 7
	maximum = 88
Slowest packet = 24271
Flit latency average = 21.4254
	minimum = 7
	maximum = 88
Slowest flit = 24271
Fragmentation average = 0
	minimum = 0
	maximum = 0
Injected packet rate average = 0.101625
	minimum = 0.076 (at node 7)
	maximum = 0.117 (at node 15)
Accepted packet rate average = 0.101375
	minimum = 0.076 (at node 13)
	maximum = 0.116 (at node 15)
Injected flit rate average = 0.101625
	minimum = 0.076 (at node 7)
	maximum = 0.117 (at node 15)
Accepted flit rate average= 0.101375
	minimum = 0.076 (at node 13)
	maximum = 0.116 (at node 15)
Injected packet length average = 1
Accepted packet length average = 1
Total in-flight flits = 35 (0 measured)
latency change    = 0.0162037
throughput change = 0.0305179
Warmed up ...Time used is 3000 cycles
Class 0:
Packet latency average = 20.5186
	minimum = 7
	maximum = 70
Network latency average = 20.5153
	minimum = 7
	maximum = 70
Slowest packet = 26899
Flit latency average = 20.6571
	minimum = 7
	maximum = 70
Slowest flit = 26899
Fragmentation average = 0
	minimum = 0
	maximum = 0
Injected packet rate average = 0.0985625
	minimum = 0.08 (at node 8)
	maximum = 0.123 (at node 11)
Accepted packet rate average = 0.097875
	minimum = 0.082 (at node 2)
	maximum = 0.121 (at node 14)
Injected flit rate average = 0.0985625
	minimum = 0.08 (at node 8)
	maximum = 0.123 (at node 11)
Accepted flit rate average= 0.097875
	minimum = 0.082 (at node 2)
	maximum = 0.121 (at node 14)
Injected packet length average = 1
Accepted packet length average = 1
Total in-flight flits = 46 (46 measured)
latency change    = 0.0448543
throughput change = 0.0357599
Class 0:
Packet latency average = 21.1809
	minimum = 7
	maximum = 81
Network latency average = 21.1783
	minimum = 7
	maximum = 81
Slowest packet = 27080
Flit latency average = 21.2414
	minimum = 7
	maximum = 81
Slowest flit = 27080
Fragmentation average = 0
	minimum = 0
	maximum = 0
Injected packet rate average = 0.0984375
	minimum = 0.0865 (at node 15)
	maximum = 0.113 (at node 11)
Accepted packet rate average = 0.098375
	minimum = 0.086 (at node 15)
	maximum = 0.1115 (at node 14)
Injected flit rate average = 0.0984375
	minimum = 0.0865 (at node 15)
	maximum = 0.113 (at node 11)
Accepted flit rate average= 0.098375
	minimum = 0.086 (at node 15)
	maximum = 0.1115 (at node 14)
Injected packet length average = 1
Accepted packet length average = 1
Total in-flight flits = 37 (37 measured)
latency change    = 0.0312659
throughput change = 0.00508259
Class 0:
Packet latency average = 21.4894
	minimum = 7
	maximum = 87
Network latency average = 21.4658
	minimum = 7
	maximum = 87
Slowest packet = 29186
Flit latency average = 21.5052
	minimum = 7
	maximum = 87
Slowest flit = 29186
Fragmentation average = 0
	minimum = 0
	maximum = 0
Injected packet rate average = 0.0998333
	minimum = 0.0906667 (at node 15)
	maximum = 0.11 (at node 10)
Accepted packet rate average = 0.0998333
	minimum = 0.0906667 (at node 15)
	maximum = 0.110667 (at node 10)
Injected flit rate average = 0.0998333
	minimum = 0.0906667 (at node 15)
	maximum = 0.11 (at node 10)
Accepted flit rate average= 0.0998333
	minimum = 0.0906667 (at node 15)
	maximum = 0.110667 (at node 10)
Injected packet length average = 1
Accepted packet length average = 1
Total in-flight flits = 35 (35 measured)
latency change    = 0.0143573
throughput change = 0.0146077
Draining all recorded packets ...
Draining remaining packets ...
Time taken is 6066 cycles
Class 0:
Packet latency average = 21.1374
	minimum = 7
	maximum = 81
Network latency average = 21.1309
	minimum = 7
	maximum = 81
Slowest packet = 31672
Flit latency average = 21.1309
	minimum = 7
	maximum = 81
Slowest flit = 31672
Fragmentation average = 0
	minimum = 0
	maximum = 0
Injected packet rate average = 0.0978125
	minimum = 0.085 (at node 15)
	maximum = 0.114 (at node 7)
Accepted packet rate average = 0.096
	minimum = 0.085 (at node 15)
	maximum = 0.11 (at node 13)
Injected flit rate average = 0.0978125
	minimum = 0.085 (at node 15)
	maximum = 0.114 (at node 7)
Accepted flit rate average= 0.096
	minimum = 0.085 (at node 15)
	maximum = 0.11 (at node 13)
Injected packet length average = 1
Accepted packet length average = 1
Total in-flight flits = 29 (0 measured)
latency change    = 1
throughput change = 1
Class 0:
Packet latency average = 21.6744
	minimum = 7
	maximum = 82
Network latency average = 21.6571
	minimum = 7
	maximum = 82
Slowest packet = 32469
Flit latency average = 21.6571
	minimum = 7
	maximum = 82
Slowest flit = 32469
Fragmentation average = 0
	minimum = 0
	maximum = 0
Injected packet rate average = 0.100625
	minimum = 0.0905 (at node 15)
	maximum = 0.113 (at node 7)
Accepted packet rate average = 0.0994375
	minimum = 0.0895 (at node 15)
	maximum = 0.111 (at node 13)
Injected flit rate average = 0.100625
	minimum = 0.0905 (at node 15)
	maximum = 0.113 (at node 7)
Accepted flit rate average= 0.0994375
	minimum = 0.0895 (at node 15)
	maximum = 0.111 (at node 13)
Injected packet length average = 1
Accepted packet length average = 1
Total in-flight flits = 38 (0 measured)
latency change    = 0.024778
throughput change = 0.0345695
Class 0:
Packet latency average = 24.6738
	minimum = 7
	maximum = 212
Network latency average = 23.3791
	minimum = 7
	maximum = 185
Slowest packet = 33961
Flit latency average = 23.3791
	minimum = 7
	maximum = 185
Slowest flit = 33961
Fragmentation average = 0
	minimum = 0
	maximum = 0
Injected packet rate average = 0.101312
	minimum = 0.089 (at node 11)
	maximum = 0.115 (at node 13)
Accepted packet rate average = 0.101562
	minimum = 0.089 (at node 14)
	maximum = 0.117 (at node 7)
Injected flit rate average = 0.101312
	minimum = 0.089 (at node 11)
	maximum = 0.115 (at node 13)
Accepted flit rate average= 0.101562
	minimum = 0.089 (at node 14)
	maximum = 0.117 (at node 7)
Injected packet length average = 1
Accepted packet length average = 1
Total in-flight flits = 34 (0 measured)
latency change    = 0.121563
throughput change = 0.0209231
Warmed up ...Time used is 3000 cycles
Class 0:
Packet latency average = 26.1298
	minimum = 7
	maximum = 161
Network latency average = 24.1495
	minimum = 7
	maximum = 161
Slowest packet = 35684
Flit latency average = 24.1798
	minimum = 7
	maximum = 161
Slowest flit = 35684
Fragmentation average = 0
	minimum = 0
	maximum = 0
Injected packet rate average = 0.0971875
	minimum = 0.082 (at node 1)
	maximum = 0.132 (at node 3)
Accepted packet rate average = 0.097
	minimum = 0.083 (at node 4)
	maximum = 0.125 (at node 12)
Injected flit rate average = 0.0971875
	minimum = 0.082 (at node 1)
	maximum = 0.132 (at node 3)
Accepted flit rate average= 0.097
	minimum = 0.083 (at node 4)
	maximum = 0.125 (at node 12)
Injected packet length average = 1
Accepted packet length average = 1
Total in-flight flits = 37 (37 measured)
latency change    = 0.0557192
throughput change = 0.0470361
Class 0:
Packet latency average = 23.9805
	minimum = 7
	maximum = 161
Network latency average = 23.0036
	minimum = 7
	maximum = 161
Slowest packet = 35684
Flit latency average = 23.0312
	minimum = 7
	maximum = 161
Slowest flit = 35684
Fragmentation average = 0
	minimum = 0
	maximum = 0
Injected packet rate average = 0.0970625
	minimum = 0.087 (at node 1)
	maximum = 0.1205 (at node 3)
Accepted packet rate average = 0.0972812
	minimum = 0.0865 (at node 4)
	maximum = 0.12 (at node 12)
Injected flit rate average = 0.0970625
	minimum = 0.087 (at node 1)
	maximum = 0.1205 (at node 3)
Accepted flit rate average= 0.0972812
	minimum = 0.0865 (at node 4)
	maximum = 0.12 (at node 12)
Injected packet length average = 1
Accepted packet length average = 1
Total in-flight flits = 27 (27 measured)
latency change    = 0.0896254
throughput change = 0.0028911
Class 0:
Packet latency average = 23.2472
	minimum = 7
	maximum = 161
Network latency average = 22.6042
	minimum = 7
	maximum = 161
Slowest packet = 35684
Flit latency average = 22.6252
	minimum = 7
	maximum = 161
Slowest flit = 35684
Fragmentation average = 0
	minimum = 0
	maximum = 0
Injected packet rate average = 0.0987292
	minimum = 0.086 (at node 6)
	maximum = 0.116 (at node 3)
Accepted packet rate average = 0.0985625
	minimum = 0.0863333 (at node 9)
	maximum = 0.115333 (at node 12)
Injected flit rate average = 0.0987292
	minimum = 0.086 (at node 6)
	maximum = 0.116 (at node 3)
Accepted flit rate average= 0.0985625
	minimum = 0.0863333 (at node 9)
	maximum = 0.115333 (at node 12)
Injected packet length average = 1
Accepted packet length average = 1
Total in-flight flits = 42 (42 measured)
latency change    = 0.0315451
throughput change = 0.0129994
Class 0:
Packet latency average = 22.8882
	minimum = 7
	maximum = 161
Network latency average = 22.403
	minimum = 7
	maximum = 161
Slowest packet = 35684
Flit latency average = 22.4199
	minimum = 7
	maximum = 161
Slowest flit = 35684
Fragmentation average = 0
	minimum = 0
	maximum = 0
Injected packet rate average = 0.0981719
	minimum = 0.09025 (at node 2)
	maximum = 0.114 (at node 3)
Accepted packet rate average = 0.0980781
	minimum = 0.09025 (at node 8)
	maximum = 0.11375 (at node 12)
Injected flit rate average = 0.0981719
	minimum = 0.09025 (at node 2)
	maximum = 0.114 (at node 3)
Accepted flit rate average= 0.0980781
	minimum = 0.09025 (at node 8)
	maximum = 0.11375 (at node 12)
Injected packet length average = 1
Accepted packet length average = 1
Total in-flight flits = 40 (40 measured)
latency change    = 0.0156843
throughput change = 0.00493866
Class 0:
Packet latency average = 22.8669
	minimum = 7
	maximum = 161
Network latency average = 22.4269
	minimum = 7
	maximum = 161
Slowest packet = 35684
Flit latency average = 22.4403
	minimum = 7
	maximum = 161
Slowest flit = 35684
Fragmentation average = 0
	minimum = 0
	maximum = 0
Injected packet rate average = 0.09825
	minimum = 0.0912 (at node 2)
	maximum = 0.1098 (at node 3)
Accepted packet rate average = 0.09825
	minimum = 0.091 (at node 8)
	maximum = 0.1094 (at node 12)
Injected flit rate average = 0.09825
	minimum = 0.0912 (at node 2)
	maximum = 0.1098 (at node 3)
Accepted flit rate average= 0.09825
	minimum = 0.091 (at node 8)
	maximum = 0.1094 (at node 12)
Injected packet length average = 1
Accepted packet length average = 1
Total in-flight flits = 34 (34 measured)
latency change    = 0.000933259
throughput change = 0.00174936
Draining all recorded packets ...
Draining remaining packets ...
Time taken is 8061 cycles
Class 0:
Packet latency average = 22.0085
	minimum = 7
	maximum = 94
Network latency average = 22.0033
	minimum = 7
	maximum = 94
Slowest packet = 43814
Flit latency average = 22.0033
	minimum = 7
	maximum = 94
Slowest flit = 43814
Fragmentation average = 0
	minimum = 0
	maximum = 0
Injected packet rate average = 0.09775
	minimum = 0.079 (at node 7)
	maximum = 0.113 (at node 12)
Accepted packet rate average = 0.095375
	minimum = 0.076 (at node 13)
	maximum = 0.106 (at node 3)
Injected flit rate average = 0.09775
	minimum = 0.079 (at node 7)
	maximum = 0.113 (at node 12)
Accepted flit rate average= 0.095375
	minimum = 0.076 (at node 13)
	maximum = 0.106 (at node 3)
Injected packet length average = 1
Accepted packet length average = 1
Total in-flight flits = 38 (0 measured)
latency change    = 1
throughput change = 1
Class 0:
Packet latency average = 21.8449
	minimum = 7
	maximum = 94
Network latency average = 21.8263
	minimum = 7
	maximum = 94
Slowest packet = 43814
Flit latency average = 21.8263
	minimum = 7
	maximum = 94
Slowest flit = 43814
Fragmentation average = 0
	minimum = 0
	maximum = 0
Injected packet rate average = 0.0982813
	minimum = 0.0865 (at node 2)
	maximum = 0.1125 (at node 11)
Accepted packet rate average = 0.0973125
	minimum = 0.086 (at node 13)
	maximum = 0.1105 (at node 14)
Injected flit rate average = 0.0982813
	minimum = 0.0865 (at node 2)
	maximum = 0.1125 (at node 11)
Accepted flit rate average= 0.0973125
	minimum = 0.086 (at node 13)
	maximum = 0.1105 (at node 14)
Injected packet length average = 1
Accepted packet length average = 1
Total in-flight flits = 31 (0 measured)
latency change    = 0.00749031
throughput change = 0.0199101
Class 0:
Packet latency average = 20.7494
	minimum = 7
	maximum = 65
Network latency average = 20.7256
	minimum = 7
	maximum = 65
Slowest packet = 47678
Flit latency average = 20.7256
	minimum = 7
	maximum = 65
Slowest flit = 47678
Fragmentation average = 0
	minimum = 0
	maximum = 0
Injected packet rate average = 0.0973125
	minimum = 0.085 (at node 8)
	maximum = 0.113 (at node 4)
Accepted packet rate average = 0.0975
	minimum = 0.082 (at node 2)
	maximum = 0.114 (at node 1)
Injected flit rate average = 0.0973125
	minimum = 0.085 (at node 8)
	maximum = 0.113 (at node 4)
Accepted flit rate average= 0.0975
	minimum = 0.082 (at node 2)
	maximum = 0.114 (at node 1)
Injected packet length average = 1
Accepted packet length average = 1
Total in-flight flits = 28 (0 measured)
latency change    = 0.0527985
throughput change = 0.00192308
Warmed up ...Time used is 3000 cycles
Class 0:
Packet latency average = 22.0637
	minimum = 7
	maximum = 124
Network latency average = 21.9338
	minimum = 7
	maximum = 124
Slowest packet = 48490
Flit latency average = 22.0613
	minimum = 7
	maximum = 124
Slowest flit = 48490
Fragmentation average = 0
	minimum = 0
	maximum = 0
Injected packet rate average = 0.10125
	minimum = 0.089 (at node 4)
	maximum = 0.118 (at node 15)
Accepted packet rate average = 0.101875
	minimum = 0.088 (at node 1)
	maximum = 0.117 (at node 15)
Injected flit rate average = 0.10125
	minimum = 0.089 (at node 4)
	maximum = 0.118 (at node 15)
Accepted flit rate average= 0.101875
	minimum = 0.088 (at node 1)
	maximum = 0.117 (at node 15)
Injected packet length average = 1
Accepted packet length average = 1
Total in-flight flits = 18 (18 measured)
latency change    = 0.059569
throughput change = 0.0429448
Class 0:
Packet latency average = 22.0193
	minimum = 7
	maximum = 124
Network latency average = 21.9418
	minimum = 7
	maximum = 124
Slowest packet = 48490
Flit latency average = 22.0059
	minimum = 7
	maximum = 124
Slowest flit = 48490
Fragmentation average = 0
	minimum = 0
	maximum = 0
Injected packet rate average = 0.101156
	minimum = 0.0955 (at node 5)
	maximum = 0.1105 (at node 15)
Accepted packet rate average = 0.101219
	minimum = 0.095 (at node 12)
	maximum = 0.1105 (at node 15)
Injected flit rate average = 0.101156
	minimum = 0.0955 (at node 5)
	maximum = 0.1105 (at node 15)
Accepted flit rate average= 0.101219
	minimum = 0.095 (at node 12)
	maximum = 0.1105 (at node 15)
Injected packet length average = 1
Accepted packet length average = 1
Total in-flight flits = 26 (26 measured)
latency change    = 0.00201468
throughput change = 0.00648348
Class 0:
Packet latency average = 21.6774
	minimum = 7
	maximum = 124
Network latency average = 21.6251
	minimum = 7
	maximum = 124
Slowest packet = 48490
Flit latency average = 21.6701
	minimum = 7
	maximum = 124
Slowest flit = 48490
Fragmentation average = 0
	minimum = 0
	maximum = 0
Injected packet rate average = 0.100292
	minimum = 0.0933333 (at node 3)
	maximum = 0.107667 (at node 14)
Accepted packet rate average = 0.100042
	minimum = 0.0923333 (at node 12)
	maximum = 0.107667 (at node 11)
Injected flit rate average = 0.100292
	minimum = 0.0933333 (at node 3)
	maximum = 0.107667 (at node 14)
Accepted flit rate average= 0.100042
	minimum = 0.0923333 (at node 12)
	maximum = 0.107667 (at node 11)
Injected packet length average = 1
Accepted packet length average = 1
Total in-flight flits = 40 (40 measured)
latency change    = 0.0157717
throughput change = 0.0117659
Class 0:
Packet latency average = 21.9479
	minimum = 7
	maximum = 127
Network latency average = 21.8664
	minimum = 7
	maximum = 127
Slowest packet = 53895
Flit latency average = 21.899
	minimum = 7
	maximum = 127
Slowest flit = 53895
Fragmentation average = 0
	minimum = 0
	maximum = 0
Injected packet rate average = 0.100547
	minimum = 0.09525 (at node 3)
	maximum = 0.10625 (at node 14)
Accepted packet rate average = 0.100562
	minimum = 0.095 (at node 12)
	maximum = 0.106 (at node 11)
Injected flit rate average = 0.100547
	minimum = 0.09525 (at node 3)
	maximum = 0.10625 (at node 14)
Accepted flit rate average= 0.100562
	minimum = 0.095 (at node 12)
	maximum = 0.106 (at node 11)
Injected packet length average = 1
Accepted packet length average = 1
Total in-flight flits = 27 (27 measured)
latency change    = 0.0123228
throughput change = 0.0051792
Draining all recorded packets ...
Draining remaining packets ...
Time taken is 7075 cycles
Class 0:
Packet latency average = 21.7381
	minimum = 7
	maximum = 92
Network latency average = 21.6827
	minimum = 7
	maximum = 89
Slowest packet = 54663
Flit latency average = 21.6827
	minimum = 7
	maximum = 89
Slowest flit = 54774
Fragmentation average = 0
	minimum = 0
	maximum = 0
Injected packet rate average = 0.105063
	minimum = 0.094 (at node 7)
	maximum = 0.123 (at node 10)
Accepted packet rate average = 0.102625
	minimum = 0.091 (at node 13)
	maximum = 0.123 (at node 10)
Injected flit rate average = 0.105063
	minimum = 0.094 (at node 7)
	maximum = 0.123 (at node 10)
Accepted flit rate average= 0.102625
	minimum = 0.091 (at node 13)
	maximum = 0.123 (at node 10)
Injected packet length average = 1
Accepted packet length average = 1
Total in-flight flits = 39 (0 measured)
latency change    = 1
throughput change = 1
Class 0:
Packet latency average = 21.8558
	minimum = 7
	maximum = 118
Network latency average = 21.8015
	minimum = 7
	maximum = 118
Slowest packet = 56920
Flit latency average = 21.8015
	minimum = 7
	maximum = 118
Slowest flit = 56920
Fragmentation average = 0
	minimum = 0
	maximum = 0
Injected packet rate average = 0.10225
	minimum = 0.09 (at node 4)
	maximum = 0.116 (at node 10)
Accepted packet rate average = 0.101406
	minimum = 0.0895 (at node 1)
	maximum = 0.116 (at node 10)
Injected flit rate average = 0.10225
	minimum = 0.09 (at node 4)
	maximum = 0.116 (at node 10)
Accepted flit rate average= 0.101406
	minimum = 0.0895 (at node 1)
	maximum = 0.116 (at node 10)
Injected packet length average = 1
Accepted packet length average = 1
Total in-flight flits = 27 (0 measured)
latency change    = 0.00538319
throughput change = 0.0120185
Class 0:
Packet latency average = 24.0328
	minimum = 7
	maximum = 144
Network latency average = 23.9356
	minimum = 7
	maximum = 140
Slowest packet = 58831
Flit latency average = 23.9356
	minimum = 7
	maximum = 140
Slowest flit = 58831
Fragmentation average = 0
	minimum = 0
	maximum = 0
Injected packet rate average = 0.100187
	minimum = 0.074 (at node 10)
	maximum = 0.119 (at node 13)
Accepted packet rate average = 0.0990625
	minimum = 0.074 (at node 10)
	maximum = 0.114 (at node 7)
Injected flit rate average = 0.100187
	minimum = 0.074 (at node 10)
	maximum = 0.119 (at node 13)
Accepted flit rate average= 0.0990625
	minimum = 0.074 (at node 10)
	maximum = 0.114 (at node 7)
Injected packet length average = 1
Accepted packet length average = 1
Total in-flight flits = 45 (0 measured)
latency change    = 0.0905857
throughput change = 0.0236593
Warmed up ...Time used is 3000 cycles
Class 0:
Packet latency average = 21.7415
	minimum = 7
	maximum = 108
Network latency average = 21.6738
	minimum = 7
	maximum = 108
Slowest packet = 59982
Flit latency average = 22.1579
	minimum = 7
	maximum = 108
Slowest flit = 59982
Fragmentation average = 0
	minimum = 0
	maximum = 0
Injected packet rate average = 0.0994375
	minimum = 0.081 (at node 7)
	maximum = 0.126 (at node 11)
Accepted packet rate average = 0.09975
	minimum = 0.08 (at node 0)
	maximum = 0.126 (at node 14)
Injected flit rate average = 0.0994375
	minimum = 0.081 (at node 7)
	maximum = 0.126 (at node 11)
Accepted flit rate average= 0.09975
	minimum = 0.08 (at node 0)
	maximum = 0.126 (at node 14)
Injected packet length average = 1
Accepted packet length average = 1
Total in-flight flits = 40 (40 measured)
latency change    = 0.105391
throughput change = 0.00689223
Class 0:
Packet latency average = 21.7389
	minimum = 7
	maximum = 108
Network latency average = 21.6923
	minimum = 7
	maximum = 108
Slowest packet = 59982
Flit latency average = 21.9335
	minimum = 7
	maximum = 108
Slowest flit = 59982
Fragmentation average = 0
	minimum = 0
	maximum = 0
Injected packet rate average = 0.0995625
	minimum = 0.086 (at node 0)
	maximum = 0.116 (at node 5)
Accepted packet rate average = 0.100031
	minimum = 0.086 (at node 0)
	maximum = 0.116 (at node 5)
Injected flit rate average = 0.0995625
	minimum = 0.086 (at node 0)
	maximum = 0.116 (at node 5)
Accepted flit rate average= 0.100031
	minimum = 0.086 (at node 0)
	maximum = 0.116 (at node 5)
Injected packet length average = 1
Accepted packet length average = 1
Total in-flight flits = 30 (30 measured)
latency change    = 0.000117168
throughput change = 0.00281162
Class 0:
Packet latency average = 21.7514
	minimum = 7
	maximum = 108
Network latency average = 21.7189
	minimum = 7
	maximum = 108
Slowest packet = 59982
Flit latency average = 21.8802
	minimum = 7
	maximum = 108
Slowest flit = 59982
Fragmentation average = 0
	minimum = 0
	maximum = 0
Injected packet rate average = 0.0993125
	minimum = 0.0836667 (at node 0)
	maximum = 0.11 (at node 5)
Accepted packet rate average = 0.0995
	minimum = 0.0833333 (at node 0)
	maximum = 0.11 (at node 14)
Injected flit rate average = 0.0993125
	minimum = 0.0836667 (at node 0)
	maximum = 0.11 (at node 5)
Accepted flit rate average= 0.0995
	minimum = 0.0833333 (at node 0)
	maximum = 0.11 (at node 14)
Injected packet length average = 1
Accepted packet length average = 1
Total in-flight flits = 36 (36 measured)
latency change    = 0.000575445
throughput change = 0.0053392
Class 0:
Packet latency average = 21.7864
	minimum = 7
	maximum = 108
Network latency average = 21.7461
	minimum = 7
	maximum = 108
Slowest packet = 59982
Flit latency average = 21.8658
	minimum = 7
	maximum = 108
Slowest flit = 59982
Fragmentation average = 0
	minimum = 0
	maximum = 0
Injected packet rate average = 0.100359
	minimum = 0.0905 (at node 0)
	maximum = 0.1115 (at node 5)
Accepted packet rate average = 0.100391
	minimum = 0.09025 (at node 0)
	maximum = 0.11125 (at node 5)
Injected flit rate average = 0.100359
	minimum = 0.0905 (at node 0)
	maximum = 0.1115 (at node 5)
Accepted flit rate average= 0.100391
	minimum = 0.09025 (at node 0)
	maximum = 0.11125 (at node 5)
Injected packet length average = 1
Accepted packet length average = 1
Total in-flight flits = 43 (43 measured)
latency change    = 0.00160361
throughput change = 0.0088716
Draining all recorded packets ...
Draining remaining packets ...
Time taken is 7088 cycles
Class 0:
Packet latency average = 22.6652
	minimum = 7
	maximum = 126
Network latency average = 22.2302
	minimum = 7
	maximum = 123
Slowest packet = 65981
Flit latency average = 22.2302
	minimum = 7
	maximum = 123
Slowest flit = 65981
Fragmentation average = 0
	minimum = 0
	maximum = 0
Injected packet rate average = 0.1005
	minimum = 0.087 (at node 2)
	maximum = 0.127 (at node 13)
Accepted packet rate average = 0.098
	minimum = 0.084 (at node 8)
	maximum = 0.12 (at node 7)
Injected flit rate average = 0.1005
	minimum = 0.087 (at node 2)
	maximum = 0.127 (at node 13)
Accepted flit rate average= 0.098
	minimum = 0.084 (at node 8)
	maximum = 0.12 (at node 7)
Injected packet length average = 1
Accepted packet length average = 1
Total in-flight flits = 40 (0 measured)
latency change    = 1
throughput change = 1
Class 0:
Packet latency average = 22.4385
	minimum = 7
	maximum = 126
Network latency average = 22.209
	minimum = 7
	maximum = 123
Slowest packet = 65981
Flit latency average = 22.209
	minimum = 7
	maximum = 123
Slowest flit = 65981
Fragmentation average = 0
	minimum = 0
	maximum = 0
Injected packet rate average = 0.100469
	minimum = 0.0915 (at node 1)
	maximum = 0.1155 (at node 13)
Accepted packet rate average = 0.0988437
	minimum = 0.09 (at node 4)
	maximum = 0.1125 (at node 7)
Injected flit rate average = 0.100469
	minimum = 0.0915 (at node 1)
	maximum = 0.1155 (at node 13)
Accepted flit rate average= 0.0988437
	minimum = 0.09 (at node 4)
	maximum = 0.1125 (at node 7)
Injected packet length average = 1
Accepted packet length average = 1
Total in-flight flits = 53 (0 measured)
latency change    = 0.0101019
throughput change = 0.0085362
Class 0:
Packet latency average = 21.7517
	minimum = 7
	maximum = 118
Network latency average = 21.6673
	minimum = 7
	maximum = 118
Slowest packet = 69385
Flit latency average = 21.6673
	minimum = 7
	maximum = 118
Slowest flit = 69385
Fragmentation average = 0
	minimum = 0
	maximum = 0
Injected packet rate average = 0.09725
	minimum = 0.077 (at node 7)
	maximum = 0.129 (at node 14)
Accepted packet rate average = 0.0984375
	minimum = 0.075 (at node 13)
	maximum = 0.136 (at node 11)
Injected flit rate average = 0.09725
	minimum = 0.077 (at node 7)
	maximum = 0.129 (at node 14)
Accepted flit rate average= 0.0984375
	minimum = 0.075 (at node 13)
	maximum = 0.136 (at node 11)
Injected packet length average = 1
Accepted packet length average = 1
Total in-flight flits = 33 (0 measured)
latency change    = 0.0315727
throughput change = 0.00412698
Warmed up ...Time used is 3000 cycles
Class 0:
Packet latency average = 22.2697
	minimum = 7
	maximum = 133
Network latency average = 22.2133
	minimum = 7
	maximum = 133
Slowest packet = 71619
Flit latency average = 22.4304
	minimum = 7
	maximum = 133
Slowest flit = 71619
Fragmentation average = 0
	minimum = 0
	maximum = 0
Injected packet rate average = 0.0995
	minimum = 0.084 (at node 7)
	maximum = 0.119 (at node 13)
Accepted packet rate average = 0.099625
	minimum = 0.087 (at node 13)
	maximum = 0.118 (at node 7)
Injected flit rate average = 0.0995
	minimum = 0.084 (at node 7)
	maximum = 0.119 (at node 13)
Accepted flit rate average= 0.099625
	minimum = 0.087 (at node 13)
	maximum = 0.118 (at node 7)
Injected packet length average = 1
Accepted packet length average = 1
Total in-flight flits = 31 (31 measured)
latency change    = 0.0232582
throughput change = 0.0119197
Class 0:
Packet latency average = 22.1931
	minimum = 7
	maximum = 133
Network latency average = 22.1619
	minimum = 7
	maximum = 133
Slowest packet = 71619
Flit latency average = 22.2693
	minimum = 7
	maximum = 133
Slowest flit = 71619
Fragmentation average = 0
	minimum = 0
	maximum = 0
Injected packet rate average = 0.101344
	minimum = 0.0865 (at node 2)
	maximum = 0.1195 (at node 3)
Accepted packet rate average = 0.101187
	minimum = 0.0855 (at node 8)
	maximum = 0.12 (at node 12)
Injected flit rate average = 0.101344
	minimum = 0.0865 (at node 2)
	maximum = 0.1195 (at node 3)
Accepted flit rate average= 0.101187
	minimum = 0.0855 (at node 8)
	maximum = 0.12 (at node 12)
Injected packet length average = 1
Accepted packet length average = 1
Total in-flight flits = 38 (38 measured)
latency change    = 0.00344986
throughput change = 0.0154416
Class 0:
Packet latency average = 22.1752
	minimum = 7
	maximum = 133
Network latency average = 22.1138
	minimum = 7
	maximum = 133
Slowest packet = 71619
Flit latency average = 22.186
	minimum = 7
	maximum = 133
Slowest flit = 71619
Fragmentation average = 0
	minimum = 0
	maximum = 0
Injected packet rate average = 0.100771
	minimum = 0.085 (at node 2)
	maximum = 0.111 (at node 3)
Accepted packet rate average = 0.100792
	minimum = 0.0853333 (at node 8)
	maximum = 0.112667 (at node 12)
Injected flit rate average = 0.100771
	minimum = 0.085 (at node 2)
	maximum = 0.111 (at node 3)
Accepted flit rate average= 0.100792
	minimum = 0.0853333 (at node 8)
	maximum = 0.112667 (at node 12)
Injected packet length average = 1
Accepted packet length average = 1
Total in-flight flits = 32 (32 measured)
latency change    = 0.000807279
throughput change = 0.00392724
Draining all recorded packets ...
Draining remaining packets ...
Time taken is 6080 cycles
Class 0:
Packet latency average = 22.2755
	minimum = 7
	maximum = 114
Network latency average = 22.2217
	minimum = 7
	maximum = 104
Slowest packet = 76402
Flit latency average = 22.2217
	minimum = 7
	maximum = 104
Slowest flit = 76402
Fragmentation average = 0
	minimum = 0
	maximum = 0
Injected packet rate average = 0.102188
	minimum = 0.092 (at node 5)
	maximum = 0.115 (at node 15)
Accepted packet rate average = 0.0998125
	minimum = 0.09 (at node 6)
	maximum = 0.113 (at node 15)
Injected flit rate average = 0.102188
	minimum = 0.092 (at node 5)
	maximum = 0.115 (at node 15)
Accepted flit rate average= 0.0998125
	minimum = 0.09 (at node 6)
	maximum = 0.113 (at node 15)
Injected packet length average = 1
Accepted packet length average = 1
Total in-flight flits = 38 (0 measured)
latency change    = 1
throughput change = 1
Class 0:
Packet latency average = 21.665
	minimum = 7
	maximum = 114
Network latency average = 21.6374
	minimum = 7
	maximum = 104
Slowest packet = 76402
Flit latency average = 21.6374
	minimum = 7
	maximum = 104
Slowest flit = 76402
Fragmentation average = 0
	minimum = 0
	maximum = 0
Injected packet rate average = 0.100812
	minimum = 0.0905 (at node 0)
	maximum = 0.109 (at node 15)
Accepted packet rate average = 0.0998125
	minimum = 0.0905 (at node 0)
	maximum = 0.109 (at node 15)
Injected flit rate average = 0.100812
	minimum = 0.0905 (at node 0)
	maximum = 0.109 (at node 15)
Accepted flit rate average= 0.0998125
	minimum = 0.0905 (at node 0)
	maximum = 0.109 (at node 15)
Injected packet length average = 1
Accepted packet length average = 1
Total in-flight flits = 32 (0 measured)
latency change    = 0.02818
throughput change = 0
Class 0:
Packet latency average = 21.0205
	minimum = 7
	maximum = 68
Network latency average = 21.0192
	minimum = 7
	maximum = 68
Slowest packet = 79610
Flit latency average = 21.0192
	minimum = 7
	maximum = 68
Slowest flit = 79610
Fragmentation average = 0
	minimum = 0
	maximum = 0
Injected packet rate average = 0.09825
	minimum = 0.082 (at node 15)
	maximum = 0.12 (at node 14)
Accepted packet rate average = 0.0975625
	minimum = 0.081 (at node 15)
	maximum = 0.119 (at node 11)
Injected flit rate average = 0.09825
	minimum = 0.082 (at node 15)
	maximum = 0.12 (at node 14)
Accepted flit rate average= 0.0975625
	minimum = 0.081 (at node 15)
	maximum = 0.119 (at node 11)
Injected packet length average = 1
Accepted packet length average = 1
Total in-flight flits = 43 (0 measured)
latency change    = 0.0306604
throughput change = 0.0230621
Warmed up ...Time used is 3000 cycles
Class 0:
Packet latency average = 21.0331
	minimum = 7
	maximum = 82
Network latency average = 21.022
	minimum = 7
	maximum = 82
Slowest packet = 81000
Flit latency average = 21.1791
	minimum = 7
	maximum = 82
Slowest flit = 81000
Fragmentation average = 0
	minimum = 0
	maximum = 0
Injected packet rate average = 0.09825
	minimum = 0.084 (at node 6)
	maximum = 0.112 (at node 0)
Accepted packet rate average = 0.099125
	minimum = 0.083 (at node 12)
	maximum = 0.114 (at node 1)
Injected flit rate average = 0.09825
	minimum = 0.084 (at node 6)
	maximum = 0.112 (at node 0)
Accepted flit rate average= 0.099125
	minimum = 0.083 (at node 12)
	maximum = 0.114 (at node 1)
Injected packet length average = 1
Accepted packet length average = 1
Total in-flight flits = 29 (29 measured)
latency change    = 0.000596814
throughput change = 0.0157629
Class 0:
Packet latency average = 21.5187
	minimum = 7
	maximum = 104
Network latency average = 21.5115
	minimum = 7
	maximum = 104
Slowest packet = 82214
Flit latency average = 21.5815
	minimum = 7
	maximum = 104
Slowest flit = 82214
Fragmentation average = 0
	minimum = 0
	maximum = 0
Injected packet rate average = 0.101719
	minimum = 0.0925 (at node 14)
	maximum = 0.1095 (at node 15)
Accepted packet rate average = 0.101844
	minimum = 0.0925 (at node 9)
	maximum = 0.11 (at node 1)
Injected flit rate average = 0.101719
	minimum = 0.0925 (at node 14)
	maximum = 0.1095 (at node 15)
Accepted flit rate average= 0.101844
	minimum = 0.0925 (at node 9)
	maximum = 0.11 (at node 1)
Injected packet length average = 1
Accepted packet length average = 1
Total in-flight flits = 39 (39 measured)
latency change    = 0.0225667
throughput change = 0.0266953
Class 0:
Packet latency average = 21.994
	minimum = 7
	maximum = 113
Network latency average = 21.9139
	minimum = 7
	maximum = 113
Slowest packet = 83771
Flit latency average = 21.9571
	minimum = 7
	maximum = 113
Slowest flit = 83771
Fragmentation average = 0
	minimum = 0
	maximum = 0
Injected packet rate average = 0.101208
	minimum = 0.093 (at node 10)
	maximum = 0.113667 (at node 15)
Accepted packet rate average = 0.101542
	minimum = 0.093 (at node 10)
	maximum = 0.114 (at node 15)
Injected flit rate average = 0.101208
	minimum = 0.093 (at node 10)
	maximum = 0.113667 (at node 15)
Accepted flit rate average= 0.101542
	minimum = 0.093 (at node 10)
	maximum = 0.114 (at node 15)
Injected packet length average = 1
Accepted packet length average = 1
Total in-flight flits = 28 (28 measured)
latency change    = 0.0216123
throughput change = 0.00297497
Draining all recorded packets ...
Draining remaining packets ...
Time taken is 6127 cycles
Class 0:
Packet latency average = 21.1811
	minimum = 7
	maximum = 75
Network latency average = 21.1811
	minimum = 7
	maximum = 75
Slowest packet = 86403
Flit latency average = 21.1811
	minimum = 7
	maximum = 75
Slowest flit = 86403
Fragmentation average = 0
	minimum = 0
	maximum = 0
Injected packet rate average = 0.0994375
	minimum = 0.079 (at node 8)
	maximum = 0.123 (at node 7)
Accepted packet rate average = 0.0973125
	minimum = 0.078 (at node 2)
	maximum = 0.121 (at node 13)
Injected flit rate average = 0.0994375
	minimum = 0.079 (at node 8)
	maximum = 0.123 (at node 7)
Accepted flit rate average= 0.0973125
	minimum = 0.078 (at node 2)
	maximum = 0.121 (at node 13)
Injected packet length average = 1
Accepted packet length average = 1
Total in-flight flits = 34 (0 measured)
latency change    = 1
throughput change = 1
Class 0:
Packet latency average = 21.4375
	minimum = 7
	maximum = 75
Network latency average = 21.4372
	minimum = 7
	maximum = 75
Slowest packet = 86403
Flit latency average = 21.4372
	minimum = 7
	maximum = 75
Slowest flit = 86403
Fragmentation average = 0
	minimum = 0
	maximum = 0
Injected packet rate average = 0.100281
	minimum = 0.0845 (at node 13)
	maximum = 0.1145 (at node 3)
Accepted packet rate average = 0.0992813
	minimum = 0.0825 (at node 7)
	maximum = 0.1125 (at node 12)
Injected flit rate average = 0.100281
	minimum = 0.0845 (at node 13)
	maximum = 0.1145 (at node 3)
Accepted flit rate average= 0.0992813
	minimum = 0.0825 (at node 7)
	maximum = 0.1125 (at node 12)
Injected packet length average = 1
Accepted packet length average = 1
Total in-flight flits = 32 (0 measured)
latency change    = 0.0119604
throughput change = 0.01983
Class 0:
Packet latency average = 22.0586
	minimum = 7
	maximum = 109
Network latency average = 22.0364
	minimum = 7
	maximum = 109
Slowest packet = 88873
Flit latency average = 22.0364
	minimum = 7
	maximum = 109
Slowest flit = 88873
Fragmentation average = 0
	minimum = 0
	maximum = 0
Injected packet rate average = 0.101312
	minimum = 0.088 (at node 0)
	maximum = 0.121 (at node 13)
Accepted packet rate average = 0.101312
	minimum = 0.089 (at node 0)
	maximum = 0.116 (at node 7)
Injected flit rate average = 0.101312
	minimum = 0.088 (at node 0)
	maximum = 0.121 (at node 13)
Accepted flit rate average= 0.101312
	minimum = 0.089 (at node 0)
	maximum = 0.116 (at node 7)
Injected packet length average = 1
Accepted packet length average = 1
Total in-flight flits = 32 (0 measured)
latency change    = 0.0281562
throughput change = 0.0200494
Warmed up ...Time used is 3000 cycles
Class 0:
Packet latency average = 21.9336
	minimum = 7
	maximum = 127
Network latency average = 21.8245
	minimum = 7
	maximum = 127
Slowest packet = 91314
Flit latency average = 21.9987
	minimum = 7
	maximum = 127
Slowest flit = 91314
Fragmentation average = 0
	minimum = 0
	maximum = 0
Injected packet rate average = 0.10025
	minimum = 0.085 (at node 11)
	maximum = 0.118 (at node 9)
Accepted packet rate average = 0.0999375
	minimum = 0.083 (at node 14)
	maximum = 0.119 (at node 6)
Injected flit rate average = 0.10025
	minimum = 0.085 (at node 11)
	maximum = 0.118 (at node 9)
Accepted flit rate average= 0.0999375
	minimum = 0.083 (at node 14)
	maximum = 0.119 (at node 6)
Injected packet length average = 1
Accepted packet length average = 1
Total in-flight flits = 38 (38 measured)
latency change    = 0.00569786
throughput change = 0.0137586
Class 0:
Packet latency average = 22.1554
	minimum = 7
	maximum = 158
Network latency average = 22.018
	minimum = 7
	maximum = 127
Slowest packet = 91314
Flit latency average = 22.103
	minimum = 7
	maximum = 127
Slowest flit = 91314
Fragmentation average = 0
	minimum = 0
	maximum = 0
Injected packet rate average = 0.100187
	minimum = 0.087 (at node 11)
	maximum = 0.1115 (at node 5)
Accepted packet rate average = 0.100156
	minimum = 0.085 (at node 14)
	maximum = 0.1125 (at node 7)
Injected flit rate average = 0.100187
	minimum = 0.087 (at node 11)
	maximum = 0.1115 (at node 5)
Accepted flit rate average= 0.100156
	minimum = 0.085 (at node 14)
	maximum = 0.1125 (at node 7)
Injected packet length average = 1
Accepted packet length average = 1
Total in-flight flits = 33 (33 measured)
latency change    = 0.0100085
throughput change = 0.00218409
Class 0:
Packet latency average = 21.6595
	minimum = 7
	maximum = 158
Network latency average = 21.5679
	minimum = 7
	maximum = 127
Slowest packet = 91314
Flit latency average = 21.6277
	minimum = 7
	maximum = 127
Slowest flit = 91314
Fragmentation average = 0
	minimum = 0
	maximum = 0
Injected packet rate average = 0.0997083
	minimum = 0.0896667 (at node 3)
	maximum = 0.111333 (at node 5)
Accepted packet rate average = 0.0998333
	minimum = 0.0906667 (at node 12)
	maximum = 0.111333 (at node 5)
Injected flit rate average = 0.0997083
	minimum = 0.0896667 (at node 3)
	maximum = 0.111333 (at node 5)
Accepted flit rate average= 0.0998333
	minimum = 0.0906667 (at node 12)
	maximum = 0.111333 (at node 5)
Injected packet length average = 1
Accepted packet length average = 1
Total in-flight flits = 26 (26 measured)
latency change    = 0.0228962
throughput change = 0.00323456
Draining all recorded packets ...
Draining remaining packets ...
Time taken is 6071 cycles
Class 0:
Packet latency average = 21.7019
	minimum = 7
	maximum = 93
Network latency average = 21.6948
	minimum = 7
	maximum = 93
Slowest packet = 95971
Flit latency average = 21.6948
	minimum = 7
	maximum = 93
Slowest flit = 95971
Fragmentation average = 0
	minimum = 0
	maximum = 0
Injected packet rate average = 0.0991875
	minimum = 0.079 (at node 6)
	maximum = 0.111 (at node 15)
Accepted packet rate average = 0.0970625
	minimum = 0.079 (at node 9)
	maximum = 0.111 (at node 15)
Injected flit rate average = 0.0991875
	minimum = 0.079 (at node 6)
	maximum = 0.111 (at node 15)
Accepted flit rate average= 0.0970625
	minimum = 0.079 (at node 9)
	maximum = 0.111 (at node 15)
Injected packet length average = 1
Accepted packet length average = 1
Total in-flight flits = 34 (0 measured)
latency change    = 1
throughput change = 1
Class 0:
Packet latency average = 21.5202
	minimum = 7
	maximum = 93
Network latency average = 21.516
	minimum = 7
	maximum = 93
Slowest packet = 95971
Flit latency average = 21.516
	minimum = 7
	maximum = 93
Slowest flit = 95971
Fragmentation average = 0
	minimum = 0
	maximum = 0
Injected packet rate average = 0.0991875
	minimum = 0.0895 (at node 10)
	maximum = 0.109 (at node 4)
Accepted packet rate average = 0.0984687
	minimum = 0.089 (at node 10)
	maximum = 0.108 (at node 1)
Injected flit rate average = 0.0991875
	minimum = 0.0895 (at node 10)
	maximum = 0.109 (at node 4)
Accepted flit rate average= 0.0984687
	minimum = 0.089 (at node 10)
	maximum = 0.108 (at node 1)
Injected packet length average = 1
Accepted packet length average = 1
Total in-flight flits = 23 (0 measured)
latency change    = 0.00844395
throughput change = 0.0142812
Class 0:
Packet latency average = 22.411
	minimum = 7
	maximum = 104
Network latency average = 22.4067
	minimum = 7
	maximum = 104
Slowest packet = 99015
Flit latency average = 22.4067
	minimum = 7
	maximum = 104
Slowest flit = 99015
Fragmentation average = 0
	minimum = 0
	maximum = 0
Injected packet rate average = 0.10275
	minimum = 0.085 (at node 3)
	maximum = 0.122 (at node 12)
Accepted packet rate average = 0.102188
	minimum = 0.085 (at node 12)
	maximum = 0.121 (at node 3)
Injected flit rate average = 0.10275
	minimum = 0.085 (at node 3)
	maximum = 0.122 (at node 12)
Accepted flit rate average= 0.102188
	minimum = 0.085 (at node 12)
	maximum = 0.121 (at node 3)
Injected packet length average = 1
Accepted packet length average = 1
Total in-flight flits = 32 (0 measured)
latency change    = 0.0397509
throughput change = 0.0363914
Warmed up ...Time used is 3000 cycles
Class 0:
Packet latency average = 22.2129
	minimum = 7
	maximum = 135
Network latency average = 22.1946
	minimum = 7
	maximum = 135
Slowest packet = 99856
Flit latency average = 22.3534
	minimum = 7
	maximum = 135
Slowest flit = 99856
Fragmentation average = 0
	minimum = 0
	maximum = 0
Injected packet rate average = 0.100562
	minimum = 0.091 (at node 11)
	maximum = 0.118 (at node 14)
Accepted packet rate average = 0.100625
	minimum = 0.09 (at node 14)
	maximum = 0.116 (at node 11)
Injected flit rate average = 0.100562
	minimum = 0.091 (at node 11)
	maximum = 0.118 (at node 14)
Accepted flit rate average= 0.100625
	minimum = 0.09 (at node 14)
	maximum = 0.116 (at node 11)
Injected packet length average = 1
Accepted packet length average = 1
Total in-flight flits = 31 (31 measured)
latency change    = 0.00891739
throughput change = 0.015528
Class 0:
Packet latency average = 22.0193
	minimum = 7
	maximum = 135
Network latency average = 22.0093
	minimum = 7
	maximum = 135
Slowest packet = 99856
Flit latency average = 22.0901
	minimum = 7
	maximum = 135
Slowest flit = 99856
Fragmentation average = 0
	minimum = 0
	maximum = 0
Injected packet rate average = 0.101156
	minimum = 0.0905 (at node 7)
	maximum = 0.11 (at node 8)
Accepted packet rate average = 0.101281
	minimum = 0.092 (at node 13)
	maximum = 0.1095 (at node 2)
Injected flit rate average = 0.101156
	minimum = 0.0905 (at node 7)
	maximum = 0.11 (at node 8)
Accepted flit rate average= 0.101281
	minimum = 0.092 (at node 13)
	maximum = 0.1095 (at node 2)
Injected packet length average = 1
Accepted packet length average = 1
Total in-flight flits = 28 (28 measured)
latency change    = 0.0087926
throughput change = 0.00647948
Class 0:
Packet latency average = 21.892
	minimum = 7
	maximum = 135
Network latency average = 21.8767
	minimum = 7
	maximum = 135
Slowest packet = 99856
Flit latency average = 21.9322
	minimum = 7
	maximum = 135
Slowest flit = 99856
Fragmentation average = 0
	minimum = 0
	maximum = 0
Injected packet rate average = 0.0999792
	minimum = 0.0926667 (at node 1)
	maximum = 0.11 (at node 14)
Accepted packet rate average = 0.0998542
	minimum = 0.0926667 (at node 4)
	maximum = 0.11 (at node 11)
Injected flit rate average = 0.0999792
	minimum = 0.0926667 (at node 1)
	maximum = 0.11 (at node 14)
Accepted flit rate average= 0.0998542
	minimum = 0.0926667 (at node 4)
	maximum = 0.11 (at node 11)
Injected packet length average = 1
Accepted packet length average = 1
Total in-flight flits = 38 (38 measured)
latency change    = 0.00581404
throughput change = 0.0142917
Draining all recorded packets ...
Draining remaining packets ...
Time taken is 6096 cycles
Class 0:
Packet latency average = 21.1305
	minimum = 7
	maximum = 137
Network latency average = 21.1087
	minimum = 7
	maximum = 137
Slowest packet = 105213
Flit latency average = 21.1087
	minimum = 7
	maximum = 137
Slowest flit = 105213
Fragmentation average = 0
	minimum = 0
	maximum = 0
Injected packet rate average = 0.102375
	minimum = 0.083 (at node 3)
	maximum = 0.134 (at node 9)
Accepted packet rate average = 0.100062
	minimum = 0.076 (at node 12)
	maximum = 0.132 (at node 6)
Injected flit rate average = 0.102375
	minimum = 0.083 (at node 3)
	maximum = 0.134 (at node 9)
Accepted flit rate average= 0.100062
	minimum = 0.076 (at node 12)
	maximum = 0.132 (at node 6)
Injected packet length average = 1
Accepted packet length average = 1
Total in-flight flits = 37 (0 measured)
latency change    = 1
throughput change = 1
Class 0:
Packet latency average = 20.9127
	minimum = 7
	maximum = 137
Network latency average = 20.9019
	minimum = 7
	maximum = 137
Slowest packet = 105213
Flit latency average = 20.9019
	minimum = 7
	maximum = 137
Slowest flit = 105213
Fragmentation average = 0
	minimum = 0
	maximum = 0
Injected packet rate average = 0.102313
	minimum = 0.0915 (at node 13)
	maximum = 0.1175 (at node 4)
Accepted packet rate average = 0.101281
	minimum = 0.0905 (at node 3)
	maximum = 0.117 (at node 1)
Injected flit rate average = 0.102313
	minimum = 0.0915 (at node 13)
	maximum = 0.1175 (at node 4)
Accepted flit rate average= 0.101281
	minimum = 0.0905 (at node 3)
	maximum = 0.117 (at node 1)
Injected packet length average = 1
Accepted packet length average = 1
Total in-flight flits = 33 (0 measured)
latency change    = 0.0104177
throughput change = 0.0120333
Class 0:
Packet latency average = 21.2138
	minimum = 7
	maximum = 80
Network latency average = 21.2026
	minimum = 7
	maximum = 80
Slowest packet = 109042
Flit latency average = 21.2026
	minimum = 7
	maximum = 80
Slowest flit = 109042
Fragmentation average = 0
	minimum = 0
	maximum = 0
Injected packet rate average = 0.1005
	minimum = 0.088 (at node 15)
	maximum = 0.115 (at node 5)
Accepted packet rate average = 0.10025
	minimum = 0.088 (at node 15)
	maximum = 0.113 (at node 5)
Injected flit rate average = 0.1005
	minimum = 0.088 (at node 15)
	maximum = 0.115 (at node 5)
Accepted flit rate average= 0.10025
	minimum = 0.088 (at node 15)
	maximum = 0.113 (at node 5)
Injected packet length average = 1
Accepted packet length average = 1
Total in-flight flits = 37 (0 measured)
latency change    = 0.0141964
throughput change = 0.0102868
Warmed up ...Time used is 3000 cycles
Class 0:
Packet latency average = 21.8631
	minimum = 7
	maximum = 96
Network latency average = 21.8535
	minimum = 7
	maximum = 96
Slowest packet = 110567
Flit latency average = 21.9826
	minimum = 7
	maximum = 96
Slowest flit = 110567
Fragmentation average = 0
	minimum = 0
	maximum = 0
Injected packet rate average = 0.099875
	minimum = 0.085 (at node 13)
	maximum = 0.116 (at node 9)
Accepted packet rate average = 0.100437
	minimum = 0.084 (at node 12)
	maximum = 0.115 (at node 6)
Injected flit rate average = 0.099875
	minimum = 0.085 (at node 13)
	maximum = 0.116 (at node 9)
Accepted flit rate average= 0.100437
	minimum = 0.084 (at node 12)
	maximum = 0.115 (at node 6)
Injected packet length average = 1
Accepted packet length average = 1
Total in-flight flits = 28 (28 measured)
latency change    = 0.0296947
throughput change = 0.00186683
Class 0:
Packet latency average = 21.3261
	minimum = 7
	maximum = 96
Network latency average = 21.3122
	minimum = 7
	maximum = 96
Slowest packet = 110567
Flit latency average = 21.3831
	minimum = 7
	maximum = 96
Slowest flit = 110567
Fragmentation average = 0
	minimum = 0
	maximum = 0
Injected packet rate average = 0.100125
	minimum = 0.089 (at node 13)
	maximum = 0.116 (at node 0)
Accepted packet rate average = 0.100344
	minimum = 0.0905 (at node 7)
	maximum = 0.116 (at node 0)
Injected flit rate average = 0.100125
	minimum = 0.089 (at node 13)
	maximum = 0.116 (at node 0)
Accepted flit rate average= 0.100344
	minimum = 0.0905 (at node 7)
	maximum = 0.116 (at node 0)
Injected packet length average = 1
Accepted packet length average = 1
Total in-flight flits = 30 (30 measured)
latency change    = 0.025179
throughput change = 0.000934288
Class 0:
Packet latency average = 21.7116
	minimum = 7
	maximum = 133
Network latency average = 21.6826
	minimum = 7
	maximum = 133
Slowest packet = 113404
Flit latency average = 21.7269
	minimum = 7
	maximum = 133
Slowest flit = 113404
Fragmentation average = 0
	minimum = 0
	maximum = 0
Injected packet rate average = 0.100562
	minimum = 0.092 (at node 13)
	maximum = 0.113667 (at node 9)
Accepted packet rate average = 0.100542
	minimum = 0.093 (at node 12)
	maximum = 0.114 (at node 6)
Injected flit rate average = 0.100562
	minimum = 0.092 (at node 13)
	maximum = 0.113667 (at node 9)
Accepted flit rate average= 0.100542
	minimum = 0.093 (at node 12)
	maximum = 0.114 (at node 6)
Injected packet length average = 1
Accepted packet length average = 1
Total in-flight flits = 38 (38 measured)
latency change    = 0.0177575
throughput change = 0.0019685
Draining all recorded packets ...
Draining remaining packets ...
Time taken is 6095 cycles
Class 0:
Packet latency average = 20.8113
	minimum = 7
	maximum = 69
Network latency average = 20.8106
	minimum = 7
	maximum = 69
Slowest packet = 114795
Flit latency average = 20.8106
	minimum = 7
	maximum = 69
Slowest flit = 114795
Fragmentation average = 0
	minimum = 0
	maximum = 0
Injected packet rate average = 0.0955
	minimum = 0.086 (at node 11)
	maximum = 0.113 (at node 10)
Accepted packet rate average = 0.0930625
	minimum = 0.084 (at node 14)
	maximum = 0.113 (at node 10)
Injected flit rate average = 0.0955
	minimum = 0.086 (at node 11)
	maximum = 0.113 (at node 10)
Accepted flit rate average= 0.0930625
	minimum = 0.084 (at node 14)
	maximum = 0.113 (at node 10)
Injected packet length average = 1
Accepted packet length average = 1
Total in-flight flits = 39 (0 measured)
latency change    = 1
throughput change = 1
Class 0:
Packet latency average = 21.0943
	minimum = 7
	maximum = 72
Network latency average = 21.0546
	minimum = 7
	maximum = 72
Slowest packet = 117221
Flit latency average = 21.0546
	minimum = 7
	maximum = 72
Slowest flit = 117221
Fragmentation average = 0
	minimum = 0
	maximum = 0
Injected packet rate average = 0.098125
	minimum = 0.0855 (at node 2)
	maximum = 0.107 (at node 8)
Accepted packet rate average = 0.0967812
	minimum = 0.0845 (at node 8)
	maximum = 0.1065 (at node 10)
Injected flit rate average = 0.098125
	minimum = 0.0855 (at node 2)
	maximum = 0.107 (at node 8)
Accepted flit rate average= 0.0967812
	minimum = 0.0845 (at node 8)
	maximum = 0.1065 (at node 10)
Injected packet length average = 1
Accepted packet length average = 1
Total in-flight flits = 43 (0 measured)
latency change    = 0.0134161
throughput change = 0.0384243
Class 0:
Packet latency average = 22.2897
	minimum = 7
	maximum = 94
Network latency average = 22.2311
	minimum = 7
	maximum = 94
Slowest packet = 117283
Flit latency average = 22.2311
	minimum = 7
	maximum = 94
Slowest flit = 117283
Fragmentation average = 0
	minimum = 0
	maximum = 0
Injected packet rate average = 0.101688
	minimum = 0.081 (at node 1)
	maximum = 0.119 (at node 9)
Accepted packet rate average = 0.10225
	minimum = 0.081 (at node 4)
	maximum = 0.12 (at node 3)
Injected flit rate average = 0.101688
	minimum = 0.081 (at node 1)
	maximum = 0.119 (at node 9)
Accepted flit rate average= 0.10225
	minimum = 0.081 (at node 4)
	maximum = 0.12 (at node 3)
Injected packet length average = 1
Accepted packet length average = 1
Total in-flight flits = 34 (0 measured)
latency change    = 0.0536322
throughput change = 0.0534841
Warmed up ...Time used is 3000 cycles
Class 0:
Packet latency average = 21.0891
	minimum = 7
	maximum = 81
Network latency average = 21.0778
	minimum = 7
	maximum = 81
Slowest packet = 120168
Flit latency average = 21.2064
	minimum = 7
	maximum = 81
Slowest flit = 120168
Fragmentation average = 0
	minimum = 0
	maximum = 0
Injected packet rate average = 0.102063
	minimum = 0.083 (at node 10)
	maximum = 0.122 (at node 5)
Accepted packet rate average = 0.10175
	minimum = 0.082 (at node 10)
	maximum = 0.119 (at node 5)
Injected flit rate average = 0.102063
	minimum = 0.083 (at node 10)
	maximum = 0.122 (at node 5)
Accepted flit rate average= 0.10175
	minimum = 0.082 (at node 10)
	maximum = 0.119 (at node 5)
Injected packet length average = 1
Accepted packet length average = 1
Total in-flight flits = 39 (39 measured)
latency change    = 0.0569322
throughput change = 0.004914
Class 0:
Packet latency average = 21.695
	minimum = 7
	maximum = 104
Network latency average = 21.6787
	minimum = 7
	maximum = 104
Slowest packet = 122112
Flit latency average = 21.736
	minimum = 7
	maximum = 104
Slowest flit = 122112
Fragmentation average = 0
	minimum = 0
	maximum = 0
Injected packet rate average = 0.103031
	minimum = 0.0885 (at node 8)
	maximum = 0.118 (at node 3)
Accepted packet rate average = 0.103
	minimum = 0.0885 (at node 2)
	maximum = 0.116 (at node 12)
Injected flit rate average = 0.103031
	minimum = 0.0885 (at node 8)
	maximum = 0.118 (at node 3)
Accepted flit rate average= 0.103
	minimum = 0.0885 (at node 2)
	maximum = 0.116 (at node 12)
Injected packet length average = 1
Accepted packet length average = 1
Total in-flight flits = 36 (36 measured)
latency change    = 0.0279276
throughput change = 0.0121359
Class 0:
Packet latency average = 21.5826
	minimum = 7
	maximum = 138
Network latency average = 21.5507
	minimum = 7
	maximum = 138
Slowest packet = 122143
Flit latency average = 21.5909
	minimum = 7
	maximum = 138
Slowest flit = 122143
Fragmentation average = 0
	minimum = 0
	maximum = 0
Injected packet rate average = 0.100104
	minimum = 0.0843333 (at node 8)
	maximum = 0.109333 (at node 3)
Accepted packet rate average = 0.100125
	minimum = 0.0843333 (at node 2)
	maximum = 0.110667 (at node 12)
Injected flit rate average = 0.100104
	minimum = 0.0843333 (at node 8)
	maximum = 0.109333 (at node 3)
Accepted flit rate average= 0.100125
	minimum = 0.0843333 (at node 2)
	maximum = 0.110667 (at node 12)
Injected packet length average = 1
Accepted packet length average = 1
Total in-flight flits = 33 (33 measured)
latency change    = 0.00520825
throughput change = 0.0287141
Class 0:
Packet latency average = 21.5028
	minimum = 7
	maximum = 138
Network latency average = 21.4779
	minimum = 7
	maximum = 138
Slowest packet = 122143
Flit latency average = 21.5085
	minimum = 7
	maximum = 138
Slowest flit = 122143
Fragmentation average = 0
	minimum = 0
	maximum = 0
Injected packet rate average = 0.099875
	minimum = 0.0895 (at node 8)
	maximum = 0.11 (at node 5)
Accepted packet rate average = 0.0998906
	minimum = 0.08775 (at node 2)
	maximum = 0.10975 (at node 5)
Injected flit rate average = 0.099875
	minimum = 0.0895 (at node 8)
	maximum = 0.11 (at node 5)
Accepted flit rate average= 0.0998906
	minimum = 0.08775 (at node 2)
	maximum = 0.10975 (at node 5)
Injected packet length average = 1
Accepted packet length average = 1
Total in-flight flits = 33 (33 measured)
latency change    = 0.00371176
throughput change = 0.00234632
Draining all recorded packets ...
Draining remaining packets ...
Time taken is 7080 cycles
Class 0:
Packet latency average = 21.6591
	minimum = 7
	maximum = 97
Network latency average = 21.6039
	minimum = 7
	maximum = 97
Slowest packet = 125843
Flit latency average = 21.6039
	minimum = 7
	maximum = 97
Slowest flit = 125843
Fragmentation average = 0
	minimum = 0
	maximum = 0
Injected packet rate average = 0.101625
	minimum = 0.085 (at node 13)
	maximum = 0.113 (at node 6)
Accepted packet rate average = 0.0995625
	minimum = 0.082 (at node 7)
	maximum = 0.112 (at node 9)
Injected flit rate average = 0.101625
	minimum = 0.085 (at node 13)
	maximum = 0.113 (at node 6)
Accepted flit rate average= 0.0995625
	minimum = 0.082 (at node 7)
	maximum = 0.112 (at node 9)
Injected packet length average = 1
Accepted packet length average = 1
Total in-flight flits = 33 (0 measured)
latency change    = 1
throughput change = 1
Class 0:
Packet latency average = 21.9578
	minimum = 7
	maximum = 97
Network latency average = 21.9264
	minimum = 7
	maximum = 97
Slowest packet = 125843
Flit latency average = 21.9264
	minimum = 7
	maximum = 97
Slowest flit = 125843
Fragmentation average = 0
	minimum = 0
	maximum = 0
Injected packet rate average = 0.0993437
	minimum = 0.086 (at node 10)
	maximum = 0.1095 (at node 11)
Accepted packet rate average = 0.0985
	minimum = 0.086 (at node 10)
	maximum = 0.1075 (at node 14)
Injected flit rate average = 0.0993437
	minimum = 0.086 (at node 10)
	maximum = 0.1095 (at node 11)
Accepted flit rate average= 0.0985
	minimum = 0.086 (at node 10)
	maximum = 0.1075 (at node 14)
Injected packet length average = 1
Accepted packet length average = 1
Total in-flight flits = 27 (0 measured)
latency change    = 0.013602
throughput change = 0.0107868
Class 0:
Packet latency average = 23.26
	minimum = 7
	maximum = 99
Network latency average = 23.2311
	minimum = 7
	maximum = 99
Slowest packet = 129740
Flit latency average = 23.2311
	minimum = 7
	maximum = 99
Slowest flit = 129740
Fragmentation average = 0
	minimum = 0
	maximum = 0
Injected packet rate average = 0.102188
	minimum = 0.085 (at node 1)
	maximum = 0.122 (at node 12)
Accepted packet rate average = 0.101938
	minimum = 0.084 (at node 10)
	maximum = 0.116 (at node 3)
Injected flit rate average = 0.102188
	minimum = 0.085 (at node 1)
	maximum = 0.122 (at node 12)
Accepted flit rate average= 0.101938
	minimum = 0.084 (at node 10)
	maximum = 0.116 (at node 3)
Injected packet length average = 1
Accepted packet length average = 1
Total in-flight flits = 31 (0 measured)
latency change    = 0.0559828
throughput change = 0.0337216
Warmed up ...Time used is 3000 cycles
Class 0:
Packet latency average = 21.5162
	minimum = 7
	maximum = 89
Network latency average = 21.5131
	minimum = 7
	maximum = 89
Slowest packet = 131337
Flit latency average = 21.6608
	minimum = 7
	maximum = 89
Slowest flit = 131337
Fragmentation average = 0
	minimum = 0
	maximum = 0
Injected packet rate average = 0.102563
	minimum = 0.089 (at node 9)
	maximum = 0.109 (at node 8)
Accepted packet rate average = 0.102438
	minimum = 0.09 (at node 6)
	maximum = 0.111 (at node 2)
Injected flit rate average = 0.102563
	minimum = 0.089 (at node 9)
	maximum = 0.109 (at node 8)
Accepted flit rate average= 0.102438
	minimum = 0.09 (at node 6)
	maximum = 0.111 (at node 2)
Injected packet length average = 1
Accepted packet length average = 1
Total in-flight flits = 33 (33 measured)
latency change    = 0.0810457
throughput change = 0.00488103
Class 0:
Packet latency average = 21.4063
	minimum = 7
	maximum = 89
Network latency average = 21.3939
	minimum = 7
	maximum = 89
Slowest packet = 131337
Flit latency average = 21.4694
	minimum = 7
	maximum = 89
Slowest flit = 131337
Fragmentation average = 0
	minimum = 0
	maximum = 0
Injected packet rate average = 0.101875
	minimum = 0.092 (at node 12)
	maximum = 0.111 (at node 15)
Accepted packet rate average = 0.101719
	minimum = 0.093 (at node 3)
	maximum = 0.1115 (at node 15)
Injected flit rate average = 0.101875
	minimum = 0.092 (at node 12)
	maximum = 0.111 (at node 15)
Accepted flit rate average= 0.101719
	minimum = 0.093 (at node 3)
	maximum = 0.1115 (at node 15)
Injected packet length average = 1
Accepted packet length average = 1
Total in-flight flits = 36 (36 measured)
latency change    = 0.00513127
throughput change = 0.00706605
Class 0:
Packet latency average = 22.122
	minimum = 7
	maximum = 149
Network latency average = 21.804
	minimum = 7
	maximum = 120
Slowest packet = 134700
Flit latency average = 21.8526
	minimum = 7
	maximum = 120
Slowest flit = 134700
Fragmentation average = 0
	minimum = 0
	maximum = 0
Injected packet rate average = 0.100271
	minimum = 0.09 (at node 10)
	maximum = 0.109667 (at node 0)
Accepted packet rate average = 0.100042
	minimum = 0.0903333 (at node 10)
	maximum = 0.109333 (at node 15)
Injected flit rate average = 0.100271
	minimum = 0.09 (at node 10)
	maximum = 0.109667 (at node 0)
Accepted flit rate average= 0.100042
	minimum = 0.0903333 (at node 10)
	maximum = 0.109333 (at node 15)
Injected packet length average = 1
Accepted packet length average = 1
Total in-flight flits = 42 (42 measured)
latency change    = 0.0323506
throughput change = 0.0167638
Class 0:
Packet latency average = 22.1531
	minimum = 7
	maximum = 149
Network latency average = 21.8775
	minimum = 7
	maximum = 133
Slowest packet = 134700
Flit latency average = 21.9131
	minimum = 7
	maximum = 133
Slowest flit = 136205
Fragmentation average = 0
	minimum = 0
	maximum = 0
Injected packet rate average = 0.101281
	minimum = 0.09325 (at node 10)
	maximum = 0.111 (at node 15)
Accepted packet rate average = 0.101219
	minimum = 0.0935 (at node 10)
	maximum = 0.11075 (at node 15)
Injected flit rate average = 0.101281
	minimum = 0.09325 (at node 10)
	maximum = 0.111 (at node 15)
Accepted flit rate average= 0.101219
	minimum = 0.0935 (at node 10)
	maximum = 0.11075 (at node 15)
Injected packet length average = 1
Accepted packet length average = 1
Total in-flight flits = 35 (35 measured)
latency change    = 0.0014042
throughput change = 0.0116291
Draining all recorded packets ...
Draining remaining packets ...
Time taken is 7077 cycles
Class 0:
Packet latency average = 22.9768
	minimum = 7
	maximum = 153
Network latency average = 22.4591
	minimum = 7
	maximum = 149
Slowest packet = 136969
Flit latency average = 22.4591
	minimum = 7
	maximum = 149
Slowest flit = 136969
Fragmentation average = 0
	minimum = 0
	maximum = 0
Injected packet rate average = 0.104375
	minimum = 0.086 (at node 0)
	maximum = 0.125 (at node 9)
Accepted packet rate average = 0.1025
	minimum = 0.085 (at node 0)
	maximum = 0.122 (at node 6)
Injected flit rate average = 0.104375
	minimum = 0.086 (at node 0)
	maximum = 0.125 (at node 9)
Accepted flit rate average= 0.1025
	minimum = 0.085 (at node 0)
	maximum = 0.122 (at node 6)
Injected packet length average = 1
Accepted packet length average = 1
Total in-flight flits = 30 (0 measured)
latency change    = 1
throughput change = 1
Class 0:
Packet latency average = 22.6369
	minimum = 7
	maximum = 153
Network latency average = 22.3759
	minimum = 7
	maximum = 149
Slowest packet = 136969
Flit latency average = 22.3759
	minimum = 7
	maximum = 149
Slowest flit = 136969
Fragmentation average = 0
	minimum = 0
	maximum = 0
Injected packet rate average = 0.103813
	minimum = 0.089 (at node 0)
	maximum = 0.119 (at node 9)
Accepted packet rate average = 0.102594
	minimum = 0.0885 (at node 0)
	maximum = 0.118 (at node 6)
Injected flit rate average = 0.103813
	minimum = 0.089 (at node 0)
	maximum = 0.119 (at node 9)
Accepted flit rate average= 0.102594
	minimum = 0.0885 (at node 0)
	maximum = 0.118 (at node 6)
Injected packet length average = 1
Accepted packet length average = 1
Total in-flight flits = 39 (0 measured)
latency change    = 0.0150158
throughput change = 0.000913798
Class 0:
Packet latency average = 21.5712
	minimum = 7
	maximum = 80
Network latency average = 21.5663
	minimum = 7
	maximum = 80
Slowest packet = 141142
Flit latency average = 21.5663
	minimum = 7
	maximum = 80
Slowest flit = 141142
Fragmentation average = 0
	minimum = 0
	maximum = 0
Injected packet rate average = 0.102313
	minimum = 0.081 (at node 2)
	maximum = 0.124 (at node 6)
Accepted packet rate average = 0.102313
	minimum = 0.081 (at node 8)
	maximum = 0.124 (at node 9)
Injected flit rate average = 0.102313
	minimum = 0.081 (at node 2)
	maximum = 0.124 (at node 6)
Accepted flit rate average= 0.102313
	minimum = 0.081 (at node 8)
	maximum = 0.124 (at node 9)
Injected packet length average = 1
Accepted packet length average = 1
Total in-flight flits = 39 (0 measured)
latency change    = 0.0494063
throughput change = 0.00274893
Warmed up ...Time used is 3000 cycles
Class 0:
Packet latency average = 20.8852
	minimum = 7
	maximum = 71
Network latency average = 20.8801
	minimum = 7
	maximum = 71
Slowest packet = 141787
Flit latency average = 21.1014
	minimum = 7
	maximum = 71
Slowest flit = 141787
Fragmentation average = 0
	minimum = 0
	maximum = 0
Injected packet rate average = 0.0993125
	minimum = 0.079 (at node 12)
	maximum = 0.12 (at node 6)
Accepted packet rate average = 0.099875
	minimum = 0.081 (at node 3)
	maximum = 0.118 (at node 9)
Injected flit rate average = 0.0993125
	minimum = 0.079 (at node 12)
	maximum = 0.12 (at node 6)
Accepted flit rate average= 0.099875
	minimum = 0.081 (at node 3)
	maximum = 0.118 (at node 9)
Injected packet length average = 1
Accepted packet length average = 1
Total in-flight flits = 30 (30 measured)
latency change    = 0.0328455
throughput change = 0.0244055
Class 0:
Packet latency average = 21.4968
	minimum = 7
	maximum = 89
Network latency average = 21.476
	minimum = 7
	maximum = 89
Slowest packet = 143682
Flit latency average = 21.5804
	minimum = 7
	maximum = 89
Slowest flit = 143682
Fragmentation average = 0
	minimum = 0
	maximum = 0
Injected packet rate average = 0.0985
	minimum = 0.0855 (at node 11)
	maximum = 0.111 (at node 10)
Accepted packet rate average = 0.0989063
	minimum = 0.0855 (at node 14)
	maximum = 0.111 (at node 10)
Injected flit rate average = 0.0985
	minimum = 0.0855 (at node 11)
	maximum = 0.111 (at node 10)
Accepted flit rate average= 0.0989063
	minimum = 0.0855 (at node 14)
	maximum = 0.111 (at node 10)
Injected packet length average = 1
Accepted packet length average = 1
Total in-flight flits = 26 (26 measured)
latency change    = 0.0284516
throughput change = 0.00979463
Class 0:
Packet latency average = 21.4293
	minimum = 7
	maximum = 89
Network latency average = 21.4148
	minimum = 7
	maximum = 89
Slowest packet = 143682
Flit latency average = 21.485
	minimum = 7
	maximum = 89
Slowest flit = 143682
Fragmentation average = 0
	minimum = 0
	maximum = 0
Injected packet rate average = 0.098875
	minimum = 0.0903333 (at node 11)
	maximum = 0.110333 (at node 10)
Accepted packet rate average = 0.0987917
	minimum = 0.0906667 (at node 14)
	maximum = 0.109 (at node 10)
Injected flit rate average = 0.098875
	minimum = 0.0903333 (at node 11)
	maximum = 0.110333 (at node 10)
Accepted flit rate average= 0.0987917
	minimum = 0.0906667 (at node 14)
	maximum = 0.109 (at node 10)
Injected packet length average = 1
Accepted packet length average = 1
Total in-flight flits = 44 (44 measured)
latency change    = 0.00314992
throughput change = 0.00115985
Draining all recorded packets ...
Draining remaining packets ...
Time taken is 6121 cycles
Class 0:
Packet latency average = 22.4833
	minimum = 7
	maximum = 96
Network latency average = 22.4566
	minimum = 7
	maximum = 96
Slowest packet = 147623
Flit latency average = 22.4566
	minimum = 7
	maximum = 96
Slowest flit = 147623
Fragmentation average = 0
	minimum = 0
	maximum = 0
Injected packet rate average = 0.102938
[...]
Accepted packet rate average = 0.097125
	minimum = 0.086 (at node 0)
	maximum = 0.11 (at node 2)
Injected flit rate average = 0.0975312
	minimum = 0.086 (at node 0)
	maximum = 0.109 (at node 8)
Accepted flit rate average= 0.097125
	minimum = 0.086 (at node 0)
	maximum = 0.11 (at node 2)
Injected packet length average = 1
Accepted packet length average = 1
Total in-flight flits = 38 (38 measured)
latency change    = 0.00333166
throughput change = 0.0122265
Class 0:
Packet latency average = 21.8116
	minimum = 7
	maximum = 98
Network latency average = 21.7661
	minimum = 7
	maximum = 98
Slowest packet = 1006126
Flit latency average = 21.7893
	minimum = 7
	maximum = 98
Slowest flit = 1006126
Fragmentation average = 0
	minimum = 0
	maximum = 0
Injected packet rate average = 0.09775
	minimum = 0.0846667 (at node 5)
	maximum = 0.106 (at node 9)
Accepted packet rate average = 0.0975
	minimum = 0.0846667 (at node 5)
	maximum = 0.106 (at node 2)
Injected flit rate average = 0.09775
	minimum = 0.0846667 (at node 5)
	maximum = 0.106 (at node 9)
Accepted flit rate average= 0.0975
	minimum = 0.0846667 (at node 5)
	maximum = 0.106 (at node 2)
Injected packet length average = 1
Accepted packet length average = 1
Total in-flight flits = 37 (37 measured)
latency change    = 0.0148139
throughput change = 0.00384615
Draining all recorded packets ...
Draining remaining packets ...
Time taken is 6141 cycles
Class 0:
Packet latency average = 21.9358
	minimum = 7
	maximum = 91
Network latency average = 21.9314
	minimum = 7
	maximum = 91
Slowest packet = 1010384
Flit latency average = 21.9314
	minimum = 7
	maximum = 91
Slowest flit = 1010384
Fragmentation average = 0
	minimum = 0
	maximum = 0
Injected packet rate average = 0.101688
	minimum = 0.09 (at node 4)
	maximum = 0.118 (at node 7)
Accepted packet rate average = 0.099375
	minimum = 0.088 (at node 1)
	maximum = 0.114 (at node 13)
Injected flit rate average = 0.101688
	minimum = 0.09 (at node 4)
	maximum = 0.118 (at node 7)
Accepted flit rate average= 0.099375
	minimum = 0.088 (at node 1)
	maximum = 0.114 (at node 13)
Injected packet length average = 1
Accepted packet length average = 1
Total in-flight flits = 37 (0 measured)
latency change    = 1
throughput change = 1
Class 0:
Packet latency average = 21.7054
	minimum = 7
	maximum = 91
Network latency average = 21.6905
	minimum = 7
	maximum = 91
Slowest packet = 1010384
Flit latency average = 21.6905
	minimum = 7
	maximum = 91
Slowest flit = 1010384
Fragmentation average = 0
	minimum = 0
	maximum = 0
Injected packet rate average = 0.101469
	minimum = 0.0855 (at node 4)
	maximum = 0.116 (at node 7)
Accepted packet rate average = 0.100469
	minimum = 0.085 (at node 8)
	maximum = 0.1145 (at node 13)
Injected flit rate average = 0.101469
	minimum = 0.0855 (at node 4)
	maximum = 0.116 (at node 7)
Accepted flit rate average= 0.100469
	minimum = 0.085 (at node 8)
	maximum = 0.1145 (at node 13)
Injected packet length average = 1
Accepted packet length average = 1
Total in-flight flits = 32 (0 measured)
latency change    = 0.0106151
throughput change = 0.0108865
Class 0:
Packet latency average = 22.0764
	minimum = 7
	maximum = 94
Network latency average = 21.9561
	minimum = 7
	maximum = 94
Slowest packet = 1014457
Flit latency average = 21.9561
	minimum = 7
	maximum = 94
Slowest flit = 1014457
Fragmentation average = 0
	minimum = 0
	maximum = 0
Injected packet rate average = 0.0985625
	minimum = 0.075 (at node 9)
	maximum = 0.119 (at node 7)
Accepted packet rate average = 0.098125
	minimum = 0.075 (at node 6)
	maximum = 0.119 (at node 13)
Injected flit rate average = 0.0985625
	minimum = 0.075 (at node 9)
	maximum = 0.119 (at node 7)
Accepted flit rate average= 0.098125
	minimum = 0.075 (at node 6)
	maximum = 0.119 (at node 13)
Injected packet length average = 1
Accepted packet length average = 1
Total in-flight flits = 39 (0 measured)
latency change    = 0.0168048
throughput change = 0.0238854
Warmed up ...Time used is 3000 cycles
Class 0:
Packet latency average = 22.3886
	minimum = 7
	maximum = 83
Network latency average = 22.3243
	minimum = 7
	maximum = 83
Slowest packet = 1014802
Flit latency average = 22.5751
	minimum = 7
	maximum = 83
Slowest flit = 1014802
Fragmentation average = 0
	minimum = 0
	maximum = 0
Injected packet rate average = 0.101562
	minimum = 0.086 (at node 0)
	maximum = 0.114 (at node 9)
Accepted packet rate average = 0.1015
	minimum = 0.086 (at node 0)
	maximum = 0.114 (at node 6)
Injected flit rate average = 0.101562
	minimum = 0.086 (at node 0)
	maximum = 0.114 (at node 9)
Accepted flit rate average= 0.1015
	minimum = 0.086 (at node 0)
	maximum = 0.114 (at node 6)
Injected packet length average = 1
Accepted packet length average = 1
Total in-flight flits = 40 (40 measured)
latency change    = 0.013945
throughput change = 0.0332512
Class 0:
Packet latency average = 21.7042
	minimum = 7
	maximum = 87
Network latency average = 21.6717
	minimum = 7
	maximum = 87
Slowest packet = 1016533
Flit latency average = 21.8055
	minimum = 7
	maximum = 87
Slowest flit = 1016533
Fragmentation average = 0
	minimum = 0
	maximum = 0
Injected packet rate average = 0.101031
	minimum = 0.093 (at node 6)
	maximum = 0.115 (at node 10)
Accepted packet rate average = 0.101062
	minimum = 0.093 (at node 9)
	maximum = 0.115 (at node 10)
Injected flit rate average = 0.101031
	minimum = 0.093 (at node 6)
	maximum = 0.115 (at node 10)
Accepted flit rate average= 0.101062
	minimum = 0.093 (at node 9)
	maximum = 0.115 (at node 10)
Injected packet length average = 1
Accepted packet length average = 1
Total in-flight flits = 38 (38 measured)
latency change    = 0.0315339
throughput change = 0.004329
Class 0:
Packet latency average = 21.4945
	minimum = 7
	maximum = 87
Network latency average = 21.4692
	minimum = 7
	maximum = 87
Slowest packet = 1016533
Flit latency average = 21.5614
	minimum = 7
	maximum = 87
Slowest flit = 1016533
Fragmentation average = 0
	minimum = 0
	maximum = 0
Injected packet rate average = 0.0995
	minimum = 0.0936667 (at node 1)
	maximum = 0.108333 (at node 7)
Accepted packet rate average = 0.0995208
	minimum = 0.0926667 (at node 9)
	maximum = 0.108667 (at node 13)
Injected flit rate average = 0.0995
	minimum = 0.0936667 (at node 1)
	maximum = 0.108333 (at node 7)
Accepted flit rate average= 0.0995208
	minimum = 0.0926667 (at node 9)
	maximum = 0.108667 (at node 13)
Injected packet length average = 1
Accepted packet length average = 1
Total in-flight flits = 38 (38 measured)
latency change    = 0.00975658
throughput change = 0.0154909
Draining all recorded packets ...
Draining remaining packets ...
Time taken is 6113 cycles
Class 0:
Packet latency average = 21.1871
	minimum = 7
	maximum = 69
Network latency average = 21.1858
	minimum = 7
	maximum = 69
Slowest packet = 1020388
Flit latency average = 21.1858
	minimum = 7
	maximum = 69
Slowest flit = 1020388
Fragmentation average = 0
	minimum = 0
	maximum = 0
Injected packet rate average = 0.0975625
	minimum = 0.08 (at node 5)
	maximum = 0.116 (at node 15)
Accepted packet rate average = 0.094875
	minimum = 0.079 (at node 5)
	maximum = 0.115 (at node 15)
Injected flit rate average = 0.0975625
	minimum = 0.08 (at node 5)
	maximum = 0.116 (at node 15)
Accepted flit rate average= 0.094875
	minimum = 0.079 (at node 5)
	maximum = 0.115 (at node 15)
Injected packet length average = 1
Accepted packet length average = 1
Total in-flight flits = 43 (0 measured)
latency change    = 1
throughput change = 1
Class 0:
Packet latency average = 21.5941
	minimum = 7
	maximum = 81
Network latency average = 21.5857
	minimum = 7
	maximum = 81
Slowest packet = 1022644
Flit latency average = 21.5857
	minimum = 7
	maximum = 81
Slowest flit = 1022644
Fragmentation average = 0
	minimum = 0
	maximum = 0
Injected packet rate average = 0.0986875
	minimum = 0.0895 (at node 5)
	maximum = 0.104 (at node 2)
Accepted packet rate average = 0.0971562
	minimum = 0.089 (at node 5)
	maximum = 0.1035 (at node 15)
Injected flit rate average = 0.0986875
	minimum = 0.0895 (at node 5)
	maximum = 0.104 (at node 2)
Accepted flit rate average= 0.0971562
	minimum = 0.089 (at node 5)
	maximum = 0.1035 (at node 15)
Injected packet length average = 1
Accepted packet length average = 1
Total in-flight flits = 49 (0 measured)
latency change    = 0.0188475
throughput change = 0.0234802
Class 0:
Packet latency average = 22.103
	minimum = 7
	maximum = 104
Network latency average = 22.0769
	minimum = 7
	maximum = 104
Slowest packet = 1023895
Flit latency average = 22.0769
	minimum = 7
	maximum = 104
Slowest flit = 1023895
Fragmentation average = 0
	minimum = 0
	maximum = 0
Injected packet rate average = 0.102938
	minimum = 0.088 (at node 14)
	maximum = 0.12 (at node 9)
Accepted packet rate average = 0.103188
	minimum = 0.089 (at node 11)
	maximum = 0.125 (at node 6)
Injected flit rate average = 0.102938
	minimum = 0.088 (at node 14)
	maximum = 0.12 (at node 9)
Accepted flit rate average= 0.103188
	minimum = 0.089 (at node 11)
	maximum = 0.125 (at node 6)
Injected packet length average = 1
Accepted packet length average = 1
Total in-flight flits = 45 (0 measured)
latency change    = 0.0230234
throughput change = 0.0584494
Warmed up ...Time used is 3000 cycles
Class 0:
Packet latency average = 21.432
	minimum = 7
	maximum = 75
Network latency average = 21.4213
	minimum = 7
	maximum = 75
Slowest packet = 1024939
Flit latency average = 21.8472
	minimum = 7
	maximum = 98
Slowest flit = 1024288
Fragmentation average = 0
	minimum = 0
	maximum = 0
Injected packet rate average = 0.0949375
	minimum = 0.077 (at node 9)
	maximum = 0.116 (at node 0)
Accepted packet rate average = 0.0956875
	minimum = 0.075 (at node 6)
	maximum = 0.118 (at node 0)
Injected flit rate average = 0.0949375
	minimum = 0.077 (at node 9)
	maximum = 0.116 (at node 0)
Accepted flit rate average= 0.0956875
	minimum = 0.075 (at node 6)
	maximum = 0.118 (at node 0)
Injected packet length average = 1
Accepted packet length average = 1
Total in-flight flits = 33 (33 measured)
latency change    = 0.0313053
throughput change = 0.0783801
Class 0:
Packet latency average = 21.6391
	minimum = 7
	maximum = 75
Network latency average = 21.631
	minimum = 7
	maximum = 75
Slowest packet = 1024939
Flit latency average = 21.8371
	minimum = 7
	maximum = 98
Slowest flit = 1024288
Fragmentation average = 0
	minimum = 0
	maximum = 0
Injected packet rate average = 0.0972188
	minimum = 0.081 (at node 9)
	maximum = 0.1085 (at node 0)
Accepted packet rate average = 0.0974375
	minimum = 0.08 (at node 6)
	maximum = 0.11 (at node 12)
Injected flit rate average = 0.0972188
	minimum = 0.081 (at node 9)
	maximum = 0.1085 (at node 0)
Accepted flit rate average= 0.0974375
	minimum = 0.08 (at node 6)
	maximum = 0.11 (at node 12)
Injected packet length average = 1
Accepted packet length average = 1
Total in-flight flits = 38 (38 measured)
latency change    = 0.00956983
throughput change = 0.0179602
Class 0:
Packet latency average = 21.7137
	minimum = 7
	maximum = 123
Network latency average = 21.6892
	minimum = 7
	maximum = 122
Slowest packet = 1028923
Flit latency average = 21.8241
	minimum = 7
	maximum = 122
Slowest flit = 1028923
Fragmentation average = 0
	minimum = 0
	maximum = 0
Injected packet rate average = 0.0987292
	minimum = 0.0883333 (at node 9)
	maximum = 0.108 (at node 3)
Accepted packet rate average = 0.098875
	minimum = 0.0883333 (at node 6)
	maximum = 0.107667 (at node 0)
Injected flit rate average = 0.0987292
	minimum = 0.0883333 (at node 9)
	maximum = 0.108 (at node 3)
Accepted flit rate average= 0.098875
	minimum = 0.0883333 (at node 6)
	maximum = 0.107667 (at node 0)
Injected packet length average = 1
Accepted packet length average = 1
Total in-flight flits = 38 (38 measured)
latency change    = 0.00343392
throughput change = 0.0145386
Class 0:
Packet latency average = 21.7343
	minimum = 7
	maximum = 148
Network latency average = 21.6851
	minimum = 7
	maximum = 122
Slowest packet = 1028923
Flit latency average = 21.7869
	minimum = 7
	maximum = 122
Slowest flit = 1028923
Fragmentation average = 0
	minimum = 0
	maximum = 0
Injected packet rate average = 0.098
	minimum = 0.09025 (at node 9)
	maximum = 0.10675 (at node 3)
Accepted packet rate average = 0.0982656
	minimum = 0.09 (at node 6)
	maximum = 0.10825 (at node 12)
Injected flit rate average = 0.098
	minimum = 0.09025 (at node 9)
	maximum = 0.10675 (at node 3)
Accepted flit rate average= 0.0982656
	minimum = 0.09 (at node 6)
	maximum = 0.10825 (at node 12)
Injected packet length average = 1
Accepted packet length average = 1
Total in-flight flits = 28 (28 measured)
latency change    = 0.000949052
throughput change = 0.0062013
Draining all recorded packets ...
Draining remaining packets ...
Time taken is 7072 cycles
Class 0:
Packet latency average = 21.9568
	minimum = 7
	maximum = 89
Network latency average = 21.9371
	minimum = 7
	maximum = 89
Slowest packet = 1031608
Flit latency average = 21.9371
	minimum = 7
	maximum = 89
Slowest flit = 1031608
Fragmentation average = 0
	minimum = 0
	maximum = 0
Injected packet rate average = 0.0975625
	minimum = 0.085 (at node 14)
	maximum = 0.107 (at node 0)
Accepted packet rate average = 0.0954375
	minimum = 0.083 (at node 11)
	maximum = 0.107 (at node 0)
Injected flit rate average = 0.0975625
	minimum = 0.085 (at node 14)
	maximum = 0.107 (at node 0)
Accepted flit rate average= 0.0954375
	minimum = 0.083 (at node 11)
	maximum = 0.107 (at node 0)
Injected packet length average = 1
Accepted packet length average = 1
Total in-flight flits = 34 (0 measured)
latency change    = 1
throughput change = 1
Class 0:
Packet latency average = 21.496
	minimum = 7
	maximum = 89
Network latency average = 21.4858
	minimum = 7
	maximum = 89
Slowest packet = 1031608
Flit latency average = 21.4858
	minimum = 7
	maximum = 89
Slowest flit = 1031608
Fragmentation average = 0
	minimum = 0
	maximum = 0
Injected packet rate average = 0.0990313
	minimum = 0.089 (at node 15)
	maximum = 0.114 (at node 0)
Accepted packet rate average = 0.0979063
	minimum = 0.089 (at node 15)
	maximum = 0.1135 (at node 0)
Injected flit rate average = 0.0990313
	minimum = 0.089 (at node 15)
	maximum = 0.114 (at node 0)
Accepted flit rate average= 0.0979063
	minimum = 0.089 (at node 15)
	maximum = 0.1135 (at node 0)
Injected packet length average = 1
Accepted packet length average = 1
Total in-flight flits = 36 (0 measured)
latency change    = 0.021435
throughput change = 0.0252154
Class 0:
Packet latency average = 23.6879
	minimum = 7
	maximum = 128
Network latency average = 23.2615
	minimum = 7
	maximum = 128
Slowest packet = 1034479
Flit latency average = 23.2615
	minimum = 7
	maximum = 128
Slowest flit = 1034479
Fragmentation average = 0
	minimum = 0
	maximum = 0
Injected packet rate average = 0.100187
	minimum = 0.073 (at node 9)
	maximum = 0.133 (at node 4)
Accepted packet rate average = 0.100125
	minimum = 0.071 (at node 6)
	maximum = 0.13 (at node 1)
Injected flit rate average = 0.100187
	minimum = 0.073 (at node 9)
	maximum = 0.133 (at node 4)
Accepted flit rate average= 0.100125
	minimum = 0.071 (at node 6)
	maximum = 0.13 (at node 1)
Injected packet length average = 1
Accepted packet length average = 1
Total in-flight flits = 37 (0 measured)
latency change    = 0.0925317
throughput change = 0.0221598
Warmed up ...Time used is 3000 cycles
Class 0:
Packet latency average = 21.2826
	minimum = 7
	maximum = 76
Network latency average = 21.2826
	minimum = 7
	maximum = 76
Slowest packet = 1035556
Flit latency average = 21.6297
	minimum = 7
	maximum = 117
Slowest flit = 1035372
Fragmentation average = 0
	minimum = 0
	maximum = 0
Injected packet rate average = 0.097625
	minimum = 0.08 (at node 14)
	maximum = 0.112 (at node 9)
Accepted packet rate average = 0.0980625
	minimum = 0.078 (at node 11)
	maximum = 0.112 (at node 2)
Injected flit rate average = 0.097625
	minimum = 0.08 (at node 14)
	maximum = 0.112 (at node 9)
Accepted flit rate average= 0.0980625
	minimum = 0.078 (at node 11)
	maximum = 0.112 (at node 2)
Injected packet length average = 1
Accepted packet length average = 1
Total in-flight flits = 30 (30 measured)
latency change    = 0.113015
throughput change = 0.0210325
Class 0:
Packet latency average = 21.6148
	minimum = 7
	maximum = 93
Network latency average = 21.6104
	minimum = 7
	maximum = 93
Slowest packet = 1037093
Flit latency average = 21.7787
	minimum = 7
	maximum = 117
Slowest flit = 1035372
Fragmentation average = 0
	minimum = 0
	maximum = 0
Injected packet rate average = 0.0988125
	minimum = 0.0865 (at node 14)
	maximum = 0.107 (at node 13)
Accepted packet rate average = 0.0988437
	minimum = 0.0865 (at node 11)
	maximum = 0.107 (at node 14)
Injected flit rate average = 0.0988125
	minimum = 0.0865 (at node 14)
	maximum = 0.107 (at node 13)
Accepted flit rate average= 0.0988437
	minimum = 0.0865 (at node 11)
	maximum = 0.107 (at node 14)
Injected packet length average = 1
Accepted packet length average = 1
Total in-flight flits = 36 (36 measured)
latency change    = 0.0153694
throughput change = 0.00790389
Class 0:
Packet latency average = 22.1261
	minimum = 7
	maximum = 136
Network latency average = 22.0979
	minimum = 7
	maximum = 136
Slowest packet = 1039316
Flit latency average = 22.2053
	minimum = 7
	maximum = 136
Slowest flit = 1039316
Fragmentation average = 0
	minimum = 0
	maximum = 0
Injected packet rate average = 0.0996667
	minimum = 0.0903333 (at node 5)
	maximum = 0.106667 (at node 4)
Accepted packet rate average = 0.0997708
	minimum = 0.09 (at node 5)
	maximum = 0.107 (at node 1)
Injected flit rate average = 0.0996667
	minimum = 0.0903333 (at node 5)
	maximum = 0.106667 (at node 4)
Accepted flit rate average= 0.0997708
	minimum = 0.09 (at node 5)
	maximum = 0.107 (at node 1)
Injected packet length average = 1
Accepted packet length average = 1
Total in-flight flits = 32 (32 measured)
latency change    = 0.0231044
throughput change = 0.00929213
Class 0:
Packet latency average = 21.921
	minimum = 7
	maximum = 136
Network latency average = 21.8981
	minimum = 7
	maximum = 136
Slowest packet = 1039316
Flit latency average = 21.9799
	minimum = 7
	maximum = 136
Slowest flit = 1039316
Fragmentation average = 0
	minimum = 0
	maximum = 0
Injected packet rate average = 0.0996094
	minimum = 0.09275 (at node 10)
	maximum = 0.10975 (at node 2)
Accepted packet rate average = 0.0996094
	minimum = 0.09275 (at node 10)
	maximum = 0.10875 (at node 8)
Injected flit rate average = 0.0996094
	minimum = 0.09275 (at node 10)
	maximum = 0.10975 (at node 2)
Accepted flit rate average= 0.0996094
	minimum = 0.09275 (at node 10)
	maximum = 0.10875 (at node 8)
Injected packet length average = 1
Accepted packet length average = 1
Total in-flight flits = 37 (37 measured)
latency change    = 0.00935631
throughput change = 0.00162092
Draining all recorded packets ...
Draining remaining packets ...
Time taken is 7073 cycles
====== Overall Traffic Statistics ======
====== Traffic class 0 ======
Packet latency average = 21.9618 (100 samples)
	minimum = 7 (100 samples)
	maximum = 123.16 (100 samples)
Network latency average = 21.8728 (100 samples)
	minimum = 7 (100 samples)
	maximum = 118.88 (100 samples)
Flit latency average = 21.9299 (100 samples)
	minimum = 7 (100 samples)
	maximum = 119.76 (100 samples)
Fragmentation average = 0 (100 samples)
	minimum = 0 (100 samples)
	maximum = 0 (100 samples)
Injected packet rate average = 0.0998193 (100 samples)
	minimum = 0.0907737 (100 samples)
	maximum = 0.108728 (100 samples)
Accepted packet rate average = 0.0998186 (100 samples)
	minimum = 0.0908612 (100 samples)
	maximum = 0.108829 (100 samples)
Injected flit rate average = 0.0998193 (100 samples)
	minimum = 0.0907737 (100 samples)
	maximum = 0.108728 (100 samples)
Accepted flit rate average = 0.0998186 (100 samples)
	minimum = 0.0908612 (100 samples)
	maximum = 0.108829 (100 samples)
Injected packet size average = 1 (100 samples)
Accepted packet size average = 1 (100 samples)
Hops average = 3.50022 (100 samples)
Total run time 22.3211
