BEGIN Configuration File: /tmp/tmpytjp0d42.cfg
topology = mesh;
k = 4;
n = 2;
routing_function = adaptive_xy_yx;
num_vcs = 4;
vc_buf_size = 4;
wait_for_tail_credit = 1;
vc_allocator = islip;
sw_allocator = islip;
alloc_iters = 1;
credit_delay = 2;
routing_delay = 1;
vc_alloc_delay = 1;
sw_alloc_delay = 1;
input_speedup = 2;
output_speedup = 1;
internal_speedup = 1.0;
traffic = transpose;
packet_size = 1;
sim_type = latency;
injection_rate = 0.02;
warmup_periods = 3;
sample_period = 1000;
sim_count = 100;
seed = 2;

END Configuration File: /tmp/tmpytjp0d42.cfg
Class 0:
Packet latency average = 18.6968
	minimum = 7
	maximum = 37
Network latency average = 18.6968
	minimum = 7
	maximum = 37
Slowest packet = 2
Flit latency average = 18.6968
	minimum = 7
	maximum = 37
Slowest flit = 2
Fragmentation average = 0
	minimum = 0
	maximum = 0
Injected packet rate average = 0.0180625
	minimum = 0.008 (at node 9)
	maximum = 0.025 (at node 10)
Accepted packet rate average = 0.0173125
	minimum = 0.007 (at node 6)
	maximum = 0.025 (at node 10)
Injected flit rate average = 0.0180625
	minimum = 0.008 (at node 9)
	maximum = 0.025 (at node 10)
Accepted flit rate average= 0.0173125
	minimum = 0.007 (at node 6)
	maximum = 0.025 (at node 10)
Injected packet length average = 1
Accepted packet length average = 1
Total in-flight flits = 12 (0 measured)
latency change    = 1
throughput change = 1
Class 0:
Packet latency average = 19.2467
	minimum = 7
	maximum = 42
Network latency average = 19.2467
	minimum = 7
	maximum = 42
Slowest packet = 488
Flit latency average = 19.2467
	minimum = 7
	maximum = 42
Slowest flit = 488
Fragmentation average = 0
	minimum = 0
	maximum = 0
Injected packet rate average = 0.0190937
	minimum = 0.0145 (at node 2)
	maximum = 0.028 (at node 10)
Accepted packet rate average = 0.019
	minimum = 0.014 (at node 6)
	maximum = 0.028 (at node 10)
Injected flit rate average = 0.0190937
	minimum = 0.0145 (at node 2)
	maximum = 0.028 (at node 10)
Accepted flit rate average= 0.019
	minimum = 0.014 (at node 6)
	maximum = 0.028 (at node 10)
Injected packet length average = 1
Accepted packet length average = 1
Total in-flight flits = 3 (0 measured)
latency change    = 0.0285742
throughput change = 0.0888158
Class 0:
Packet latency average = 19.7526
	minimum = 7
	maximum = 37
Network latency average = 19.7526
	minimum = 7
	maximum = 37
Slowest packet = 614
Flit latency average = 19.7526
	minimum = 7
	maximum = 37
Slowest flit = 614
Fragmentation average = 0
	minimum = 0
	maximum = 0
Injected packet rate average = 0.0185
	minimum = 0.011 (at node 6)
	maximum = 0.025 (at node 10)
Accepted packet rate average = 0.0181875
	minimum = 0.01 (at node 2)
	maximum = 0.024 (at node 10)
Injected flit rate average = 0.0185
	minimum = 0.011 (at node 6)
	maximum = 0.025 (at node 10)
Accepted flit rate average= 0.0181875
	minimum = 0.01 (at node 2)
	maximum = 0.024 (at node 10)
Injected packet length average = 1
Accepted packet length average = 1
Total in-flight flits = 8 (0 measured)
latency change    = 0.0256102
throughput change = 0.0446735
Warmed up ...Time used is 3000 cycles
Class 0:
Packet latency average = 19.2715
	minimum = 7
	maximum = 37
Network latency average = 19.2715
	minimum = 7
	maximum = 37
Slowest packet = 911
Flit latency average = 19.3848
	minimum = 7
	maximum = 37
Slowest flit = 896
Fragmentation average = 0
	minimum = 0
	maximum = 0
Injected packet rate average = 0.0229375
	minimum = 0.013 (at node 6)
	maximum = 0.03 (at node 12)
Accepted packet rate average = 0.0230625
	minimum = 0.013 (at node 9)
	maximum = 0.03 (at node 3)
Injected flit rate average = 0.0229375
	minimum = 0.013 (at node 6)
	maximum = 0.03 (at node 12)
Accepted flit rate average= 0.0230625
	minimum = 0.013 (at node 9)
	maximum = 0.03 (at node 3)
Injected packet length average = 1
Accepted packet length average = 1
Total in-flight flits = 6 (6 measured)
latency change    = 0.0249648
throughput change = 0.211382
Class 0:
Packet latency average = 19.3892
	minimum = 7
	maximum = 42
Network latency average = 19.3892
	minimum = 7
	maximum = 42
Slowest packet = 1294
Flit latency average = 19.4497
	minimum = 7
	maximum = 42
Slowest flit = 1294
Fragmentation average = 0
	minimum = 0
	maximum = 0
Injected packet rate average = 0.0210625
	minimum = 0.017 (at node 1)
	maximum = 0.026 (at node 7)
Accepted packet rate average = 0.021125
	minimum = 0.017 (at node 4)
	maximum = 0.026 (at node 13)
Injected flit rate average = 0.0210625
	minimum = 0.017 (at node 1)
	maximum = 0.026 (at node 7)
Accepted flit rate average= 0.021125
	minimum = 0.017 (at node 4)
	maximum = 0.026 (at node 13)
Injected packet length average = 1
Accepted packet length average = 1
Total in-flight flits = 6 (6 measured)
latency change    = 0.00607314
throughput change = 0.091716
Class 0:
Packet latency average = 19.3165
	minimum = 7
	maximum = 42
Network latency average = 19.3165
	minimum = 7
	maximum = 42
Slowest packet = 1294
Flit latency average = 19.3581
	minimum = 7
	maximum = 42
Slowest flit = 1294
Fragmentation average = 0
	minimum = 0
	maximum = 0
Injected packet rate average = 0.0206667
	minimum = 0.018 (at node 8)
	maximum = 0.0243333 (at node 10)
Accepted packet rate average = 0.0207708
	minimum = 0.018 (at node 8)
	maximum = 0.0246667 (at node 10)
Injected flit rate average = 0.0206667
	minimum = 0.018 (at node 8)
	maximum = 0.0243333 (at node 10)
Accepted flit rate average= 0.0207708
	minimum = 0.018 (at node 8)
	maximum = 0.0246667 (at node 10)
Injected packet length average = 1
Accepted packet length average = 1
Total in-flight flits = 3 (3 measured)
latency change    = 0.00376571
throughput change = 0.0170512
Class 0:
Packet latency average = 19.2948
	minimum = 7
	maximum = 42
Network latency average = 19.2948
	minimum = 7
	maximum = 42
Slowest packet = 1294
Flit latency average = 19.3267
	minimum = 7
	maximum = 42
Slowest flit = 1294
Fragmentation average = 0
	minimum = 0
	maximum = 0
Injected packet rate average = 0.0204688
	minimum = 0.01725 (at node 2)
	maximum = 0.0225 (at node 4)
Accepted packet rate average = 0.0204219
	minimum = 0.017 (at node 8)
	maximum = 0.02275 (at node 10)
Injected flit rate average = 0.0204688
	minimum = 0.01725 (at node 2)
	maximum = 0.0225 (at node 4)
Accepted flit rate average= 0.0204219
	minimum = 0.017 (at node 8)
	maximum = 0.02275 (at node 10)
Injected packet length average = 1
Accepted packet length average = 1
Total in-flight flits = 11 (11 measured)
latency change    = 0.0011215
throughput change = 0.0170875
Class 0:
Packet latency average = 19.1604
	minimum = 7
	maximum = 42
Network latency average = 19.1604
	minimum = 7
	maximum = 42
Slowest packet = 1294
Flit latency average = 19.1863
	minimum = 7
	maximum = 42
Slowest flit = 1294
Fragmentation average = 0
	minimum = 0
	maximum = 0
Injected packet rate average = 0.0206
	minimum = 0.0174 (at node 2)
	maximum = 0.0236 (at node 15)
Accepted packet rate average = 0.0206
	minimum = 0.017 (at node 8)
	maximum = 0.0238 (at node 15)
Injected flit rate average = 0.0206
	minimum = 0.0174 (at node 2)
	maximum = 0.0236 (at node 15)
Accepted flit rate average= 0.0206
	minimum = 0.017 (at node 8)
	maximum = 0.0238 (at node 15)
Injected packet length average = 1
Accepted packet length average = 1
Total in-flight flits = 8 (8 measured)
latency change    = 0.00701846
throughput change = 0.00864684
Draining all recorded packets ...
Draining remaining packets ...
Time taken is 8051 cycles
Class 0:
Packet latency average = 20.3583
	minimum = 7
	maximum = 43
Network latency average = 20.3583
	minimum = 7
	maximum = 43
Slowest packet = 2635
Flit latency average = 20.3583
	minimum = 7
	maximum = 43
Slowest flit = 2635
Fragmentation average = 0
	minimum = 0
	maximum = 0
Injected packet rate average = 0.020375
	minimum = 0.015 (at node 5)
	maximum = 0.03 (at node 3)
Accepted packet rate average = 0.0200625
	minimum = 0.015 (at node 5)
	maximum = 0.03 (at node 12)
Injected flit rate average = 0.020375
	minimum = 0.015 (at node 5)
	maximum = 0.03 (at node 3)
Accepted flit rate average= 0.0200625
	minimum = 0.015 (at node 5)
	maximum = 0.03 (at node 12)
Injected packet length average = 1
Accepted packet length average = 1
Total in-flight flits = 5 (0 measured)
latency change    = 1
throughput change = 1
Class 0:
Packet latency average = 19.5774
	minimum = 7
	maximum = 43
Network latency average = 19.5774
	minimum = 7
	maximum = 43
Slowest packet = 2635
Flit latency average = 19.5774
	minimum = 7
	maximum = 43
Slowest flit = 2635
Fragmentation average = 0
	minimum = 0
	maximum = 0
Injected packet rate average = 0.0209063
	minimum = 0.017 (at node 9)
	maximum = 0.025 (at node 3)
Accepted packet rate average = 0.0207813
	minimum = 0.017 (at node 6)
	maximum = 0.0245 (at node 0)
Injected flit rate average = 0.0209063
	minimum = 0.017 (at node 9)
	maximum = 0.025 (at node 3)
Accepted flit rate average= 0.0207813
	minimum = 0.017 (at node 6)
	maximum = 0.0245 (at node 0)
Injected packet length average = 1
Accepted packet length average = 1
Total in-flight flits = 4 (0 measured)
latency change    = 0.0398832
throughput change = 0.0345865
Class 0:
Packet latency average = 20.2464
	minimum = 7
	maximum = 38
Network latency average = 20.2464
	minimum = 7
	maximum = 38
Slowest packet = 3509
Flit latency average = 20.2464
	minimum = 7
	maximum = 38
Slowest flit = 3509
Fragmentation average = 0
	minimum = 0
	maximum = 0
Injected packet rate average = 0.022
	minimum = 0.015 (at node 1)
	maximum = 0.03 (at node 12)
Accepted packet rate average = 0.0215625
	minimum = 0.015 (at node 4)
	maximum = 0.03 (at node 3)
Injected flit rate average = 0.022
	minimum = 0.015 (at node 1)
	maximum = 0.03 (at node 12)
Accepted flit rate average= 0.0215625
	minimum = 0.015 (at node 4)
	maximum = 0.03 (at node 3)
Injected packet length average = 1
Accepted packet length average = 1
Total in-flight flits = 11 (0 measured)
latency change    = 0.0330396
throughput change = 0.0362319
Warmed up ...Time used is 3000 cycles
Class 0:
Packet latency average = 19.3854
	minimum = 7
	maximum = 37
Network latency average = 19.3854
	minimum = 7
	maximum = 37
Slowest packet = 3583
Flit latency average = 19.5897
	minimum = 7
	maximum = 37
Slowest flit = 3569
Fragmentation average = 0
	minimum = 0
	maximum = 0
Injected packet rate average = 0.019125
	minimum = 0.013 (at node 9)
	maximum = 0.027 (at node 1)
Accepted packet rate average = 0.0195
	minimum = 0.013 (at node 6)
	maximum = 0.026 (at node 4)
Injected flit rate average = 0.019125
	minimum = 0.013 (at node 9)
	maximum = 0.027 (at node 1)
Accepted flit rate average= 0.0195
	minimum = 0.013 (at node 6)
	maximum = 0.026 (at node 4)
Injected packet length average = 1
Accepted packet length average = 1
Total in-flight flits = 5 (5 measured)
latency change    = 0.0444146
throughput change = 0.105769
Class 0:
Packet latency average = 19.0992
	minimum = 7
	maximum = 46
Network latency average = 19.0992
	minimum = 7
	maximum = 46
Slowest packet = 3903
Flit latency average = 19.2078
	minimum = 7
	maximum = 46
Slowest flit = 3903
Fragmentation average = 0
	minimum = 0
	maximum = 0
Injected packet rate average = 0.019
	minimum = 0.0145 (at node 9)
	maximum = 0.0235 (at node 5)
Accepted packet rate average = 0.01925
	minimum = 0.0135 (at node 6)
	maximum = 0.0235 (at node 5)
Injected flit rate average = 0.019
	minimum = 0.0145 (at node 9)
	maximum = 0.0235 (at node 5)
Accepted flit rate average= 0.01925
	minimum = 0.0135 (at node 6)
	maximum = 0.0235 (at node 5)
Injected packet length average = 1
Accepted packet length average = 1
Total in-flight flits = 3 (3 measured)
latency change    = 0.0149854
throughput change = 0.012987
Class 0:
Packet latency average = 19.3806
	minimum = 7
	maximum = 46
Network latency average = 19.3806
	minimum = 7
	maximum = 46
Slowest packet = 3903
Flit latency average = 19.4494
	minimum = 7
	maximum = 46
Slowest flit = 3903
Fragmentation average = 0
	minimum = 0
	maximum = 0
Injected packet rate average = 0.01925
	minimum = 0.0146667 (at node 6)
	maximum = 0.0226667 (at node 1)
Accepted packet rate average = 0.0193333
	minimum = 0.0153333 (at node 6)
	maximum = 0.0226667 (at node 4)
Injected flit rate average = 0.01925
	minimum = 0.0146667 (at node 6)
	maximum = 0.0226667 (at node 1)
Accepted flit rate average= 0.0193333
	minimum = 0.0153333 (at node 6)
	maximum = 0.0226667 (at node 4)
Injected packet length average = 1
Accepted packet length average = 1
Total in-flight flits = 7 (7 measured)
latency change    = 0.0145205
throughput change = 0.00431034
Class 0:
Packet latency average = 19.2408
	minimum = 7
	maximum = 46
Network latency average = 19.2408
	minimum = 7
	maximum = 46
Slowest packet = 3903
Flit latency average = 19.2935
	minimum = 7
	maximum = 46
Slowest flit = 3903
Fragmentation average = 0
	minimum = 0
	maximum = 0
Injected packet rate average = 0.0192969
	minimum = 0.01475 (at node 6)
	maximum = 0.0225 (at node 5)
Accepted packet rate average = 0.019375
	minimum = 0.015 (at node 9)
	maximum = 0.0225 (at node 5)
Injected flit rate average = 0.0192969
	minimum = 0.01475 (at node 6)
	maximum = 0.0225 (at node 5)
Accepted flit rate average= 0.019375
	minimum = 0.015 (at node 9)
	maximum = 0.0225 (at node 5)
Injected packet length average = 1
Accepted packet length average = 1
Total in-flight flits = 6 (6 measured)
latency change    = 0.00726281
throughput change = 0.00215054
Draining all recorded packets ...
Draining remaining packets ...
Time taken is 7045 cycles
Class 0:
Packet latency average = 19.0888
	minimum = 7
	maximum = 37
Network latency average = 19.0888
	minimum = 7
	maximum = 37
Slowest packet = 4830
Flit latency average = 19.0888
	minimum = 7
	maximum = 37
Slowest flit = 4830
Fragmentation average = 0
	minimum = 0
	maximum = 0
Injected packet rate average = 0.0221875
	minimum = 0.011 (at node 2)
	maximum = 0.034 (at node 1)
Accepted packet rate average = 0.0218125
	minimum = 0.011 (at node 8)
	maximum = 0.033 (at node 0)
Injected flit rate average = 0.0221875
	minimum = 0.011 (at node 2)
	maximum = 0.034 (at node 1)
Accepted flit rate average= 0.0218125
	minimum = 0.011 (at node 8)
	maximum = 0.033 (at node 0)
Injected packet length average = 1
Accepted packet length average = 1
Total in-flight flits = 6 (0 measured)
latency change    = 1
throughput change = 1
Class 0:
Packet latency average = 19.4299
	minimum = 7
	maximum = 38
Network latency average = 19.4299
	minimum = 7
	maximum = 38
Slowest packet = 5334
Flit latency average = 19.4299
	minimum = 7
	maximum = 38
Slowest flit = 5334
Fragmentation average = 0
	minimum = 0
	maximum = 0
Injected packet rate average = 0.0201563
	minimum = 0.0165 (at node 7)
	maximum = 0.0265 (at node 0)
Accepted packet rate average = 0.0200625
	minimum = 0.0165 (at node 8)
	maximum = 0.0265 (at node 0)
Injected flit rate average = 0.0201563
	minimum = 0.0165 (at node 7)
	maximum = 0.0265 (at node 0)
Accepted flit rate average= 0.0200625
	minimum = 0.0165 (at node 8)
	maximum = 0.0265 (at node 0)
Injected packet length average = 1
Accepted packet length average = 1
Total in-flight flits = 3 (0 measured)
latency change    = 0.0175545
throughput change = 0.0872274
Class 0:
Packet latency average = 19.0571
	minimum = 7
	maximum = 42
Network latency average = 19.0571
	minimum = 7
	maximum = 42
Slowest packet = 5502
Flit latency average = 19.0571
	minimum = 7
	maximum = 42
Slowest flit = 5502
Fragmentation average = 0
	minimum = 0
	maximum = 0
Injected packet rate average = 0.020125
	minimum = 0.012 (at node 1)
	maximum = 0.028 (at node 4)
Accepted packet rate average = 0.0196875
	minimum = 0.012 (at node 4)
	maximum = 0.028 (at node 8)
Injected flit rate average = 0.020125
	minimum = 0.012 (at node 1)
	maximum = 0.028 (at node 4)
Accepted flit rate average= 0.0196875
	minimum = 0.012 (at node 4)
	maximum = 0.028 (at node 8)
Injected packet length average = 1
Accepted packet length average = 1
Total in-flight flits = 10 (0 measured)
latency change    = 0.0195603
throughput change = 0.0190476
Warmed up ...Time used is 3000 cycles
Class 0:
Packet latency average = 20.6061
	minimum = 7
	maximum = 37
Network latency average = 20.6061
	minimum = 7
	maximum = 37
Slowest packet = 5803
Flit latency average = 20.5839
	minimum = 7
	maximum = 37
Slowest flit = 5783
Fragmentation average = 0
	minimum = 0
	maximum = 0
Injected packet rate average = 0.0168125
	minimum = 0.012 (at node 10)
	maximum = 0.027 (at node 2)
Accepted packet rate average = 0.017125
	minimum = 0.012 (at node 10)
	maximum = 0.026 (at node 3)
Injected flit rate average = 0.0168125
	minimum = 0.012 (at node 10)
	maximum = 0.027 (at node 2)
Accepted flit rate average= 0.017125
	minimum = 0.012 (at node 10)
	maximum = 0.026 (at node 3)
Injected packet length average = 1
Accepted packet length average = 1
Total in-flight flits = 5 (5 measured)
latency change    = 0.0751681
throughput change = 0.149635
Class 0:
Packet latency average = 20.4522
	minimum = 7
	maximum = 47
Network latency average = 20.4522
	minimum = 7
	maximum = 47
Slowest packet = 6091
Flit latency average = 20.4446
	minimum = 7
	maximum = 47
Slowest flit = 6091
Fragmentation average = 0
	minimum = 0
	maximum = 0
Injected packet rate average = 0.0185
	minimum = 0.014 (at node 15)
	maximum = 0.027 (at node 12)
Accepted packet rate average = 0.018625
	minimum = 0.014 (at node 15)
	maximum = 0.0265 (at node 3)
Injected flit rate average = 0.0185
	minimum = 0.014 (at node 15)
	maximum = 0.027 (at node 12)
Accepted flit rate average= 0.018625
	minimum = 0.014 (at node 15)
	maximum = 0.0265 (at node 3)
Injected packet length average = 1
Accepted packet length average = 1
Total in-flight flits = 6 (6 measured)
latency change    = 0.00752203
throughput change = 0.0805369
Class 0:
Packet latency average = 19.9511
	minimum = 7
	maximum = 47
Network latency average = 19.9511
	minimum = 7
	maximum = 47
Slowest packet = 6091
Flit latency average = 19.9516
	minimum = 7
	maximum = 47
Slowest flit = 6091
Fragmentation average = 0
	minimum = 0
	maximum = 0
Injected packet rate average = 0.0193125
	minimum = 0.016 (at node 15)
	maximum = 0.0243333 (at node 12)
Accepted packet rate average = 0.019375
	minimum = 0.016 (at node 15)
	maximum = 0.0243333 (at node 3)
Injected flit rate average = 0.0193125
	minimum = 0.016 (at node 15)
	maximum = 0.0243333 (at node 12)
Accepted flit rate average= 0.019375
	minimum = 0.016 (at node 15)
	maximum = 0.0243333 (at node 3)
Injected packet length average = 1
Accepted packet length average = 1
Total in-flight flits = 7 (7 measured)
latency change    = 0.025118
throughput change = 0.0387097
Class 0:
Packet latency average = 20.0104
	minimum = 7
	maximum = 47
Network latency average = 20.0104
	minimum = 7
	maximum = 47
Slowest packet = 6091
Flit latency average = 20.0103
	minimum = 7
	maximum = 47
Slowest flit = 6091
Fragmentation average = 0
	minimum = 0
	maximum = 0
Injected packet rate average = 0.0196563
	minimum = 0.017 (at node 15)
	maximum = 0.02325 (at node 12)
Accepted packet rate average = 0.0196563
	minimum = 0.017 (at node 15)
	maximum = 0.02325 (at node 3)
Injected flit rate average = 0.0196563
	minimum = 0.017 (at node 15)
	maximum = 0.02325 (at node 12)
Accepted flit rate average= 0.0196563
	minimum = 0.017 (at node 15)
	maximum = 0.02325 (at node 3)
Injected packet length average = 1
Accepted packet length average = 1
Total in-flight flits = 10 (10 measured)
latency change    = 0.00296494
throughput change = 0.0143084
Class 0:
Packet latency average = 20.0282
	minimum = 7
	maximum = 47
Network latency average = 20.0282
	minimum = 7
	maximum = 47
Slowest packet = 6091
Flit latency average = 20.028
	minimum = 7
	maximum = 47
Slowest flit = 6091
Fragmentation average = 0
	minimum = 0
	maximum = 0
Injected packet rate average = 0.019625
	minimum = 0.017 (at node 15)
	maximum = 0.0238 (at node 13)
Accepted packet rate average = 0.0196625
	minimum = 0.017 (at node 15)
	maximum = 0.0236 (at node 7)
Injected flit rate average = 0.019625
	minimum = 0.017 (at node 15)
	maximum = 0.0238 (at node 13)
Accepted flit rate average= 0.0196625
	minimum = 0.017 (at node 15)
	maximum = 0.0236 (at node 7)
Injected packet length average = 1
Accepted packet length average = 1
Total in-flight flits = 7 (7 measured)
latency change    = 0.00088547
throughput change = 0.000317864
Draining all recorded packets ...
Draining remaining packets ...
Time taken is 8049 cycles
Class 0:
Packet latency average = 20.2904
	minimum = 7
	maximum = 37
Network latency average = 20.2904
	minimum = 7
	maximum = 37
Slowest packet = 7380
Flit latency average = 20.2904
	minimum = 7
	maximum = 37
Slowest flit = 7380
Fragmentation average = 0
	minimum = 0
	maximum = 0
Injected packet rate average = 0.019375
	minimum = 0.014 (at node 0)
	maximum = 0.029 (at node 6)
Accepted packet rate average = 0.0189375
	minimum = 0.014 (at node 0)
	maximum = 0.027 (at node 9)
Injected flit rate average = 0.019375
	minimum = 0.014 (at node 0)
	maximum = 0.029 (at node 6)
Accepted flit rate average= 0.0189375
	minimum = 0.014 (at node 0)
	maximum = 0.027 (at node 9)
Injected packet length average = 1
Accepted packet length average = 1
Total in-flight flits = 7 (0 measured)
latency change    = 1
throughput change = 1
Class 0:
Packet latency average = 20.1356
	minimum = 7
	maximum = 43
Network latency average = 20.1356
	minimum = 7
	maximum = 43
Slowest packet = 7681
Flit latency average = 20.1356
	minimum = 7
	maximum = 43
Slowest flit = 7681
Fragmentation average = 0
	minimum = 0
	maximum = 0
Injected packet rate average = 0.0196875
	minimum = 0.0125 (at node 5)
	maximum = 0.026 (at node 6)
Accepted packet rate average = 0.0195938
	minimum = 0.0125 (at node 5)
	maximum = 0.026 (at node 9)
Injected flit rate average = 0.0196875
	minimum = 0.0125 (at node 5)
	maximum = 0.026 (at node 6)
Accepted flit rate average= 0.0195938
	minimum = 0.0125 (at node 5)
	maximum = 0.026 (at node 9)
Injected packet length average = 1
Accepted packet length average = 1
Total in-flight flits = 3 (0 measured)
latency change    = 0.00769101
throughput change = 0.0334928
Class 0:
Packet latency average = 20.8328
	minimum = 7
	maximum = 46
Network latency average = 20.8328
	minimum = 7
	maximum = 46
Slowest packet = 8183
Flit latency average = 20.8328
	minimum = 7
	maximum = 46
Slowest flit = 8183
Fragmentation average = 0
	minimum = 0
	maximum = 0
Injected packet rate average = 0.0195625
	minimum = 0.013 (at node 5)
	maximum = 0.026 (at node 3)
Accepted packet rate average = 0.0194375
	minimum = 0.012 (at node 5)
	maximum = 0.027 (at node 13)
Injected flit rate average = 0.0195625
	minimum = 0.013 (at node 5)
	maximum = 0.026 (at node 3)
Accepted flit rate average= 0.0194375
	minimum = 0.012 (at node 5)
	maximum = 0.027 (at node 13)
Injected packet length average = 1
Accepted packet length average = 1
Total in-flight flits = 5 (0 measured)
latency change    = 0.033468
throughput change = 0.00803859
Warmed up ...Time used is 3000 cycles
Class 0:
Packet latency average = 18.4573
	minimum = 7
	maximum = 42
Network latency average = 18.4573
	minimum = 7
	maximum = 42
Slowest packet = 8368
Flit latency average = 18.5255
	minimum = 7
	maximum = 42
Slowest flit = 8368
Fragmentation average = 0
	minimum = 0
	maximum = 0
Injected packet rate average = 0.02075
	minimum = 0.01 (at node 9)
	maximum = 0.033 (at node 4)
Accepted packet rate average = 0.0208125
	minimum = 0.01 (at node 6)
	maximum = 0.033 (at node 1)
Injected flit rate average = 0.02075
	minimum = 0.01 (at node 9)
	maximum = 0.033 (at node 4)
Accepted flit rate average= 0.0208125
	minimum = 0.01 (at node 6)
	maximum = 0.033 (at node 1)
Injected packet length average = 1
Accepted packet length average = 1
Total in-flight flits = 4 (4 measured)
latency change    = 0.128701
throughput change = 0.0660661
Class 0:
Packet latency average = 18.9954
	minimum = 7
	maximum = 42
Network latency average = 18.9954
	minimum = 7
	maximum = 42
Slowest packet = 8368
Flit latency average = 19.0256
	minimum = 7
	maximum = 42
Slowest flit = 8368
Fragmentation average = 0
	minimum = 0
	maximum = 0
Injected packet rate average = 0.0207813
	minimum = 0.0165 (at node 9)
	maximum = 0.0255 (at node 4)
Accepted packet rate average = 0.0207188
	minimum = 0.0165 (at node 6)
	maximum = 0.025 (at node 1)
Injected flit rate average = 0.0207813
	minimum = 0.0165 (at node 9)
	maximum = 0.0255 (at node 4)
Accepted flit rate average= 0.0207188
	minimum = 0.0165 (at node 6)
	maximum = 0.025 (at node 1)
Injected packet length average = 1
Accepted packet length average = 1
Total in-flight flits = 7 (7 measured)
latency change    = 0.0283291
throughput change = 0.00452489
Class 0:
Packet latency average = 19.2067
	minimum = 7
	maximum = 42
Network latency average = 19.2067
	minimum = 7
	maximum = 42
Slowest packet = 8368
Flit latency average = 19.2259
	minimum = 7
	maximum = 42
Slowest flit = 8368
Fragmentation average = 0
	minimum = 0
	maximum = 0
Injected packet rate average = 0.020625
	minimum = 0.0153333 (at node 9)
	maximum = 0.0246667 (at node 10)
Accepted packet rate average = 0.0205625
	minimum = 0.0153333 (at node 6)
	maximum = 0.0246667 (at node 10)
Injected flit rate average = 0.020625
	minimum = 0.0153333 (at node 9)
	maximum = 0.0246667 (at node 10)
Accepted flit rate average= 0.0205625
	minimum = 0.0153333 (at node 6)
	maximum = 0.0246667 (at node 10)
Injected packet length average = 1
Accepted packet length average = 1
Total in-flight flits = 8 (8 measured)
latency change    = 0.0110003
throughput change = 0.00759878
Class 0:
Packet latency average = 19.4786
	minimum = 7
	maximum = 42
Network latency average = 19.4786
	minimum = 7
	maximum = 42
Slowest packet = 8368
Flit latency average = 19.492
	minimum = 7
	maximum = 42
Slowest flit = 8368
Fragmentation average = 0
	minimum = 0
	maximum = 0
Injected packet rate average = 0.0204844
	minimum = 0.016 (at node 5)
	maximum = 0.02375 (at node 4)
Accepted packet rate average = 0.0205156
	minimum = 0.01625 (at node 5)
	maximum = 0.02375 (at node 1)
Injected flit rate average = 0.0204844
	minimum = 0.016 (at node 5)
	maximum = 0.02375 (at node 4)
Accepted flit rate average= 0.0205156
	minimum = 0.01625 (at node 5)
	maximum = 0.02375 (at node 1)
Injected packet length average = 1
Accepted packet length average = 1
Total in-flight flits = 3 (3 measured)
latency change    = 0.0139575
throughput change = 0.00228484
Draining all recorded packets ...
Draining remaining packets ...
Time taken is 7051 cycles
Class 0:
Packet latency average = 19.7344
	minimum = 7
	maximum = 38
Network latency average = 19.7344
	minimum = 7
	maximum = 38
Slowest packet = 9761
Flit latency average = 19.7344
	minimum = 7
	maximum = 38
Slowest flit = 9761
Fragmentation average = 0
	minimum = 0
	maximum = 0
Injected packet rate average = 0.019375
	minimum = 0.014 (at node 11)
	maximum = 0.028 (at node 6)
Accepted packet rate average = 0.0190625
	minimum = 0.013 (at node 14)
	maximum = 0.028 (at node 9)
Injected flit rate average = 0.019375
	minimum = 0.014 (at node 11)
	maximum = 0.028 (at node 6)
Accepted flit rate average= 0.0190625
	minimum = 0.013 (at node 14)
	maximum = 0.028 (at node 9)
Injected packet length average = 1
Accepted packet length average = 1
Total in-flight flits = 5 (0 measured)
latency change    = 1
throughput change = 1
Class 0:
Packet latency average = 19.4153
	minimum = 7
	maximum = 38
Network latency average = 19.4153
	minimum = 7
	maximum = 38
Slowest packet = 9761
Flit latency average = 19.4153
	minimum = 7
	maximum = 38
Slowest flit = 9761
Fragmentation average = 0
	minimum = 0
	maximum = 0
Injected packet rate average = 0.0192812
	minimum = 0.015 (at node 7)
	maximum = 0.024 (at node 4)
Accepted packet rate average = 0.0191875
	minimum = 0.015 (at node 13)
	maximum = 0.024 (at node 1)
Injected flit rate average = 0.0192812
	minimum = 0.015 (at node 7)
	maximum = 0.024 (at node 4)
Accepted flit rate average= 0.0191875
	minimum = 0.015 (at node 13)
	maximum = 0.024 (at node 1)
Injected packet length average = 1
Accepted packet length average = 1
Total in-flight flits = 3 (0 measured)
latency change    = 0.0164363
throughput change = 0.00651466
Class 0:
Packet latency average = 19.9024
	minimum = 7
	maximum = 37
Network latency average = 19.9024
	minimum = 7
	maximum = 37
Slowest packet = 10252
Flit latency average = 19.9024
	minimum = 7
	maximum = 37
Slowest flit = 10252
Fragmentation average = 0
	minimum = 0
	maximum = 0
Injected packet rate average = 0.0215625
	minimum = 0.014 (at node 12)
	maximum = 0.032 (at node 3)
Accepted packet rate average = 0.021125
	minimum = 0.014 (at node 3)
	maximum = 0.031 (at node 12)
Injected flit rate average = 0.0215625
	minimum = 0.014 (at node 12)
	maximum = 0.032 (at node 3)
Accepted flit rate average= 0.021125
	minimum = 0.014 (at node 3)
	maximum = 0.031 (at node 12)
Injected packet length average = 1
Accepted packet length average = 1
Total in-flight flits = 10 (0 measured)
latency change    = 0.0244723
throughput change = 0.091716
Warmed up ...Time used is 3000 cycles
Class 0:
Packet latency average = 19.0664
	minimum = 7
	maximum = 39
Network latency average = 19.0664
	minimum = 7
	maximum = 39
Slowest packet = 10701
Flit latency average = 19.2315
	minimum = 7
	maximum = 39
Slowest flit = 10585
Fragmentation average = 0
	minimum = 0
	maximum = 0
Injected packet rate average = 0.019375
	minimum = 0.013 (at node 12)
	maximum = 0.03 (at node 11)
Accepted packet rate average = 0.0194375
	minimum = 0.013 (at node 3)
	maximum = 0.03 (at node 14)
Injected flit rate average = 0.019375
	minimum = 0.013 (at node 12)
	maximum = 0.03 (at node 11)
Accepted flit rate average= 0.0194375
	minimum = 0.013 (at node 3)
	maximum = 0.03 (at node 14)
Injected packet length average = 1
Accepted packet length average = 1
Total in-flight flits = 9 (9 measured)
latency change    = 0.0438426
throughput change = 0.0868167
Class 0:
Packet latency average = 19.1338
	minimum = 7
	maximum = 46
Network latency average = 19.1338
	minimum = 7
	maximum = 46
Slowest packet = 11085
Flit latency average = 19.2151
	minimum = 7
	maximum = 46
Slowest flit = 11085
Fragmentation average = 0
	minimum = 0
	maximum = 0
Injected packet rate average = 0.0192187
	minimum = 0.014 (at node 3)
	maximum = 0.026 (at node 7)
Accepted packet rate average = 0.0194687
	minimum = 0.014 (at node 1)
	maximum = 0.0265 (at node 13)
Injected flit rate average = 0.0192187
	minimum = 0.014 (at node 3)
	maximum = 0.026 (at node 7)
Accepted flit rate average= 0.0194687
	minimum = 0.014 (at node 1)
	maximum = 0.0265 (at node 13)
Injected packet length average = 1
Accepted packet length average = 1
Total in-flight flits = 2 (2 measured)
latency change    = 0.00351855
throughput change = 0.00160514
Class 0:
Packet latency average = 19.2804
	minimum = 7
	maximum = 46
Network latency average = 19.2804
	minimum = 7
	maximum = 46
Slowest packet = 11085
Flit latency average = 19.3333
	minimum = 7
	maximum = 46
Slowest flit = 11085
Fragmentation average = 0
	minimum = 0
	maximum = 0
Injected packet rate average = 0.0193125
	minimum = 0.016 (at node 13)
	maximum = 0.0246667 (at node 7)
Accepted packet rate average = 0.019375
	minimum = 0.0163333 (at node 7)
	maximum = 0.0246667 (at node 13)
Injected flit rate average = 0.0193125
	minimum = 0.016 (at node 13)
	maximum = 0.0246667 (at node 7)
Accepted flit rate average= 0.019375
	minimum = 0.0163333 (at node 7)
	maximum = 0.0246667 (at node 13)
Injected packet length average = 1
Accepted packet length average = 1
Total in-flight flits = 7 (7 measured)
latency change    = 0.00760701
throughput change = 0.00483871
Class 0:
Packet latency average = 19.2868
	minimum = 7
	maximum = 46
Network latency average = 19.2868
	minimum = 7
	maximum = 46
Slowest packet = 11085
Flit latency average = 19.3266
	minimum = 7
	maximum = 46
Slowest flit = 11085
Fragmentation average = 0
	minimum = 0
	maximum = 0
Injected packet rate average = 0.0192344
	minimum = 0.01625 (at node 0)
	maximum = 0.02375 (at node 7)
Accepted packet rate average = 0.0192812
	minimum = 0.01625 (at node 0)
	maximum = 0.02325 (at node 13)
Injected flit rate average = 0.0192344
	minimum = 0.01625 (at node 0)
	maximum = 0.02375 (at node 7)
Accepted flit rate average= 0.0192812
	minimum = 0.01625 (at node 0)
	maximum = 0.02325 (at node 13)
Injected packet length average = 1
Accepted packet length average = 1
Total in-flight flits = 7 (7 measured)
latency change    = 0.0003282
throughput change = 0.00486224
Draining all recorded packets ...
Draining remaining packets ...
Time taken is 7043 cycles
Class 0:
Packet latency average = 19.1051
	minimum = 7
	maximum = 37
Network latency average = 19.1051
	minimum = 7
	maximum = 37
Slowest packet = 11840
Flit latency average = 19.1051
	minimum = 7
	maximum = 37
Slowest flit = 11840
Fragmentation average = 0
	minimum = 0
	maximum = 0
Injected packet rate average = 0.0199375
	minimum = 0.013 (at node 5)
	maximum = 0.032 (at node 0)
Accepted packet rate average = 0.019625
	minimum = 0.013 (at node 5)
	maximum = 0.032 (at node 0)
Injected flit rate average = 0.0199375
	minimum = 0.013 (at node 5)
	maximum = 0.032 (at node 0)
Accepted flit rate average= 0.019625
	minimum = 0.013 (at node 5)
	maximum = 0.032 (at node 0)
Injected packet length average = 1
Accepted packet length average = 1
Total in-flight flits = 5 (0 measured)
latency change    = 1
throughput change = 1
Class 0:
Packet latency average = 19.8486
	minimum = 7
	maximum = 37
Network latency average = 19.8486
	minimum = 7
	maximum = 37
Slowest packet = 11840
Flit latency average = 19.8486
	minimum = 7
	maximum = 37
Slowest flit = 11840
Fragmentation average = 0
	minimum = 0
	maximum = 0
Injected packet rate average = 0.018875
	minimum = 0.015 (at node 5)
	maximum = 0.0255 (at node 0)
Accepted packet rate average = 0.0187812
	minimum = 0.015 (at node 5)
	maximum = 0.0255 (at node 0)
Injected flit rate average = 0.018875
	minimum = 0.015 (at node 5)
	maximum = 0.0255 (at node 0)
Accepted flit rate average= 0.0187812
	minimum = 0.015 (at node 5)
	maximum = 0.0255 (at node 0)
Injected packet length average = 1
Accepted packet length average = 1
Total in-flight flits = 3 (0 measured)
latency change    = 0.0374581
throughput change = 0.0449251
Class 0:
Packet latency average = 19.6955
	minimum = 7
	maximum = 37
Network latency average = 19.6955
	minimum = 7
	maximum = 37
Slowest packet = 12442
Flit latency average = 19.6955
	minimum = 7
	maximum = 37
Slowest flit = 12442
Fragmentation average = 0
	minimum = 0
	maximum = 0
Injected packet rate average = 0.0198125
	minimum = 0.012 (at node 13)
	maximum = 0.026 (at node 11)
Accepted packet rate average = 0.0195
	minimum = 0.012 (at node 7)
	maximum = 0.027 (at node 14)
Injected flit rate average = 0.0198125
	minimum = 0.012 (at node 13)
	maximum = 0.026 (at node 11)
Accepted flit rate average= 0.0195
	minimum = 0.012 (at node 7)
	maximum = 0.027 (at node 14)
Injected packet length average = 1
Accepted packet length average = 1
Total in-flight flits = 8 (0 measured)
latency change    = 0.00777197
throughput change = 0.036859
Warmed up ...Time used is 3000 cycles
Class 0:
Packet latency average = 19.5757
	minimum = 7
	maximum = 39
Network latency average = 19.5757
	minimum = 7
	maximum = 39
Slowest packet = 12779
Flit latency average = 19.766
	minimum = 7
	maximum = 39
Slowest flit = 12779
Fragmentation average = 0
	minimum = 0
	maximum = 0
Injected packet rate average = 0.01925
	minimum = 0.014 (at node 0)
	maximum = 0.026 (at node 1)
Accepted packet rate average = 0.0195
	minimum = 0.014 (at node 11)
	maximum = 0.026 (at node 4)
Injected flit rate average = 0.01925
	minimum = 0.014 (at node 0)
	maximum = 0.026 (at node 1)
Accepted flit rate average= 0.0195
	minimum = 0.014 (at node 11)
	maximum = 0.026 (at node 4)
Injected packet length average = 1
Accepted packet length average = 1
Total in-flight flits = 4 (4 measured)
latency change    = 0.00612265
throughput change = 0
Class 0:
Packet latency average = 19.3297
	minimum = 7
	maximum = 39
Network latency average = 19.3297
	minimum = 7
	maximum = 39
Slowest packet = 12779
Flit latency average = 19.4248
	minimum = 7
	maximum = 39
Slowest flit = 12779
Fragmentation average = 0
	minimum = 0
	maximum = 0
Injected packet rate average = 0.02
	minimum = 0.0145 (at node 2)
	maximum = 0.023 (at node 8)
Accepted packet rate average = 0.0201563
	minimum = 0.015 (at node 8)
	maximum = 0.0235 (at node 2)
Injected flit rate average = 0.02
	minimum = 0.0145 (at node 2)
	maximum = 0.023 (at node 8)
Accepted flit rate average= 0.0201563
	minimum = 0.015 (at node 8)
	maximum = 0.0235 (at node 2)
Injected packet length average = 1
Accepted packet length average = 1
Total in-flight flits = 3 (3 measured)
latency change    = 0.0127259
throughput change = 0.0325581
Class 0:
Packet latency average = 19.1001
	minimum = 7
	maximum = 40
Network latency average = 19.1001
	minimum = 7
	maximum = 40
Slowest packet = 13433
Flit latency average = 19.1698
	minimum = 7
	maximum = 40
Slowest flit = 13433
Fragmentation average = 0
	minimum = 0
	maximum = 0
Injected packet rate average = 0.0188125
	minimum = 0.015 (at node 12)
	maximum = 0.0213333 (at node 10)
Accepted packet rate average = 0.0188958
	minimum = 0.0156667 (at node 3)
	maximum = 0.0213333 (at node 10)
Injected flit rate average = 0.0188125
	minimum = 0.015 (at node 12)
	maximum = 0.0213333 (at node 10)
Accepted flit rate average= 0.0188958
	minimum = 0.0156667 (at node 3)
	maximum = 0.0213333 (at node 10)
Injected packet length average = 1
Accepted packet length average = 1
Total in-flight flits = 4 (4 measured)
latency change    = 0.0120187
throughput change = 0.0667034
Class 0:
Packet latency average = 19.1226
	minimum = 7
	maximum = 40
Network latency average = 19.1226
	minimum = 7
	maximum = 40
Slowest packet = 13433
Flit latency average = 19.1734
	minimum = 7
	maximum = 40
Slowest flit = 13433
Fragmentation average = 0
	minimum = 0
	maximum = 0
Injected packet rate average = 0.0193906
	minimum = 0.01625 (at node 12)
	maximum = 0.0235 (at node 10)
Accepted packet rate average = 0.019375
	minimum = 0.0165 (at node 3)
	maximum = 0.0235 (at node 10)
Injected flit rate average = 0.0193906
	minimum = 0.01625 (at node 12)
	maximum = 0.0235 (at node 10)
Accepted flit rate average= 0.019375
	minimum = 0.0165 (at node 3)
	maximum = 0.0235 (at node 10)
Injected packet length average = 1
Accepted packet length average = 1
Total in-flight flits = 9 (9 measured)
latency change    = 0.0011742
throughput change = 0.0247312
Class 0:
Packet latency average = 19.1357
	minimum = 7
	maximum = 40
Network latency average = 19.1357
	minimum = 7
	maximum = 40
Slowest packet = 13433
Flit latency average = 19.1759
	minimum = 7
	maximum = 40
Slowest flit = 13433
Fragmentation average = 0
	minimum = 0
	maximum = 0
Injected packet rate average = 0.019475
	minimum = 0.0168 (at node 2)
	maximum = 0.0232 (at node 10)
Accepted packet rate average = 0.0195375
	minimum = 0.017 (at node 8)
	maximum = 0.0232 (at node 10)
Injected flit rate average = 0.019475
	minimum = 0.0168 (at node 2)
	maximum = 0.0232 (at node 10)
Accepted flit rate average= 0.0195375
	minimum = 0.017 (at node 8)
	maximum = 0.0232 (at node 10)
Injected packet length average = 1
Accepted packet length average = 1
Total in-flight flits = 3 (3 measured)
latency change    = 0.000685963
throughput change = 0.00831734
Class 0:
Packet latency average = 19.3764
	minimum = 7
	maximum = 40
Network latency average = 19.3764
	minimum = 7
	maximum = 40
Slowest packet = 13433
Flit latency average = 19.409
	minimum = 7
	maximum = 40
Slowest flit = 13433
Fragmentation average = 0
	minimum = 0
	maximum = 0
Injected packet rate average = 0.0194896
	minimum = 0.0173333 (at node 7)
	maximum = 0.0225 (at node 10)
Accepted packet rate average = 0.0195104
	minimum = 0.0176667 (at node 13)
	maximum = 0.0225 (at node 10)
Injected flit rate average = 0.0194896
	minimum = 0.0173333 (at node 7)
	maximum = 0.0225 (at node 10)
Accepted flit rate average= 0.0195104
	minimum = 0.0176667 (at node 13)
	maximum = 0.0225 (at node 10)
Injected packet length average = 1
Accepted packet length average = 1
Total in-flight flits = 6 (6 measured)
latency change    = 0.0124232
throughput change = 0.00138815
Draining all recorded packets ...
Draining remaining packets ...
Time taken is 9054 cycles
Class 0:
Packet latency average = 18.9707
	minimum = 7
	maximum = 37
Network latency average = 18.9707
	minimum = 7
	maximum = 37
Slowest packet = 14642
Flit latency average = 18.9707
	minimum = 7
	maximum = 37
Slowest flit = 14642
Fragmentation average = 0
	minimum = 0
	maximum = 0
Injected packet rate average = 0.0215
	minimum = 0.014 (at node 2)
	maximum = 0.03 (at node 4)
Accepted packet rate average = 0.0213125
	minimum = 0.014 (at node 8)
	maximum = 0.03 (at node 1)
Injected flit rate average = 0.0215
	minimum = 0.014 (at node 2)
	maximum = 0.03 (at node 4)
Accepted flit rate average= 0.0213125
	minimum = 0.014 (at node 8)
	maximum = 0.03 (at node 1)
Injected packet length average = 1
Accepted packet length average = 1
Total in-flight flits = 3 (0 measured)
latency change    = 1
throughput change = 1
Class 0:
Packet latency average = 19.1345
	minimum = 7
	maximum = 37
Network latency average = 19.1345
	minimum = 7
	maximum = 37
Slowest packet = 14642
Flit latency average = 19.1345
	minimum = 7
	maximum = 37
Slowest flit = 14642
Fragmentation average = 0
	minimum = 0
	maximum = 0
Injected packet rate average = 0.0215
	minimum = 0.0155 (at node 2)
	maximum = 0.0265 (at node 4)
Accepted packet rate average = 0.021375
	minimum = 0.0155 (at node 8)
	maximum = 0.0265 (at node 1)
Injected flit rate average = 0.0215
	minimum = 0.0155 (at node 2)
	maximum = 0.0265 (at node 4)
Accepted flit rate average= 0.021375
	minimum = 0.0155 (at node 8)
	maximum = 0.0265 (at node 1)
Injected packet length average = 1
Accepted packet length average = 1
Total in-flight flits = 4 (0 measured)
latency change    = 0.00856194
throughput change = 0.00292398
Class 0:
Packet latency average = 19.2018
	minimum = 7
	maximum = 37
Network latency average = 19.2018
	minimum = 7
	maximum = 37
Slowest packet = 15325
Flit latency average = 19.2018
	minimum = 7
	maximum = 37
Slowest flit = 15325
Fragmentation average = 0
	minimum = 0
	maximum = 0
Injected packet rate average = 0.0208125
	minimum = 0.016 (at node 12)
	maximum = 0.025 (at node 0)
Accepted packet rate average = 0.02075
	minimum = 0.016 (at node 3)
	maximum = 0.025 (at node 0)
Injected flit rate average = 0.0208125
	minimum = 0.016 (at node 12)
	maximum = 0.025 (at node 0)
Accepted flit rate average= 0.02075
	minimum = 0.016 (at node 3)
	maximum = 0.025 (at node 0)
Injected packet length average = 1
Accepted packet length average = 1
Total in-flight flits = 5 (0 measured)
latency change    = 0.0035051
throughput change = 0.0301205
Warmed up ...Time used is 3000 cycles
Class 0:
Packet latency average = 19.1194
	minimum = 7
	maximum = 43
Network latency average = 19.1194
	minimum = 7
	maximum = 43
Slowest packet = 15712
Flit latency average = 19.2762
	minimum = 7
	maximum = 43
Slowest flit = 15712
Fragmentation average = 0
	minimum = 0
	maximum = 0
Injected packet rate average = 0.019875
	minimum = 0.013 (at node 12)
	maximum = 0.028 (at node 1)
Accepted packet rate average = 0.0196875
	minimum = 0.013 (at node 6)
	maximum = 0.029 (at node 4)
Injected flit rate average = 0.019875
	minimum = 0.013 (at node 12)
	maximum = 0.028 (at node 1)
Accepted flit rate average= 0.0196875
	minimum = 0.013 (at node 6)
	maximum = 0.029 (at node 4)
Injected packet length average = 1
Accepted packet length average = 1
Total in-flight flits = 8 (8 measured)
latency change    = 0.00431251
throughput change = 0.0539683
Class 0:
Packet latency average = 19.1044
	minimum = 7
	maximum = 43
Network latency average = 19.1044
	minimum = 7
	maximum = 43
Slowest packet = 15712
Flit latency average = 19.1821
	minimum = 7
	maximum = 43
Slowest flit = 15712
Fragmentation average = 0
	minimum = 0
	maximum = 0
Injected packet rate average = 0.0198125
	minimum = 0.017 (at node 7)
	maximum = 0.0245 (at node 1)
Accepted packet rate average = 0.0199063
	minimum = 0.017 (at node 2)
	maximum = 0.0245 (at node 4)
Injected flit rate average = 0.0198125
	minimum = 0.017 (at node 7)
	maximum = 0.0245 (at node 1)
Accepted flit rate average= 0.0199063
	minimum = 0.017 (at node 2)
	maximum = 0.0245 (at node 4)
Injected packet length average = 1
Accepted packet length average = 1
Total in-flight flits = 2 (2 measured)
latency change    = 0.000781204
throughput change = 0.010989
Class 0:
Packet latency average = 19.2291
	minimum = 7
	maximum = 43
Network latency average = 19.2291
	minimum = 7
	maximum = 43
Slowest packet = 15712
Flit latency average = 19.2799
	minimum = 7
	maximum = 43
Slowest flit = 15712
Fragmentation average = 0
	minimum = 0
	maximum = 0
Injected packet rate average = 0.0200833
	minimum = 0.0166667 (at node 8)
	maximum = 0.0233333 (at node 6)
Accepted packet rate average = 0.0200208
	minimum = 0.0163333 (at node 2)
	maximum = 0.0236667 (at node 9)
Injected flit rate average = 0.0200833
	minimum = 0.0166667 (at node 8)
	maximum = 0.0233333 (at node 6)
Accepted flit rate average= 0.0200208
	minimum = 0.0163333 (at node 2)
	maximum = 0.0236667 (at node 9)
Injected packet length average = 1
Accepted packet length average = 1
Total in-flight flits = 8 (8 measured)
latency change    = 0.00648232
throughput change = 0.0057232
Class 0:
Packet latency average = 19.5505
	minimum = 7
	maximum = 43
Network latency average = 19.5505
	minimum = 7
	maximum = 43
Slowest packet = 15712
Flit latency average = 19.5871
	minimum = 7
	maximum = 43
Slowest flit = 15712
Fragmentation average = 0
	minimum = 0
	maximum = 0
Injected packet rate average = 0.0201875
	minimum = 0.0165 (at node 11)
	maximum = 0.0235 (at node 5)
Accepted packet rate average = 0.0201719
	minimum = 0.0165 (at node 14)
	maximum = 0.0235 (at node 5)
Injected flit rate average = 0.0201875
	minimum = 0.0165 (at node 11)
	maximum = 0.0235 (at node 5)
Accepted flit rate average= 0.0201719
	minimum = 0.0165 (at node 14)
	maximum = 0.0235 (at node 5)
Injected packet length average = 1
Accepted packet length average = 1
Total in-flight flits = 6 (6 measured)
latency change    = 0.0164428
throughput change = 0.00748774
Draining all recorded packets ...
Draining remaining packets ...
Time taken is 7060 cycles
Class 0:
Packet latency average = 20.3947
	minimum = 7
	maximum = 39
Network latency average = 20.3947
	minimum = 7
	maximum = 39
Slowest packet = 16981
Flit latency average = 20.3947
	minimum = 7
	maximum = 39
Slowest flit = 16981
Fragmentation average = 0
	minimum = 0
	maximum = 0
Injected packet rate average = 0.0194375
	minimum = 0.012 (at node 4)
	maximum = 0.034 (at node 2)
Accepted packet rate average = 0.019
	minimum = 0.011 (at node 1)
	maximum = 0.033 (at node 8)
Injected flit rate average = 0.0194375
	minimum = 0.012 (at node 4)
	maximum = 0.034 (at node 2)
Accepted flit rate average= 0.019
	minimum = 0.011 (at node 1)
	maximum = 0.033 (at node 8)
Injected packet length average = 1
Accepted packet length average = 1
Total in-flight flits = 7 (0 measured)
latency change    = 1
throughput change = 1
Class 0:
Packet latency average = 19.9952
	minimum = 7
	maximum = 39
Network latency average = 19.9952
	minimum = 7
	maximum = 39
Slowest packet = 16981
Flit latency average = 19.9952
	minimum = 7
	maximum = 39
Slowest flit = 16981
Fragmentation average = 0
	minimum = 0
	maximum = 0
Injected packet rate average = 0.019625
	minimum = 0.0145 (at node 10)
	maximum = 0.027 (at node 2)
Accepted packet rate average = 0.0194375
	minimum = 0.0145 (at node 10)
	maximum = 0.026 (at node 8)
Injected flit rate average = 0.019625
	minimum = 0.0145 (at node 10)
	maximum = 0.027 (at node 2)
Accepted flit rate average= 0.0194375
	minimum = 0.0145 (at node 10)
	maximum = 0.026 (at node 8)
Injected packet length average = 1
Accepted packet length average = 1
Total in-flight flits = 6 (0 measured)
latency change    = 0.0199828
throughput change = 0.022508
Class 0:
Packet latency average = 19.1009
	minimum = 7
	maximum = 45
Network latency average = 19.1009
	minimum = 7
	maximum = 45
Slowest packet = 17585
Flit latency average = 19.1009
	minimum = 7
	maximum = 45
Slowest flit = 17585
Fragmentation average = 0
	minimum = 0
	maximum = 0
Injected packet rate average = 0.0196875
	minimum = 0.011 (at node 2)
	maximum = 0.025 (at node 4)
Accepted packet rate average = 0.0198125
	minimum = 0.013 (at node 8)
	maximum = 0.025 (at node 1)
Injected flit rate average = 0.0196875
	minimum = 0.011 (at node 2)
	maximum = 0.025 (at node 4)
Accepted flit rate average= 0.0198125
	minimum = 0.013 (at node 8)
	maximum = 0.025 (at node 1)
Injected packet length average = 1
Accepted packet length average = 1
Total in-flight flits = 4 (0 measured)
latency change    = 0.046816
throughput change = 0.0189274
Warmed up ...Time used is 3000 cycles
Class 0:
Packet latency average = 18.3908
	minimum = 7
	maximum = 41
Network latency average = 18.3908
	minimum = 7
	maximum = 41
Slowest packet = 18007
Flit latency average = 18.4034
	minimum = 7
	maximum = 41
Slowest flit = 18007
Fragmentation average = 0
	minimum = 0
	maximum = 0
Injected packet rate average = 0.022125
	minimum = 0.014 (at node 7)
	maximum = 0.031 (at node 9)
Accepted packet rate average = 0.022
	minimum = 0.014 (at node 7)
	maximum = 0.03 (at node 6)
Injected flit rate average = 0.022125
	minimum = 0.014 (at node 7)
	maximum = 0.031 (at node 9)
Accepted flit rate average= 0.022
	minimum = 0.014 (at node 7)
	maximum = 0.03 (at node 6)
Injected packet length average = 1
Accepted packet length average = 1
Total in-flight flits = 6 (6 measured)
latency change    = 0.038614
throughput change = 0.0994318
Class 0:
Packet latency average = 18.8819
	minimum = 7
	maximum = 41
Network latency average = 18.8819
	minimum = 7
	maximum = 41
Slowest packet = 18007
Flit latency average = 18.8856
	minimum = 7
	maximum = 41
Slowest flit = 18007
Fragmentation average = 0
	minimum = 0
	maximum = 0
Injected packet rate average = 0.021125
	minimum = 0.014 (at node 7)
	maximum = 0.027 (at node 9)
Accepted packet rate average = 0.0210313
	minimum = 0.0135 (at node 13)
	maximum = 0.027 (at node 10)
Injected flit rate average = 0.021125
	minimum = 0.014 (at node 7)
	maximum = 0.027 (at node 9)
Accepted flit rate average= 0.0210313
	minimum = 0.0135 (at node 13)
	maximum = 0.027 (at node 10)
Injected packet length average = 1
Accepted packet length average = 1
Total in-flight flits = 7 (7 measured)
latency change    = 0.0260095
throughput change = 0.0460624
Class 0:
Packet latency average = 19.1342
	minimum = 7
	maximum = 45
Network latency average = 19.1342
	minimum = 7
	maximum = 45
Slowest packet = 18615
Flit latency average = 19.1356
	minimum = 7
	maximum = 45
Slowest flit = 18615
Fragmentation average = 0
	minimum = 0
	maximum = 0
Injected packet rate average = 0.021875
	minimum = 0.0176667 (at node 7)
	maximum = 0.0263333 (at node 8)
Accepted packet rate average = 0.0218125
	minimum = 0.0173333 (at node 13)
	maximum = 0.026 (at node 2)
Injected flit rate average = 0.021875
	minimum = 0.0176667 (at node 7)
	maximum = 0.0263333 (at node 8)
Accepted flit rate average= 0.0218125
	minimum = 0.0173333 (at node 13)
	maximum = 0.026 (at node 2)
Injected packet length average = 1
Accepted packet length average = 1
Total in-flight flits = 7 (7 measured)
latency change    = 0.0131866
throughput change = 0.0358166
Class 0:
Packet latency average = 19.2829
	minimum = 7
	maximum = 45
Network latency average = 19.2829
	minimum = 7
	maximum = 45
Slowest packet = 18615
Flit latency average = 19.2835
	minimum = 7
	maximum = 45
Slowest flit = 18615
Fragmentation average = 0
	minimum = 0
	maximum = 0
Injected packet rate average = 0.0216094
	minimum = 0.01825 (at node 11)
	maximum = 0.02625 (at node 8)
Accepted packet rate average = 0.0215469
	minimum = 0.01825 (at node 14)
	maximum = 0.02625 (at node 2)
Injected flit rate average = 0.0216094
	minimum = 0.01825 (at node 11)
	maximum = 0.02625 (at node 8)
Accepted flit rate average= 0.0215469
	minimum = 0.01825 (at node 14)
	maximum = 0.02625 (at node 2)
Injected packet length average = 1
Accepted packet length average = 1
Total in-flight flits = 8 (8 measured)
latency change    = 0.0077105
throughput change = 0.0123278
Draining all recorded packets ...
Draining remaining packets ...
Time taken is 7052 cycles
Class 0:
Packet latency average = 19.0812
	minimum = 7
	maximum = 37
Network latency average = 19.0812
	minimum = 7
	maximum = 37
Slowest packet = 19293
Flit latency average = 19.0812
	minimum = 7
	maximum = 37
Slowest flit = 19293
Fragmentation average = 0
	minimum = 0
	maximum = 0
Injected packet rate average = 0.01975
	minimum = 0.013 (at node 2)
	maximum = 0.029 (at node 13)
Accepted packet rate average = 0.01925
	minimum = 0.013 (at node 8)
	maximum = 0.028 (at node 7)
Injected flit rate average = 0.01975
	minimum = 0.013 (at node 2)
	maximum = 0.029 (at node 13)
Accepted flit rate average= 0.01925
	minimum = 0.013 (at node 8)
	maximum = 0.028 (at node 7)
Injected packet length average = 1
Accepted packet length average = 1
Total in-flight flits = 8 (0 measured)
latency change    = 1
throughput change = 1
Class 0:
Packet latency average = 19.5776
	minimum = 7
	maximum = 37
Network latency average = 19.5776
	minimum = 7
	maximum = 37
Slowest packet = 19293
Flit latency average = 19.5776
	minimum = 7
	maximum = 37
Slowest flit = 19293
Fragmentation average = 0
	minimum = 0
	maximum = 0
Injected packet rate average = 0.0190937
	minimum = 0.015 (at node 12)
	maximum = 0.028 (at node 13)
Accepted packet rate average = 0.0187187
	minimum = 0.014 (at node 3)
	maximum = 0.0275 (at node 7)
Injected flit rate average = 0.0190937
	minimum = 0.015 (at node 12)
	maximum = 0.028 (at node 13)
Accepted flit rate average= 0.0187187
	minimum = 0.014 (at node 3)
	maximum = 0.0275 (at node 7)
Injected packet length average = 1
Accepted packet length average = 1
Total in-flight flits = 12 (0 measured)
latency change    = 0.0253586
throughput change = 0.0283806
Class 0:
Packet latency average = 19.013
	minimum = 7
	maximum = 37
Network latency average = 19.013
	minimum = 7
	maximum = 37
Slowest packet = 19887
Flit latency average = 19.013
	minimum = 7
	maximum = 37
Slowest flit = 19887
Fragmentation average = 0
	minimum = 0
	maximum = 0
Injected packet rate average = 0.0186875
	minimum = 0.012 (at node 11)
	maximum = 0.03 (at node 15)
Accepted packet rate average = 0.01925
	minimum = 0.013 (at node 12)
	maximum = 0.03 (at node 15)
Injected flit rate average = 0.0186875
	minimum = 0.012 (at node 11)
	maximum = 0.03 (at node 15)
Accepted flit rate average= 0.01925
	minimum = 0.013 (at node 12)
	maximum = 0.03 (at node 15)
Injected packet length average = 1
Accepted packet length average = 1
Total in-flight flits = 3 (0 measured)
latency change    = 0.0296977
throughput change = 0.0275974
Warmed up ...Time used is 3000 cycles
Class 0:
Packet latency average = 18.3981
	minimum = 7
	maximum = 43
Network latency average = 18.3981
	minimum = 7
	maximum = 43
Slowest packet = 20267
Flit latency average = 18.5714
	minimum = 7
	maximum = 43
Slowest flit = 20267
Fragmentation average = 0
	minimum = 0
	maximum = 0
Injected packet rate average = 0.0200625
	minimum = 0.012 (at node 12)
	maximum = 0.036 (at node 6)
Accepted packet rate average = 0.020125
	minimum = 0.013 (at node 1)
	maximum = 0.036 (at node 9)
Injected flit rate average = 0.0200625
	minimum = 0.012 (at node 12)
	maximum = 0.036 (at node 6)
Accepted flit rate average= 0.020125
	minimum = 0.013 (at node 1)
	maximum = 0.036 (at node 9)
Injected packet length average = 1
Accepted packet length average = 1
Total in-flight flits = 2 (2 measured)
latency change    = 0.0334201
throughput change = 0.0434783
Class 0:
Packet latency average = 18.5092
	minimum = 7
	maximum = 43
Network latency average = 18.5092
	minimum = 7
	maximum = 43
Slowest packet = 20267
Flit latency average = 18.6013
	minimum = 7
	maximum = 43
Slowest flit = 20267
Fragmentation average = 0
	minimum = 0
	maximum = 0
Injected packet rate average = 0.0191875
	minimum = 0.013 (at node 3)
	maximum = 0.0275 (at node 6)
Accepted packet rate average = 0.0188125
	minimum = 0.0135 (at node 12)
	maximum = 0.027 (at node 9)
Injected flit rate average = 0.0191875
	minimum = 0.013 (at node 3)
	maximum = 0.0275 (at node 6)
Accepted flit rate average= 0.0188125
	minimum = 0.0135 (at node 12)
	maximum = 0.027 (at node 9)
Injected packet length average = 1
Accepted packet length average = 1
Total in-flight flits = 15 (15 measured)
latency change    = 0.00600042
throughput change = 0.0697674
Class 0:
Packet latency average = 18.8769
	minimum = 7
	maximum = 43
Network latency average = 18.8769
	minimum = 7
	maximum = 43
Slowest packet = 20267
Flit latency average = 18.9365
	minimum = 7
	maximum = 43
Slowest flit = 20267
Fragmentation average = 0
	minimum = 0
	maximum = 0
Injected packet rate average = 0.019
	minimum = 0.0143333 (at node 3)
	maximum = 0.023 (at node 11)
Accepted packet rate average = 0.0190208
	minimum = 0.015 (at node 7)
	maximum = 0.023 (at node 14)
Injected flit rate average = 0.019
	minimum = 0.0143333 (at node 3)
	maximum = 0.023 (at node 11)
Accepted flit rate average= 0.0190208
	minimum = 0.015 (at node 7)
	maximum = 0.023 (at node 14)
Injected packet length average = 1
Accepted packet length average = 1
Total in-flight flits = 2 (2 measured)
latency change    = 0.019481
throughput change = 0.0109529
Class 0:
Packet latency average = 19.078
	minimum = 7
	maximum = 45
Network latency average = 19.078
	minimum = 7
	maximum = 45
Slowest packet = 21182
Flit latency average = 19.1203
	minimum = 7
	maximum = 45
Slowest flit = 21182
Fragmentation average = 0
	minimum = 0
	maximum = 0
Injected packet rate average = 0.0199688
	minimum = 0.01525 (at node 3)
	maximum = 0.0235 (at node 11)
Accepted packet rate average = 0.019875
	minimum = 0.01575 (at node 12)
	maximum = 0.02325 (at node 14)
Injected flit rate average = 0.0199688
	minimum = 0.01525 (at node 3)
	maximum = 0.0235 (at node 11)
Accepted flit rate average= 0.019875
	minimum = 0.01575 (at node 12)
	maximum = 0.02325 (at node 14)
Injected packet length average = 1
Accepted packet length average = 1
Total in-flight flits = 9 (9 measured)
latency change    = 0.0105405
throughput change = 0.0429769
Class 0:
Packet latency average = 19.1265
	minimum = 7
	maximum = 45
Network latency average = 19.1265
	minimum = 7
	maximum = 45
Slowest packet = 21182
Flit latency average = 19.1602
	minimum = 7
	maximum = 45
Slowest flit = 21182
Fragmentation average = 0
	minimum = 0
	maximum = 0
Injected packet rate average = 0.019925
	minimum = 0.0152 (at node 3)
	maximum = 0.024 (at node 11)
Accepted packet rate average = 0.0199
	minimum = 0.0154 (at node 12)
	maximum = 0.024 (at node 14)
Injected flit rate average = 0.019925
	minimum = 0.0152 (at node 3)
	maximum = 0.024 (at node 11)
Accepted flit rate average= 0.0199
	minimum = 0.0154 (at node 12)
	maximum = 0.024 (at node 14)
Injected packet length average = 1
Accepted packet length average = 1
Total in-flight flits = 5 (5 measured)
latency change    = 0.00253473
throughput change = 0.00125628
Draining all recorded packets ...
Draining remaining packets ...
Time taken is 8017 cycles
Class 0:
Packet latency average = 18.9453
	minimum = 7
	maximum = 41
Network latency average = 18.9453
	minimum = 7
	maximum = 41
Slowest packet = 21979
Flit latency average = 18.9453
	minimum = 7
	maximum = 41
Slowest flit = 21979
Fragmentation average = 0
	minimum = 0
	maximum = 0
Injected packet rate average = 0.02025
	minimum = 0.013 (at node 6)
	maximum = 0.028 (at node 0)
Accepted packet rate average = 0.0194375
	minimum = 0.013 (at node 9)
	maximum = 0.028 (at node 0)
Injected flit rate average = 0.02025
	minimum = 0.013 (at node 6)
	maximum = 0.028 (at node 0)
Accepted flit rate average= 0.0194375
	minimum = 0.013 (at node 9)
	maximum = 0.028 (at node 0)
Injected packet length average = 1
Accepted packet length average = 1
Total in-flight flits = 13 (0 measured)
latency change    = 1
throughput change = 1
Class 0:
Packet latency average = 18.9547
	minimum = 7
	maximum = 41
Network latency average = 18.9547
	minimum = 7
	maximum = 41
Slowest packet = 21979
Flit latency average = 18.9547
	minimum = 7
	maximum = 41
Slowest flit = 21979
Fragmentation average = 0
	minimum = 0
	maximum = 0
Injected packet rate average = 0.0195625
	minimum = 0.015 (at node 3)
	maximum = 0.0245 (at node 1)
Accepted packet rate average = 0.0193125
	minimum = 0.015 (at node 12)
	maximum = 0.0245 (at node 4)
Injected flit rate average = 0.0195625
	minimum = 0.015 (at node 3)
	maximum = 0.0245 (at node 1)
Accepted flit rate average= 0.0193125
	minimum = 0.015 (at node 12)
	maximum = 0.0245 (at node 4)
Injected packet length average = 1
Accepted packet length average = 1
Total in-flight flits = 8 (0 measured)
latency change    = 0.000493542
throughput change = 0.00647249
Class 0:
Packet latency average = 19.693
	minimum = 7
	maximum = 40
Network latency average = 19.693
	minimum = 7
	maximum = 40
Slowest packet = 22676
Flit latency average = 19.693
	minimum = 7
	maximum = 40
Slowest flit = 22676
Fragmentation average = 0
	minimum = 0
	maximum = 0
Injected packet rate average = 0.020375
	minimum = 0.016 (at node 11)
	maximum = 0.029 (at node 8)
Accepted packet rate average = 0.0205625
	minimum = 0.016 (at node 14)
	maximum = 0.029 (at node 2)
Injected flit rate average = 0.020375
	minimum = 0.016 (at node 11)
	maximum = 0.029 (at node 8)
Accepted flit rate average= 0.0205625
	minimum = 0.016 (at node 14)
	maximum = 0.029 (at node 2)
Injected packet length average = 1
Accepted packet length average = 1
Total in-flight flits = 5 (0 measured)
latency change    = 0.0374913
throughput change = 0.0607903
Warmed up ...Time used is 3000 cycles
Class 0:
Packet latency average = 18.15
	minimum = 7
	maximum = 37
Network latency average = 18.15
	minimum = 7
	maximum = 37
Slowest packet = 22761
Flit latency average = 18.3404
	minimum = 7
	maximum = 37
Slowest flit = 22740
Fragmentation average = 0
	minimum = 0
	maximum = 0
Injected packet rate average = 0.017875
	minimum = 0.005 (at node 3)
	maximum = 0.024 (at node 11)
Accepted packet rate average = 0.0178125
	minimum = 0.006 (at node 12)
	maximum = 0.025 (at node 14)
Injected flit rate average = 0.017875
	minimum = 0.005 (at node 3)
	maximum = 0.024 (at node 11)
Accepted flit rate average= 0.0178125
	minimum = 0.006 (at node 12)
	maximum = 0.025 (at node 14)
Injected packet length average = 1
Accepted packet length average = 1
Total in-flight flits = 6 (6 measured)
latency change    = 0.0850143
throughput change = 0.154386
Class 0:
Packet latency average = 18.7629
	minimum = 7
	maximum = 38
Network latency average = 18.7629
	minimum = 7
	maximum = 38
Slowest packet = 23287
Flit latency average = 18.847
	minimum = 7
	maximum = 38
Slowest flit = 23287
Fragmentation average = 0
	minimum = 0
	maximum = 0
Injected packet rate average = 0.019
	minimum = 0.013 (at node 3)
	maximum = 0.023 (at node 8)
Accepted packet rate average = 0.019
	minimum = 0.0135 (at node 12)
	maximum = 0.023 (at node 2)
Injected flit rate average = 0.019
	minimum = 0.013 (at node 3)
	maximum = 0.023 (at node 8)
Accepted flit rate average= 0.019
	minimum = 0.0135 (at node 12)
	maximum = 0.023 (at node 2)
Injected packet length average = 1
Accepted packet length average = 1
Total in-flight flits = 5 (5 measured)
latency change    = 0.0326631
throughput change = 0.0625
Class 0:
Packet latency average = 19.128
	minimum = 7
	maximum = 38
Network latency average = 19.128
	minimum = 7
	maximum = 38
Slowest packet = 23287
Flit latency average = 19.1817
	minimum = 7
	maximum = 38
Slowest flit = 23287
Fragmentation average = 0
	minimum = 0
	maximum = 0
Injected packet rate average = 0.0191667
	minimum = 0.015 (at node 3)
	maximum = 0.023 (at node 8)
Accepted packet rate average = 0.0191458
	minimum = 0.0146667 (at node 12)
	maximum = 0.0226667 (at node 2)
Injected flit rate average = 0.0191667
	minimum = 0.015 (at node 3)
	maximum = 0.023 (at node 8)
Accepted flit rate average= 0.0191458
	minimum = 0.0146667 (at node 12)
	maximum = 0.0226667 (at node 2)
Injected packet length average = 1
Accepted packet length average = 1
Total in-flight flits = 6 (6 measured)
latency change    = 0.0190901
throughput change = 0.00761697
Class 0:
Packet latency average = 19.1664
	minimum = 7
	maximum = 38
Network latency average = 19.1664
	minimum = 7
	maximum = 38
Slowest packet = 23287
Flit latency average = 19.2065
	minimum = 7
	maximum = 38
Slowest flit = 23287
Fragmentation average = 0
	minimum = 0
	maximum = 0
Injected packet rate average = 0.0191719
	minimum = 0.0165 (at node 3)
	maximum = 0.023 (at node 0)
Accepted packet rate average = 0.0191406
	minimum = 0.01675 (at node 12)
	maximum = 0.023 (at node 0)
Injected flit rate average = 0.0191719
	minimum = 0.0165 (at node 3)
	maximum = 0.023 (at node 0)
Accepted flit rate average= 0.0191406
	minimum = 0.01675 (at node 12)
	maximum = 0.023 (at node 0)
Injected packet length average = 1
Accepted packet length average = 1
Total in-flight flits = 7 (7 measured)
latency change    = 0.00200271
throughput change = 0.000272109
Class 0:
Packet latency average = 19.1081
	minimum = 7
	maximum = 39
Network latency average = 19.1081
	minimum = 7
	maximum = 39
Slowest packet = 24227
Flit latency average = 19.1398
	minimum = 7
	maximum = 39
Slowest flit = 24227
Fragmentation average = 0
	minimum = 0
	maximum = 0
Injected packet rate average = 0.0195125
	minimum = 0.0166 (at node 3)
	maximum = 0.023 (at node 0)
Accepted packet rate average = 0.0194875
	minimum = 0.0168 (at node 12)
	maximum = 0.023 (at node 0)
Injected flit rate average = 0.0195125
	minimum = 0.0166 (at node 3)
	maximum = 0.023 (at node 0)
Accepted flit rate average= 0.0194875
	minimum = 0.0168 (at node 12)
	maximum = 0.023 (at node 0)
Injected packet length average = 1
Accepted packet length average = 1
Total in-flight flits = 7 (7 measured)
latency change    = 0.00305029
throughput change = 0.0177999
Draining all recorded packets ...
Draining remaining packets ...
Time taken is 8064 cycles
Class 0:
Packet latency average = 19.89
	minimum = 7
	maximum = 38
Network latency average = 19.89
	minimum = 7
	maximum = 38
Slowest packet = 24458
Flit latency average = 19.89
	minimum = 7
	maximum = 38
Slowest flit = 24458
Fragmentation average = 0
	minimum = 0
	maximum = 0
Injected packet rate average = 0.019625
	minimum = 0.013 (at node 7)
	maximum = 0.026 (at node 3)
Accepted packet rate average = 0.0193125
	minimum = 0.013 (at node 13)
	maximum = 0.025 (at node 4)
Injected flit rate average = 0.019625
	minimum = 0.013 (at node 7)
	maximum = 0.026 (at node 3)
Accepted flit rate average= 0.0193125
	minimum = 0.013 (at node 13)
	maximum = 0.025 (at node 4)
Injected packet length average = 1
Accepted packet length average = 1
Total in-flight flits = 5 (0 measured)
latency change    = 1
throughput change = 1
Class 0:
Packet latency average = 19.471
	minimum = 7
	maximum = 38
Network latency average = 19.471
	minimum = 7
	maximum = 38
Slowest packet = 24458
Flit latency average = 19.471
	minimum = 7
	maximum = 38
Slowest flit = 24458
Fragmentation average = 0
	minimum = 0
	maximum = 0
Injected packet rate average = 0.0202188
	minimum = 0.016 (at node 5)
	maximum = 0.024 (at node 1)
Accepted packet rate average = 0.0199063
	minimum = 0.016 (at node 2)
	maximum = 0.0235 (at node 4)
Injected flit rate average = 0.0202188
	minimum = 0.016 (at node 5)
	maximum = 0.024 (at node 1)
Accepted flit rate average= 0.0199063
	minimum = 0.016 (at node 2)
	maximum = 0.0235 (at node 4)
Injected packet length average = 1
Accepted packet length average = 1
Total in-flight flits = 10 (0 measured)
latency change    = 0.0215197
throughput change = 0.0298273
Class 0:
Packet latency average = 19.7873
	minimum = 7
	maximum = 45
Network latency average = 19.7873
	minimum = 7
	maximum = 45
Slowest packet = 25047
Flit latency average = 19.7873
	minimum = 7
	maximum = 45
Slowest flit = 25047
Fragmentation average = 0
	minimum = 0
	maximum = 0
Injected packet rate average = 0.0193125
	minimum = 0.01 (at node 15)
	maximum = 0.026 (at node 1)
Accepted packet rate average = 0.0196875
	minimum = 0.01 (at node 15)
	maximum = 0.027 (at node 4)
Injected flit rate average = 0.0193125
	minimum = 0.01 (at node 15)
	maximum = 0.026 (at node 1)
Accepted flit rate average= 0.0196875
	minimum = 0.01 (at node 15)
	maximum = 0.027 (at node 4)
Injected packet length average = 1
Accepted packet length average = 1
Total in-flight flits = 4 (0 measured)
latency change    = 0.0159872
throughput change = 0.0111111
Warmed up ...Time used is 3000 cycles
Class 0:
Packet latency average = 20.1146
	minimum = 7
	maximum = 38
Network latency average = 20.1146
	minimum = 7
	maximum = 38
Slowest packet = 25407
Flit latency average = 20.2642
	minimum = 7
	maximum = 38
Slowest flit = 25407
Fragmentation average = 0
	minimum = 0
	maximum = 0
Injected packet rate average = 0.0200625
	minimum = 0.013 (at node 6)
	maximum = 0.029 (at node 3)
Accepted packet rate average = 0.019875
	minimum = 0.013 (at node 9)
	maximum = 0.027 (at node 11)
Injected flit rate average = 0.0200625
	minimum = 0.013 (at node 6)
	maximum = 0.029 (at node 3)
Accepted flit rate average= 0.019875
	minimum = 0.013 (at node 9)
	maximum = 0.027 (at node 11)
Injected packet length average = 1
Accepted packet length average = 1
Total in-flight flits = 7 (7 measured)
latency change    = 0.0162741
throughput change = 0.00943396
Class 0:
Packet latency average = 19.8576
	minimum = 7
	maximum = 45
Network latency average = 19.8576
	minimum = 7
	maximum = 45
Slowest packet = 25905
Flit latency average = 19.9315
	minimum = 7
	maximum = 45
Slowest flit = 25905
Fragmentation average = 0
	minimum = 0
	maximum = 0
Injected packet rate average = 0.0205313
	minimum = 0.013 (at node 6)
	maximum = 0.0275 (at node 14)
Accepted packet rate average = 0.0205313
	minimum = 0.013 (at node 9)
	maximum = 0.0275 (at node 11)
Injected flit rate average = 0.0205313
	minimum = 0.013 (at node 6)
	maximum = 0.0275 (at node 14)
Accepted flit rate average= 0.0205313
	minimum = 0.013 (at node 9)
	maximum = 0.0275 (at node 11)
Injected packet length average = 1
Accepted packet length average = 1
Total in-flight flits = 4 (4 measured)
latency change    = 0.0129456
throughput change = 0.0319635
Class 0:
Packet latency average = 19.7866
	minimum = 7
	maximum = 45
Network latency average = 19.7866
	minimum = 7
	maximum = 45
Slowest packet = 25905
Flit latency average = 19.8375
	minimum = 7
	maximum = 45
Slowest flit = 25905
Fragmentation average = 0
	minimum = 0
	maximum = 0
Injected packet rate average = 0.0200625
	minimum = 0.0143333 (at node 6)
	maximum = 0.026 (at node 14)
Accepted packet rate average = 0.02
	minimum = 0.014 (at node 9)
	maximum = 0.026 (at node 11)
Injected flit rate average = 0.0200625
	minimum = 0.0143333 (at node 6)
	maximum = 0.026 (at node 14)
Accepted flit rate average= 0.02
	minimum = 0.014 (at node 9)
	maximum = 0.026 (at node 11)
Injected packet length average = 1
Accepted packet length average = 1
Total in-flight flits = 7 (7 measured)
latency change    = 0.00358674
throughput change = 0.0265625
Draining all recorded packets ...
Draining remaining packets ...
Time taken is 6042 cycles
Class 0:
Packet latency average = 18.314
	minimum = 7
	maximum = 38
Network latency average = 18.314
	minimum = 7
	maximum = 38
Slowest packet = 26497
Flit latency average = 18.314
	minimum = 7
	maximum = 38
Slowest flit = 26497
Fragmentation average = 0
	minimum = 0
	maximum = 0
Injected packet rate average = 0.0210625
	minimum = 0.013 (at node 3)
	maximum = 0.032 (at node 15)
Accepted packet rate average = 0.0205
	minimum = 0.013 (at node 12)
	maximum = 0.032 (at node 15)
Injected flit rate average = 0.0210625
	minimum = 0.013 (at node 3)
	maximum = 0.032 (at node 15)
Accepted flit rate average= 0.0205
	minimum = 0.013 (at node 12)
	maximum = 0.032 (at node 15)
Injected packet length average = 1
Accepted packet length average = 1
Total in-flight flits = 9 (0 measured)
latency change    = 1
throughput change = 1
Class 0:
Packet latency average = 19.0872
	minimum = 7
	maximum = 38
Network latency average = 19.0872
	minimum = 7
	maximum = 38
Slowest packet = 26497
Flit latency average = 19.0872
	minimum = 7
	maximum = 38
Slowest flit = 26497
Fragmentation average = 0
	minimum = 0
	maximum = 0
Injected packet rate average = 0.0194687
	minimum = 0.0125 (at node 0)
	maximum = 0.0245 (at node 5)
Accepted packet rate average = 0.0193437
	minimum = 0.0125 (at node 0)
	maximum = 0.0245 (at node 5)
Injected flit rate average = 0.0194687
	minimum = 0.0125 (at node 0)
	maximum = 0.0245 (at node 5)
Accepted flit rate average= 0.0193437
	minimum = 0.0125 (at node 0)
	maximum = 0.0245 (at node 5)
Injected packet length average = 1
Accepted packet length average = 1
Total in-flight flits = 4 (0 measured)
latency change    = 0.0405094
throughput change = 0.0597738
Class 0:
Packet latency average = 19.3409
	minimum = 7
	maximum = 38
Network latency average = 19.3409
	minimum = 7
	maximum = 38
Slowest packet = 27147
Flit latency average = 19.3409
	minimum = 7
	maximum = 38
Slowest flit = 27147
Fragmentation average = 0
	minimum = 0
	maximum = 0
Injected packet rate average = 0.0193125
	minimum = 0.009 (at node 9)
	maximum = 0.028 (at node 2)
Accepted packet rate average = 0.01925
	minimum = 0.009 (at node 6)
	maximum = 0.028 (at node 2)
Injected flit rate average = 0.0193125
	minimum = 0.009 (at node 9)
	maximum = 0.028 (at node 2)
Accepted flit rate average= 0.01925
	minimum = 0.009 (at node 6)
	maximum = 0.028 (at node 2)
Injected packet length average = 1
Accepted packet length average = 1
Total in-flight flits = 5 (0 measured)
latency change    = 0.0131158
throughput change = 0.00487013
Warmed up ...Time used is 3000 cycles
Class 0:
Packet latency average = 19.2348
	minimum = 7
	maximum = 37
Network latency average = 19.2348
	minimum = 7
	maximum = 37
Slowest packet = 27180
Flit latency average = 19.3743
	minimum = 7
	maximum = 37
Slowest flit = 27167
Fragmentation average = 0
	minimum = 0
	maximum = 0
Injected packet rate average = 0.022
	minimum = 0.015 (at node 6)
	maximum = 0.033 (at node 9)
Accepted packet rate average = 0.021875
	minimum = 0.015 (at node 9)
	maximum = 0.033 (at node 6)
Injected flit rate average = 0.022
	minimum = 0.015 (at node 6)
	maximum = 0.033 (at node 9)
Accepted flit rate average= 0.021875
	minimum = 0.015 (at node 9)
	maximum = 0.033 (at node 6)
Injected packet length average = 1
Accepted packet length average = 1
Total in-flight flits = 7 (7 measured)
latency change    = 0.00551743
throughput change = 0.12
Class 0:
Packet latency average = 19.4258
	minimum = 7
	maximum = 39
Network latency average = 19.4258
	minimum = 7
	maximum = 39
Slowest packet = 27705
Flit latency average = 19.497
	minimum = 7
	maximum = 39
Slowest flit = 27705
Fragmentation average = 0
	minimum = 0
	maximum = 0
Injected packet rate average = 0.0209688
	minimum = 0.0165 (at node 6)
	maximum = 0.0275 (at node 1)
Accepted packet rate average = 0.021
	minimum = 0.016 (at node 9)
	maximum = 0.0275 (at node 4)
Injected flit rate average = 0.0209688
	minimum = 0.0165 (at node 6)
	maximum = 0.0275 (at node 1)
Accepted flit rate average= 0.021
	minimum = 0.016 (at node 9)
	maximum = 0.0275 (at node 4)
Injected packet length average = 1
Accepted packet length average = 1
Total in-flight flits = 4 (4 measured)
latency change    = 0.00983252
throughput change = 0.0416667
Class 0:
Packet latency average = 19.6252
	minimum = 7
	maximum = 39
Network latency average = 19.6252
	minimum = 7
	maximum = 39
Slowest packet = 27705
Flit latency average = 19.6712
	minimum = 7
	maximum = 39
Slowest flit = 27705
Fragmentation average = 0
	minimum = 0
	maximum = 0
Injected packet rate average = 0.0212708
	minimum = 0.0153333 (at node 6)
	maximum = 0.0266667 (at node 1)
Accepted packet rate average = 0.0212292
	minimum = 0.0153333 (at node 9)
	maximum = 0.0263333 (at node 4)
Injected flit rate average = 0.0212708
	minimum = 0.0153333 (at node 6)
	maximum = 0.0266667 (at node 1)
Accepted flit rate average= 0.0212292
	minimum = 0.0153333 (at node 9)
	maximum = 0.0263333 (at node 4)
Injected packet length average = 1
Accepted packet length average = 1
Total in-flight flits = 7 (7 measured)
latency change    = 0.0101634
throughput change = 0.0107949
Class 0:
Packet latency average = 19.8965
	minimum = 7
	maximum = 55
Network latency average = 19.8965
	minimum = 7
	maximum = 55
Slowest packet = 28287
Flit latency average = 19.9312
	minimum = 7
	maximum = 55
Slowest flit = 28287
Fragmentation average = 0
	minimum = 0
	maximum = 0
Injected packet rate average = 0.0204375
	minimum = 0.0145 (at node 6)
	maximum = 0.02475 (at node 1)
Accepted packet rate average = 0.0204531
	minimum = 0.0145 (at node 9)
	maximum = 0.02475 (at node 4)
Injected flit rate average = 0.0204375
	minimum = 0.0145 (at node 6)
	maximum = 0.02475 (at node 1)
Accepted flit rate average= 0.0204531
	minimum = 0.0145 (at node 9)
	maximum = 0.02475 (at node 4)
Injected packet length average = 1
Accepted packet length average = 1
Total in-flight flits = 4 (4 measured)
latency change    = 0.0136319
throughput change = 0.0379424
Draining all recorded packets ...
Draining remaining packets ...
Time taken is 7029 cycles
Class 0:
Packet latency average = 19.6314
	minimum = 7
	maximum = 42
Network latency average = 19.6314
	minimum = 7
	maximum = 42
Slowest packet = 28707
Flit latency average = 19.6314
	minimum = 7
	maximum = 42
Slowest flit = 28707
Fragmentation average = 0
	minimum = 0
	maximum = 0
Injected packet rate average = 0.0198125
	minimum = 0.016 (at node 3)
	maximum = 0.03 (at node 13)
Accepted packet rate average = 0.0195
	minimum = 0.016 (at node 9)
	maximum = 0.029 (at node 7)
Injected flit rate average = 0.0198125
	minimum = 0.016 (at node 3)
	maximum = 0.03 (at node 13)
Accepted flit rate average= 0.0195
	minimum = 0.016 (at node 9)
	maximum = 0.029 (at node 7)
Injected packet length average = 1
Accepted packet length average = 1
Total in-flight flits = 5 (0 measured)
latency change    = 1
throughput change = 1
Class 0:
Packet latency average = 19.5846
	minimum = 7
	maximum = 46
Network latency average = 19.5846
	minimum = 7
	maximum = 46
Slowest packet = 29081
Flit latency average = 19.5846
	minimum = 7
	maximum = 46
Slowest flit = 29081
Fragmentation average = 0
	minimum = 0
	maximum = 0
Injected packet rate average = 0.0205
	minimum = 0.0175 (at node 14)
	maximum = 0.026 (at node 13)
Accepted packet rate average = 0.0203125
	minimum = 0.0175 (at node 11)
	maximum = 0.026 (at node 7)
Injected flit rate average = 0.0205
	minimum = 0.0175 (at node 14)
	maximum = 0.026 (at node 13)
Accepted flit rate average= 0.0203125
	minimum = 0.0175 (at node 11)
	maximum = 0.026 (at node 7)
Injected packet length average = 1
Accepted packet length average = 1
Total in-flight flits = 6 (0 measured)
latency change    = 0.00238937
throughput change = 0.04
Class 0:
Packet latency average = 20.2344
	minimum = 7
	maximum = 41
Network latency average = 20.2344
	minimum = 7
	maximum = 41
Slowest packet = 29192
Flit latency average = 20.2344
	minimum = 7
	maximum = 41
Slowest flit = 29192
Fragmentation average = 0
	minimum = 0
	maximum = 0
Injected packet rate average = 0.02
	minimum = 0.006 (at node 10)
	maximum = 0.027 (at node 4)
Accepted packet rate average = 0.02
	minimum = 0.007 (at node 10)
	maximum = 0.029 (at node 1)
Injected flit rate average = 0.02
	minimum = 0.006 (at node 10)
	maximum = 0.027 (at node 4)
Accepted flit rate average= 0.02
	minimum = 0.007 (at node 10)
	maximum = 0.029 (at node 1)
Injected packet length average = 1
Accepted packet length average = 1
Total in-flight flits = 6 (0 measured)
latency change    = 0.0321117
throughput change = 0.015625
Warmed up ...Time used is 3000 cycles
Class 0:
Packet latency average = 19.6134
	minimum = 7
	maximum = 44
[...]
	minimum = 0.012 (at node 0)
	maximum = 0.0296667 (at node 8)
Accepted packet rate average = 0.0210417
	minimum = 0.012 (at node 0)
	maximum = 0.029 (at node 2)
Injected flit rate average = 0.0212083
	minimum = 0.012 (at node 0)
	maximum = 0.0296667 (at node 8)
Accepted flit rate average= 0.0210417
	minimum = 0.012 (at node 0)
	maximum = 0.029 (at node 2)
Injected packet length average = 1
Accepted packet length average = 1
Total in-flight flits = 12 (12 measured)
latency change    = 0.0188417
throughput change = 0.0143564
Class 0:
Packet latency average = 19.5663
	minimum = 7
	maximum = 43
Network latency average = 19.5663
	minimum = 7
	maximum = 43
Slowest packet = 215517
Flit latency average = 19.596
	minimum = 7
	maximum = 43
Slowest flit = 215517
Fragmentation average = 0
	minimum = 0
	maximum = 0
Injected packet rate average = 0.0210469
	minimum = 0.01475 (at node 0)
	maximum = 0.02575 (at node 8)
Accepted packet rate average = 0.0209219
	minimum = 0.01475 (at node 0)
	maximum = 0.02575 (at node 2)
Injected flit rate average = 0.0210469
	minimum = 0.01475 (at node 0)
	maximum = 0.02575 (at node 8)
Accepted flit rate average= 0.0209219
	minimum = 0.01475 (at node 0)
	maximum = 0.02575 (at node 2)
Injected packet length average = 1
Accepted packet length average = 1
Total in-flight flits = 12 (12 measured)
latency change    = 0.00474048
throughput change = 0.00572567
Draining all recorded packets ...
Draining remaining packets ...
Time taken is 7077 cycles
Class 0:
Packet latency average = 19.4578
	minimum = 7
	maximum = 39
Network latency average = 19.4578
	minimum = 7
	maximum = 39
Slowest packet = 217112
Flit latency average = 19.4578
	minimum = 7
	maximum = 39
Slowest flit = 217112
Fragmentation average = 0
	minimum = 0
	maximum = 0
Injected packet rate average = 0.0211875
	minimum = 0.013 (at node 1)
	maximum = 0.035 (at node 3)
Accepted packet rate average = 0.02075
	minimum = 0.013 (at node 4)
	maximum = 0.034 (at node 12)
Injected flit rate average = 0.0211875
	minimum = 0.013 (at node 1)
	maximum = 0.035 (at node 3)
Accepted flit rate average= 0.02075
	minimum = 0.013 (at node 4)
	maximum = 0.034 (at node 12)
Injected packet length average = 1
Accepted packet length average = 1
Total in-flight flits = 7 (0 measured)
latency change    = 1
throughput change = 1
Class 0:
Packet latency average = 19.7383
	minimum = 7
	maximum = 39
Network latency average = 19.7383
	minimum = 7
	maximum = 39
Slowest packet = 217112
Flit latency average = 19.7383
	minimum = 7
	maximum = 39
Slowest flit = 217112
Fragmentation average = 0
	minimum = 0
	maximum = 0
Injected packet rate average = 0.0209375
	minimum = 0.0155 (at node 2)
	maximum = 0.028 (at node 3)
Accepted packet rate average = 0.0206563
	minimum = 0.0155 (at node 8)
	maximum = 0.027 (at node 12)
Injected flit rate average = 0.0209375
	minimum = 0.0155 (at node 2)
	maximum = 0.028 (at node 3)
Accepted flit rate average= 0.0206563
	minimum = 0.0155 (at node 8)
	maximum = 0.027 (at node 12)
Injected packet length average = 1
Accepted packet length average = 1
Total in-flight flits = 9 (0 measured)
latency change    = 0.0142081
throughput change = 0.00453858
Class 0:
Packet latency average = 19.7049
	minimum = 7
	maximum = 38
Network latency average = 19.7049
	minimum = 7
	maximum = 38
Slowest packet = 217721
Flit latency average = 19.7049
	minimum = 7
	maximum = 38
Slowest flit = 217721
Fragmentation average = 0
	minimum = 0
	maximum = 0
Injected packet rate average = 0.0218125
	minimum = 0.017 (at node 2)
	maximum = 0.027 (at node 8)
Accepted packet rate average = 0.0218125
	minimum = 0.015 (at node 8)
	maximum = 0.027 (at node 2)
Injected flit rate average = 0.0218125
	minimum = 0.017 (at node 2)
	maximum = 0.027 (at node 8)
Accepted flit rate average= 0.0218125
	minimum = 0.015 (at node 8)
	maximum = 0.027 (at node 2)
Injected packet length average = 1
Accepted packet length average = 1
Total in-flight flits = 9 (0 measured)
latency change    = 0.00169523
throughput change = 0.0530086
Warmed up ...Time used is 3000 cycles
Class 0:
Packet latency average = 19.7405
	minimum = 7
	maximum = 41
Network latency average = 19.7405
	minimum = 7
	maximum = 41
Slowest packet = 217981
Flit latency average = 19.9723
	minimum = 7
	maximum = 41
Slowest flit = 217981
Fragmentation average = 0
	minimum = 0
	maximum = 0
Injected packet rate average = 0.020125
	minimum = 0.016 (at node 15)
	maximum = 0.024 (at node 3)
Accepted packet rate average = 0.0203125
	minimum = 0.016 (at node 6)
	maximum = 0.024 (at node 4)
Injected flit rate average = 0.020125
	minimum = 0.016 (at node 15)
	maximum = 0.024 (at node 3)
Accepted flit rate average= 0.0203125
	minimum = 0.016 (at node 6)
	maximum = 0.024 (at node 4)
Injected packet length average = 1
Accepted packet length average = 1
Total in-flight flits = 6 (6 measured)
latency change    = 0.00180519
throughput change = 0.0738462
Class 0:
Packet latency average = 19.8472
	minimum = 7
	maximum = 41
Network latency average = 19.8472
	minimum = 7
	maximum = 41
Slowest packet = 217981
Flit latency average = 19.9604
	minimum = 7
	maximum = 41
Slowest flit = 217981
Fragmentation average = 0
	minimum = 0
	maximum = 0
Injected packet rate average = 0.0203438
	minimum = 0.017 (at node 4)
	maximum = 0.0245 (at node 14)
Accepted packet rate average = 0.0205313
	minimum = 0.0165 (at node 1)
	maximum = 0.0245 (at node 11)
Injected flit rate average = 0.0203438
	minimum = 0.017 (at node 4)
	maximum = 0.0245 (at node 14)
Accepted flit rate average= 0.0205313
	minimum = 0.0165 (at node 1)
	maximum = 0.0245 (at node 11)
Injected packet length average = 1
Accepted packet length average = 1
Total in-flight flits = 3 (3 measured)
latency change    = 0.00537687
throughput change = 0.0106545
Class 0:
Packet latency average = 19.8623
	minimum = 7
	maximum = 41
Network latency average = 19.8623
	minimum = 7
	maximum = 41
Slowest packet = 217981
Flit latency average = 19.9379
	minimum = 7
	maximum = 41
Slowest flit = 217981
Fragmentation average = 0
	minimum = 0
	maximum = 0
Injected packet rate average = 0.0204167
	minimum = 0.0176667 (at node 9)
	maximum = 0.0233333 (at node 3)
Accepted packet rate average = 0.0204583
	minimum = 0.0176667 (at node 1)
	maximum = 0.0236667 (at node 12)
Injected flit rate average = 0.0204167
	minimum = 0.0176667 (at node 9)
	maximum = 0.0233333 (at node 3)
Accepted flit rate average= 0.0204583
	minimum = 0.0176667 (at node 1)
	maximum = 0.0236667 (at node 12)
Injected packet length average = 1
Accepted packet length average = 1
Total in-flight flits = 7 (7 measured)
latency change    = 0.00075819
throughput change = 0.00356415
Class 0:
Packet latency average = 19.6558
	minimum = 7
	maximum = 45
Network latency average = 19.6558
	minimum = 7
	maximum = 45
Slowest packet = 219139
Flit latency average = 19.713
	minimum = 7
	maximum = 45
Slowest flit = 219139
Fragmentation average = 0
	minimum = 0
	maximum = 0
Injected packet rate average = 0.0207344
	minimum = 0.0175 (at node 4)
	maximum = 0.02375 (at node 3)
Accepted packet rate average = 0.0207969
	minimum = 0.0175 (at node 1)
	maximum = 0.02375 (at node 12)
Injected flit rate average = 0.0207344
	minimum = 0.0175 (at node 4)
	maximum = 0.02375 (at node 3)
Accepted flit rate average= 0.0207969
	minimum = 0.0175 (at node 1)
	maximum = 0.02375 (at node 12)
Injected packet length average = 1
Accepted packet length average = 1
Total in-flight flits = 5 (5 measured)
latency change    = 0.0105036
throughput change = 0.0162785
Draining all recorded packets ...
Draining remaining packets ...
Time taken is 7021 cycles
Class 0:
Packet latency average = 18.945
	minimum = 7
	maximum = 37
Network latency average = 18.945
	minimum = 7
	maximum = 37
Slowest packet = 219163
Flit latency average = 18.945
	minimum = 7
	maximum = 37
Slowest flit = 219163
Fragmentation average = 0
	minimum = 0
	maximum = 0
Injected packet rate average = 0.0196875
	minimum = 0.009 (at node 12)
	maximum = 0.03 (at node 7)
Accepted packet rate average = 0.0193125
	minimum = 0.009 (at node 3)
	maximum = 0.03 (at node 13)
Injected flit rate average = 0.0196875
	minimum = 0.009 (at node 12)
	maximum = 0.03 (at node 7)
Accepted flit rate average= 0.0193125
	minimum = 0.009 (at node 3)
	maximum = 0.03 (at node 13)
Injected packet length average = 1
Accepted packet length average = 1
Total in-flight flits = 6 (0 measured)
latency change    = 1
throughput change = 1
Class 0:
Packet latency average = 19.3536
	minimum = 7
	maximum = 44
Network latency average = 19.3536
	minimum = 7
	maximum = 44
Slowest packet = 219761
Flit latency average = 19.3536
	minimum = 7
	maximum = 44
Slowest flit = 219761
Fragmentation average = 0
	minimum = 0
	maximum = 0
Injected packet rate average = 0.0197188
	minimum = 0.0135 (at node 6)
	maximum = 0.028 (at node 11)
Accepted packet rate average = 0.0195312
	minimum = 0.0135 (at node 9)
	maximum = 0.028 (at node 14)
Injected flit rate average = 0.0197188
	minimum = 0.0135 (at node 6)
	maximum = 0.028 (at node 11)
Accepted flit rate average= 0.0195312
	minimum = 0.0135 (at node 9)
	maximum = 0.028 (at node 14)
Injected packet length average = 1
Accepted packet length average = 1
Total in-flight flits = 6 (0 measured)
latency change    = 0.0211132
throughput change = 0.0112
Class 0:
Packet latency average = 18.9103
	minimum = 7
	maximum = 37
Network latency average = 18.9103
	minimum = 7
	maximum = 37
Slowest packet = 219802
Flit latency average = 18.9103
	minimum = 7
	maximum = 37
Slowest flit = 219802
Fragmentation average = 0
	minimum = 0
	maximum = 0
Injected packet rate average = 0.0190625
	minimum = 0.011 (at node 3)
	maximum = 0.025 (at node 9)
Accepted packet rate average = 0.0188125
	minimum = 0.01 (at node 12)
	maximum = 0.025 (at node 6)
Injected flit rate average = 0.0190625
	minimum = 0.011 (at node 3)
	maximum = 0.025 (at node 9)
Accepted flit rate average= 0.0188125
	minimum = 0.01 (at node 12)
	maximum = 0.025 (at node 6)
Injected packet length average = 1
Accepted packet length average = 1
Total in-flight flits = 10 (0 measured)
latency change    = 0.0234423
throughput change = 0.038206
Warmed up ...Time used is 3000 cycles
Class 0:
Packet latency average = 19.8136
	minimum = 7
	maximum = 38
Network latency average = 19.8136
	minimum = 7
	maximum = 38
Slowest packet = 220249
Flit latency average = 20.0546
	minimum = 7
	maximum = 39
Slowest flit = 220085
Fragmentation average = 0
	minimum = 0
	maximum = 0
Injected packet rate average = 0.02125
	minimum = 0.015 (at node 11)
	maximum = 0.027 (at node 12)
Accepted packet rate average = 0.02175
	minimum = 0.015 (at node 14)
	maximum = 0.031 (at node 3)
Injected flit rate average = 0.02125
	minimum = 0.015 (at node 11)
	maximum = 0.027 (at node 12)
Accepted flit rate average= 0.02175
	minimum = 0.015 (at node 14)
	maximum = 0.031 (at node 3)
Injected packet length average = 1
Accepted packet length average = 1
Total in-flight flits = 2 (2 measured)
latency change    = 0.0455904
throughput change = 0.135057
Class 0:
Packet latency average = 19.2039
	minimum = 7
	maximum = 45
Network latency average = 19.2039
	minimum = 7
	maximum = 45
Slowest packet = 220523
Flit latency average = 19.3378
	minimum = 7
	maximum = 45
Slowest flit = 220523
Fragmentation average = 0
	minimum = 0
	maximum = 0
Injected packet rate average = 0.0208438
	minimum = 0.0155 (at node 3)
	maximum = 0.0255 (at node 4)
Accepted packet rate average = 0.021
	minimum = 0.0155 (at node 12)
	maximum = 0.0255 (at node 1)
Injected flit rate average = 0.0208438
	minimum = 0.0155 (at node 3)
	maximum = 0.0255 (at node 4)
Accepted flit rate average= 0.021
	minimum = 0.0155 (at node 12)
	maximum = 0.0255 (at node 1)
Injected packet length average = 1
Accepted packet length average = 1
Total in-flight flits = 5 (5 measured)
latency change    = 0.0317478
throughput change = 0.0357143
Class 0:
Packet latency average = 19.3076
	minimum = 7
	maximum = 45
Network latency average = 19.3076
	minimum = 7
	maximum = 45
Slowest packet = 220523
Flit latency average = 19.3982
	minimum = 7
	maximum = 45
Slowest flit = 220523
Fragmentation average = 0
	minimum = 0
	maximum = 0
Injected packet rate average = 0.020375
	minimum = 0.0163333 (at node 15)
	maximum = 0.0233333 (at node 10)
Accepted packet rate average = 0.0204583
	minimum = 0.017 (at node 15)
	maximum = 0.0233333 (at node 10)
Injected flit rate average = 0.020375
	minimum = 0.0163333 (at node 15)
	maximum = 0.0233333 (at node 10)
Accepted flit rate average= 0.0204583
	minimum = 0.017 (at node 15)
	maximum = 0.0233333 (at node 10)
Injected packet length average = 1
Accepted packet length average = 1
Total in-flight flits = 6 (6 measured)
latency change    = 0.0053702
throughput change = 0.0264766
Class 0:
Packet latency average = 19.5203
	minimum = 7
	maximum = 45
Network latency average = 19.5203
	minimum = 7
	maximum = 45
Slowest packet = 220523
Flit latency average = 19.5862
	minimum = 7
	maximum = 45
Slowest flit = 220523
Fragmentation average = 0
	minimum = 0
	maximum = 0
Injected packet rate average = 0.0204844
	minimum = 0.01675 (at node 3)
	maximum = 0.0235 (at node 7)
Accepted packet rate average = 0.0205781
	minimum = 0.017 (at node 12)
	maximum = 0.0235 (at node 3)
Injected flit rate average = 0.0204844
	minimum = 0.01675 (at node 3)
	maximum = 0.0235 (at node 7)
Accepted flit rate average= 0.0205781
	minimum = 0.017 (at node 12)
	maximum = 0.0235 (at node 3)
Injected packet length average = 1
Accepted packet length average = 1
Total in-flight flits = 4 (4 measured)
latency change    = 0.0108944
throughput change = 0.00582131
Draining all recorded packets ...
Draining remaining packets ...
Time taken is 7044 cycles
Class 0:
Packet latency average = 18.7228
	minimum = 7
	maximum = 37
Network latency average = 18.7228
	minimum = 7
	maximum = 37
Slowest packet = 221444
Flit latency average = 18.7228
	minimum = 7
	maximum = 37
Slowest flit = 221444
Fragmentation average = 0
	minimum = 0
	maximum = 0
Injected packet rate average = 0.0168125
	minimum = 0.011 (at node 3)
	maximum = 0.022 (at node 6)
Accepted packet rate average = 0.0166875
	minimum = 0.011 (at node 12)
	maximum = 0.022 (at node 9)
Injected flit rate average = 0.0168125
	minimum = 0.011 (at node 3)
	maximum = 0.022 (at node 6)
Accepted flit rate average= 0.0166875
	minimum = 0.011 (at node 12)
	maximum = 0.022 (at node 9)
Injected packet length average = 1
Accepted packet length average = 1
Total in-flight flits = 2 (0 measured)
latency change    = 1
throughput change = 1
Class 0:
Packet latency average = 18.9569
	minimum = 7
	maximum = 42
Network latency average = 18.9569
	minimum = 7
	maximum = 42
Slowest packet = 221945
Flit latency average = 18.9569
	minimum = 7
	maximum = 42
Slowest flit = 221945
Fragmentation average = 0
	minimum = 0
	maximum = 0
Injected packet rate average = 0.0183125
	minimum = 0.013 (at node 12)
	maximum = 0.0235 (at node 6)
Accepted packet rate average = 0.018125
	minimum = 0.013 (at node 3)
	maximum = 0.0235 (at node 9)
Injected flit rate average = 0.0183125
	minimum = 0.013 (at node 12)
	maximum = 0.0235 (at node 6)
Accepted flit rate average= 0.018125
	minimum = 0.013 (at node 3)
	maximum = 0.0235 (at node 9)
Injected packet length average = 1
Accepted packet length average = 1
Total in-flight flits = 6 (0 measured)
latency change    = 0.0123464
throughput change = 0.0793103
Class 0:
Packet latency average = 19.1108
	minimum = 7
	maximum = 37
Network latency average = 19.1108
	minimum = 7
	maximum = 37
Slowest packet = 222026
Flit latency average = 19.1108
	minimum = 7
	maximum = 37
Slowest flit = 222026
Fragmentation average = 0
	minimum = 0
	maximum = 0
Injected packet rate average = 0.020625
	minimum = 0.011 (at node 2)
	maximum = 0.03 (at node 4)
Accepted packet rate average = 0.020875
	minimum = 0.013 (at node 8)
	maximum = 0.029 (at node 1)
Injected flit rate average = 0.020625
	minimum = 0.011 (at node 2)
	maximum = 0.03 (at node 4)
Accepted flit rate average= 0.020875
	minimum = 0.013 (at node 8)
	maximum = 0.029 (at node 1)
Injected packet length average = 1
Accepted packet length average = 1
Total in-flight flits = 2 (0 measured)
latency change    = 0.0080521
throughput change = 0.131737
Warmed up ...Time used is 3000 cycles
Class 0:
Packet latency average = 19.7
	minimum = 7
	maximum = 37
Network latency average = 19.7
	minimum = 7
	maximum = 37
Slowest packet = 222341
Flit latency average = 19.6832
	minimum = 7
	maximum = 37
Slowest flit = 222341
Fragmentation average = 0
	minimum = 0
	maximum = 0
Injected packet rate average = 0.0201875
	minimum = 0.012 (at node 14)
	maximum = 0.027 (at node 13)
Accepted packet rate average = 0.020125
	minimum = 0.012 (at node 11)
	maximum = 0.027 (at node 7)
Injected flit rate average = 0.0201875
	minimum = 0.012 (at node 14)
	maximum = 0.027 (at node 13)
Accepted flit rate average= 0.020125
	minimum = 0.012 (at node 11)
	maximum = 0.027 (at node 7)
Injected packet length average = 1
Accepted packet length average = 1
Total in-flight flits = 3 (3 measured)
latency change    = 0.0299097
throughput change = 0.0372671
Class 0:
Packet latency average = 19.5215
	minimum = 7
	maximum = 37
Network latency average = 19.5215
	minimum = 7
	maximum = 37
Slowest packet = 222341
Flit latency average = 19.5135
	minimum = 7
	maximum = 37
Slowest flit = 222341
Fragmentation average = 0
	minimum = 0
	maximum = 0
Injected packet rate average = 0.0198125
	minimum = 0.0135 (at node 14)
	maximum = 0.0265 (at node 2)
Accepted packet rate average = 0.0197188
	minimum = 0.013 (at node 11)
	maximum = 0.0265 (at node 8)
Injected flit rate average = 0.0198125
	minimum = 0.0135 (at node 14)
	maximum = 0.0265 (at node 2)
Accepted flit rate average= 0.0197188
	minimum = 0.013 (at node 11)
	maximum = 0.0265 (at node 8)
Injected packet length average = 1
Accepted packet length average = 1
Total in-flight flits = 5 (5 measured)
latency change    = 0.0091457
throughput change = 0.0206022
Class 0:
Packet latency average = 19.5996
	minimum = 7
	maximum = 37
Network latency average = 19.5996
	minimum = 7
	maximum = 37
Slowest packet = 222341
Flit latency average = 19.594
	minimum = 7
	maximum = 37
Slowest flit = 222341
Fragmentation average = 0
	minimum = 0
	maximum = 0
Injected packet rate average = 0.0195625
	minimum = 0.016 (at node 14)
	maximum = 0.025 (at node 2)
Accepted packet rate average = 0.0195
	minimum = 0.016 (at node 11)
	maximum = 0.025 (at node 8)
Injected flit rate average = 0.0195625
	minimum = 0.016 (at node 14)
	maximum = 0.025 (at node 2)
Accepted flit rate average= 0.0195
	minimum = 0.016 (at node 11)
	maximum = 0.025 (at node 8)
Injected packet length average = 1
Accepted packet length average = 1
Total in-flight flits = 5 (5 measured)
latency change    = 0.00398525
throughput change = 0.0112179
Draining all recorded packets ...
Draining remaining packets ...
Time taken is 6043 cycles
====== Overall Traffic Statistics ======
====== Traffic class 0 ======
Packet latency average = 19.5122 (100 samples)
	minimum = 7 (100 samples)
	maximum = 42.22 (100 samples)
Network latency average = 19.5122 (100 samples)
	minimum = 7 (100 samples)
	maximum = 42.22 (100 samples)
Flit latency average = 19.5394 (100 samples)
	minimum = 7 (100 samples)
	maximum = 42.22 (100 samples)
Fragmentation average = 0 (100 samples)
	minimum = 0 (100 samples)
	maximum = 0 (100 samples)
Injected packet rate average = 0.0200269 (100 samples)
	minimum = 0.0161273 (100 samples)
	maximum = 0.024277 (100 samples)
Accepted packet rate average = 0.0200183 (100 samples)
	minimum = 0.0161158 (100 samples)
	maximum = 0.0242523 (100 samples)
Injected flit rate average = 0.0200269 (100 samples)
	minimum = 0.0161273 (100 samples)
	maximum = 0.024277 (100 samples)
Accepted flit rate average = 0.0200183 (100 samples)
	minimum = 0.0161158 (100 samples)
	maximum = 0.0242523 (100 samples)
Injected packet size average = 1 (100 samples)
Accepted packet size average = 1 (100 samples)
Hops average = 3.49727 (100 samples)
Total run time 10.3086
