BEGIN Configuration File: /tmp/tmpnmimdq7o.cfg
topology = mesh;
k = 4;
n = 2;
routing_function = romm;
num_vcs = 4;
vc_buf_size = 4;
wait_for_tail_credit = 1;
vc_allocator = islip;
sw_allocator = islip;
alloc_iters = 1;
credit_delay = 2;
routing_delay = 1;
vc_alloc_delay = 1;
sw_alloc_delay = 1;
input_speedup = 2;
output_speedup = 1;
internal_speedup = 1.0;
traffic = uniform;
packet_size = 1;
sim_type = latency;
injection_rate = 0.3;
warmup_periods = 3;
sample_period = 1000;
sim_count = 100;
seed = 1;

END Configuration File: /tmp/tmpnmimdq7o.cfg
Class 0:
Packet latency average = 143.612
	minimum = 7
	maximum = 667
Network latency average = 37.3588
	minimum = 7
	maximum = 297
Slowest packet = 524
Flit latency average = 37.3588
	minimum = 7
	maximum = 297
Slowest flit = 2403
Fragmentation average = 0
	minimum = 0
	maximum = 0
Injected packet rate average = 0.210938
	minimum = 0.127 (at node 3)
	maximum = 0.326 (at node 5)
Accepted packet rate average = 0.203625
	minimum = 0.172 (at node 10)
	maximum = 0.229 (at node 15)
Injected flit rate average = 0.210938
	minimum = 0.127 (at node 3)
	maximum = 0.326 (at node 5)
Accepted flit rate average= 0.203625
	minimum = 0.172 (at node 10)
	maximum = 0.229 (at node 15)
Injected packet length average = 1
Accepted packet length average = 1
Total in-flight flits = 132 (0 measured)
latency change    = 1
throughput change = 1
Class 0:
Packet latency average = 282.223
	minimum = 7
	maximum = 1148
Network latency average = 38.6555
	minimum = 7
	maximum = 433
Slowest packet = 524
Flit latency average = 38.6555
	minimum = 7
	maximum = 433
Slowest flit = 2805
Fragmentation average = 0
	minimum = 0
	maximum = 0
Injected packet rate average = 0.209656
	minimum = 0.138 (at node 3)
	maximum = 0.315 (at node 5)
Accepted packet rate average = 0.205469
	minimum = 0.177 (at node 12)
	maximum = 0.2285 (at node 6)
Injected flit rate average = 0.209656
	minimum = 0.138 (at node 3)
	maximum = 0.315 (at node 5)
Accepted flit rate average= 0.205469
	minimum = 0.177 (at node 12)
	maximum = 0.2285 (at node 6)
Injected packet length average = 1
Accepted packet length average = 1
Total in-flight flits = 146 (0 measured)
latency change    = 0.491141
throughput change = 0.00897338
Class 0:
Packet latency average = 685.884
	minimum = 7
	maximum = 1729
Network latency average = 38.7138
	minimum = 7
	maximum = 309
Slowest packet = 6646
Flit latency average = 38.7138
	minimum = 7
	maximum = 309
Slowest flit = 7768
Fragmentation average = 0
	minimum = 0
	maximum = 0
Injected packet rate average = 0.211625
	minimum = 0.117 (at node 3)
	maximum = 0.315 (at node 10)
Accepted packet rate average = 0.212062
	minimum = 0.173 (at node 13)
	maximum = 0.236 (at node 9)
Injected flit rate average = 0.211625
	minimum = 0.117 (at node 3)
	maximum = 0.315 (at node 10)
Accepted flit rate average= 0.212062
	minimum = 0.173 (at node 13)
	maximum = 0.236 (at node 9)
Injected packet length average = 1
Accepted packet length average = 1
Total in-flight flits = 137 (0 measured)
latency change    = 0.588527
throughput change = 0.0310934
Average latency for class 0 exceeded 500 cycles. Aborting simulation.
Too many sample periods needed to converge
Simulation unstable, ending ...
Total run time 0.289723
