BEGIN Configuration File: /tmp/tmpfn2nq_jj.cfg
topology = mesh;
k = 4;
n = 2;
routing_function = adaptive_xy_yx;
num_vcs = 4;
vc_buf_size = 4;
wait_for_tail_credit = 1;
vc_allocator = islip;
sw_allocator = islip;
alloc_iters = 1;
credit_delay = 2;
routing_delay = 1;
vc_alloc_delay = 1;
sw_alloc_delay = 1;
input_speedup = 2;
output_speedup = 1;
internal_speedup = 1.0;
traffic = transpose;
packet_size = 1;
sim_type = latency;
injection_rate = 0.05;
warmup_periods = 3;
sample_period = 1000;
sim_count = 100;
seed = 1;

END Configuration File: /tmp/tmpfn2nq_jj.cfg
Class 0:
Packet latency average = 19.5542
	minimum = 7
	maximum = 55
Network latency average = 19.5542
	minimum = 7
	maximum = 55
Slowest packet = 502
Flit latency average = 19.5542
	minimum = 7
	maximum = 55
Slowest flit = 502
Fragmentation average = 0
	minimum = 0
	maximum = 0
Injected packet rate average = 0.0505
	minimum = 0.038 (at node 9)
	maximum = 0.073 (at node 1)
Accepted packet rate average = 0.049625
	minimum = 0.036 (at node 6)
	maximum = 0.072 (at node 4)
Injected flit rate average = 0.0505
	minimum = 0.038 (at node 9)
	maximum = 0.073 (at node 1)
Accepted flit rate average= 0.049625
	minimum = 0.036 (at node 6)
	maximum = 0.072 (at node 4)
Injected packet length average = 1
Accepted packet length average = 1
Total in-flight flits = 14 (0 measured)
latency change    = 1
throughput change = 1
Class 0:
Packet latency average = 19.616
	minimum = 7
	maximum = 55
Network latency average = 19.616
	minimum = 7
	maximum = 55
Slowest packet = 502
Flit latency average = 19.616
	minimum = 7
	maximum = 55
Slowest flit = 502
Fragmentation average = 0
	minimum = 0
	maximum = 0
Injected packet rate average = 0.0509688
	minimum = 0.0425 (at node 3)
	maximum = 0.064 (at node 1)
Accepted packet rate average = 0.0505312
	minimum = 0.042 (at node 12)
	maximum = 0.063 (at node 4)
Injected flit rate average = 0.0509688
	minimum = 0.0425 (at node 3)
	maximum = 0.064 (at node 1)
Accepted flit rate average= 0.0505312
	minimum = 0.042 (at node 12)
	maximum = 0.063 (at node 4)
Injected packet length average = 1
Accepted packet length average = 1
Total in-flight flits = 14 (0 measured)
latency change    = 0.00315046
throughput change = 0.0179344
Class 0:
Packet latency average = 19.7251
	minimum = 7
	maximum = 45
Network latency average = 19.7251
	minimum = 7
	maximum = 45
Slowest packet = 2195
Flit latency average = 19.7251
	minimum = 7
	maximum = 45
Slowest flit = 2195
Fragmentation average = 0
	minimum = 0
	maximum = 0
Injected packet rate average = 0.0524375
	minimum = 0.042 (at node 0)
	maximum = 0.064 (at node 1)
Accepted packet rate average = 0.05275
	minimum = 0.042 (at node 0)
	maximum = 0.064 (at node 4)
Injected flit rate average = 0.0524375
	minimum = 0.042 (at node 0)
	maximum = 0.064 (at node 1)
Accepted flit rate average= 0.05275
	minimum = 0.042 (at node 0)
	maximum = 0.064 (at node 4)
Injected packet length average = 1
Accepted packet length average = 1
Total in-flight flits = 9 (0 measured)
latency change    = 0.00553421
throughput change = 0.0420616
Warmed up ...Time used is 3000 cycles
Class 0:
Packet latency average = 19.4407
	minimum = 7
	maximum = 45
Network latency average = 19.4394
	minimum = 7
	maximum = 45
Slowest packet = 2679
Flit latency average = 19.4869
	minimum = 7
	maximum = 45
Slowest flit = 2679
Fragmentation average = 0
	minimum = 0
	maximum = 0
Injected packet rate average = 0.05075
	minimum = 0.041 (at node 6)
	maximum = 0.065 (at node 5)
Accepted packet rate average = 0.0500625
	minimum = 0.037 (at node 9)
	maximum = 0.066 (at node 5)
Injected flit rate average = 0.05075
	minimum = 0.041 (at node 6)
	maximum = 0.065 (at node 5)
Accepted flit rate average= 0.0500625
	minimum = 0.037 (at node 9)
	maximum = 0.066 (at node 5)
Injected packet length average = 1
Accepted packet length average = 1
Total in-flight flits = 20 (20 measured)
latency change    = 0.0146323
throughput change = 0.0536829
Class 0:
Packet latency average = 19.918
	minimum = 7
	maximum = 47
Network latency average = 19.9174
	minimum = 7
	maximum = 47
Slowest packet = 3529
Flit latency average = 19.9378
	minimum = 7
	maximum = 47
Slowest flit = 3529
Fragmentation average = 0
	minimum = 0
	maximum = 0
Injected packet rate average = 0.0520938
	minimum = 0.0415 (at node 6)
	maximum = 0.0615 (at node 2)
Accepted packet rate average = 0.0517188
	minimum = 0.0405 (at node 9)
	maximum = 0.061 (at node 5)
Injected flit rate average = 0.0520938
	minimum = 0.0415 (at node 6)
	maximum = 0.0615 (at node 2)
Accepted flit rate average= 0.0517188
	minimum = 0.0405 (at node 9)
	maximum = 0.061 (at node 5)
Injected packet length average = 1
Accepted packet length average = 1
Total in-flight flits = 21 (21 measured)
latency change    = 0.0239646
throughput change = 0.0320242
Class 0:
Packet latency average = 19.7724
	minimum = 7
	maximum = 47
Network latency average = 19.772
	minimum = 7
	maximum = 47
Slowest packet = 3529
Flit latency average = 19.7864
	minimum = 7
	maximum = 47
Slowest flit = 3529
Fragmentation average = 0
	minimum = 0
	maximum = 0
Injected packet rate average = 0.0512708
	minimum = 0.0443333 (at node 11)
	maximum = 0.0606667 (at node 5)
Accepted packet rate average = 0.051
	minimum = 0.0443333 (at node 14)
	maximum = 0.0606667 (at node 5)
Injected flit rate average = 0.0512708
	minimum = 0.0443333 (at node 11)
	maximum = 0.0606667 (at node 5)
Accepted flit rate average= 0.051
	minimum = 0.0443333 (at node 14)
	maximum = 0.0606667 (at node 5)
Injected packet length average = 1
Accepted packet length average = 1
Total in-flight flits = 22 (22 measured)
latency change    = 0.00736051
throughput change = 0.0140931
Class 0:
Packet latency average = 19.7352
	minimum = 7
	maximum = 47
Network latency average = 19.7349
	minimum = 7
	maximum = 47
Slowest packet = 3529
Flit latency average = 19.7458
	minimum = 7
	maximum = 47
Slowest flit = 3529
Fragmentation average = 0
	minimum = 0
	maximum = 0
Injected packet rate average = 0.0509844
	minimum = 0.045 (at node 11)
	maximum = 0.06 (at node 2)
Accepted packet rate average = 0.0508906
	minimum = 0.04475 (at node 14)
	maximum = 0.05925 (at node 8)
Injected flit rate average = 0.0509844
	minimum = 0.045 (at node 11)
	maximum = 0.06 (at node 2)
Accepted flit rate average= 0.0508906
	minimum = 0.04475 (at node 14)
	maximum = 0.05925 (at node 8)
Injected packet length average = 1
Accepted packet length average = 1
Total in-flight flits = 15 (15 measured)
latency change    = 0.00188627
throughput change = 0.00214922
Draining all recorded packets ...
Draining remaining packets ...
Time taken is 7064 cycles
Class 0:
Packet latency average = 19.6744
	minimum = 7
	maximum = 46
Network latency average = 19.6744
	minimum = 7
	maximum = 46
Slowest packet = 5765
Flit latency average = 19.6744
	minimum = 7
	maximum = 46
Slowest flit = 5765
Fragmentation average = 0
	minimum = 0
	maximum = 0
Injected packet rate average = 0.049375
	minimum = 0.041 (at node 12)
	maximum = 0.064 (at node 4)
Accepted packet rate average = 0.0485625
	minimum = 0.041 (at node 3)
	maximum = 0.062 (at node 1)
Injected flit rate average = 0.049375
	minimum = 0.041 (at node 12)
	maximum = 0.064 (at node 4)
Accepted flit rate average= 0.0485625
	minimum = 0.041 (at node 3)
	maximum = 0.062 (at node 1)
Injected packet length average = 1
Accepted packet length average = 1
Total in-flight flits = 13 (0 measured)
latency change    = 1
throughput change = 1
Class 0:
Packet latency average = 19.7253
	minimum = 7
	maximum = 46
Network latency average = 19.7253
	minimum = 7
	maximum = 46
Slowest packet = 5765
Flit latency average = 19.7253
	minimum = 7
	maximum = 46
Slowest flit = 5765
Fragmentation average = 0
	minimum = 0
	maximum = 0
Injected packet rate average = 0.0490937
	minimum = 0.0425 (at node 10)
	maximum = 0.054 (at node 14)
Accepted packet rate average = 0.0484687
	minimum = 0.042 (at node 10)
	maximum = 0.053 (at node 1)
Injected flit rate average = 0.0490937
	minimum = 0.0425 (at node 10)
	maximum = 0.054 (at node 14)
Accepted flit rate average= 0.0484687
	minimum = 0.042 (at node 10)
	maximum = 0.053 (at node 1)
Injected packet length average = 1
Accepted packet length average = 1
Total in-flight flits = 20 (0 measured)
latency change    = 0.00258296
throughput change = 0.00193424
Class 0:
Packet latency average = 19.3599
	minimum = 7
	maximum = 45
Network latency average = 19.3599
	minimum = 7
	maximum = 45
Slowest packet = 7303
Flit latency average = 19.3599
	minimum = 7
	maximum = 45
Slowest flit = 7303
Fragmentation average = 0
	minimum = 0
	maximum = 0
Injected packet rate average = 0.0501875
	minimum = 0.033 (at node 3)
	maximum = 0.07 (at node 14)
Accepted packet rate average = 0.0501875
	minimum = 0.035 (at node 12)
	maximum = 0.07 (at node 11)
Injected flit rate average = 0.0501875
	minimum = 0.033 (at node 3)
	maximum = 0.07 (at node 14)
Accepted flit rate average= 0.0501875
	minimum = 0.035 (at node 12)
	maximum = 0.07 (at node 11)
Injected packet length average = 1
Accepted packet length average = 1
Total in-flight flits = 20 (0 measured)
latency change    = 0.018876
throughput change = 0.0342466
Warmed up ...Time used is 3000 cycles
Class 0:
Packet latency average = 19.377
	minimum = 7
	maximum = 45
Network latency average = 19.377
	minimum = 7
	maximum = 45
Slowest packet = 8228
Flit latency average = 19.4818
	minimum = 7
	maximum = 45
Slowest flit = 8228
Fragmentation average = 0
	minimum = 0
	maximum = 0
Injected packet rate average = 0.04775
	minimum = 0.037 (at node 7)
	maximum = 0.056 (at node 6)
Accepted packet rate average = 0.048
	minimum = 0.04 (at node 13)
	maximum = 0.059 (at node 6)
Injected flit rate average = 0.04775
	minimum = 0.037 (at node 7)
	maximum = 0.056 (at node 6)
Accepted flit rate average= 0.048
	minimum = 0.04 (at node 13)
	maximum = 0.059 (at node 6)
Injected packet length average = 1
Accepted packet length average = 1
Total in-flight flits = 16 (16 measured)
latency change    = 0.000882746
throughput change = 0.0455729
Class 0:
Packet latency average = 19.6065
	minimum = 7
	maximum = 45
Network latency average = 19.6065
	minimum = 7
	maximum = 45
Slowest packet = 8228
Flit latency average = 19.6555
	minimum = 7
	maximum = 45
Slowest flit = 8228
Fragmentation average = 0
	minimum = 0
	maximum = 0
Injected packet rate average = 0.0484375
	minimum = 0.0415 (at node 0)
	maximum = 0.0605 (at node 9)
Accepted packet rate average = 0.0484375
	minimum = 0.0415 (at node 0)
	maximum = 0.062 (at node 6)
Injected flit rate average = 0.0484375
	minimum = 0.0415 (at node 0)
	maximum = 0.0605 (at node 9)
Accepted flit rate average= 0.0484375
	minimum = 0.0415 (at node 0)
	maximum = 0.062 (at node 6)
Injected packet length average = 1
Accepted packet length average = 1
Total in-flight flits = 20 (20 measured)
latency change    = 0.0117068
throughput change = 0.00903226
Class 0:
Packet latency average = 19.6723
	minimum = 7
	maximum = 45
Network latency average = 19.6723
	minimum = 7
	maximum = 45
Slowest packet = 8228
Flit latency average = 19.7044
	minimum = 7
	maximum = 45
Slowest flit = 8228
Fragmentation average = 0
	minimum = 0
	maximum = 0
Injected packet rate average = 0.0483542
	minimum = 0.0416667 (at node 0)
	maximum = 0.0573333 (at node 9)
Accepted packet rate average = 0.0483542
	minimum = 0.0413333 (at node 0)
	maximum = 0.0583333 (at node 6)
Injected flit rate average = 0.0483542
	minimum = 0.0416667 (at node 0)
	maximum = 0.0573333 (at node 9)
Accepted flit rate average= 0.0483542
	minimum = 0.0413333 (at node 0)
	maximum = 0.0583333 (at node 6)
Injected packet length average = 1
Accepted packet length average = 1
Total in-flight flits = 20 (20 measured)
latency change    = 0.00334381
throughput change = 0.0017234
Draining all recorded packets ...
Draining remaining packets ...
Time taken is 6064 cycles
Class 0:
Packet latency average = 19.1313
	minimum = 7
	maximum = 41
Network latency average = 19.1313
	minimum = 7
	maximum = 41
Slowest packet = 10800
Flit latency average = 19.1313
	minimum = 7
	maximum = 41
Slowest flit = 10800
Fragmentation average = 0
	minimum = 0
	maximum = 0
Injected packet rate average = 0.04725
	minimum = 0.037 (at node 7)
	maximum = 0.057 (at node 1)
Accepted packet rate average = 0.0461875
	minimum = 0.035 (at node 13)
	maximum = 0.057 (at node 4)
Injected flit rate average = 0.04725
	minimum = 0.037 (at node 7)
	maximum = 0.057 (at node 1)
Accepted flit rate average= 0.0461875
	minimum = 0.035 (at node 13)
	maximum = 0.057 (at node 4)
Injected packet length average = 1
Accepted packet length average = 1
Total in-flight flits = 17 (0 measured)
latency change    = 1
throughput change = 1
Class 0:
Packet latency average = 19.7033
	minimum = 7
	maximum = 47
Network latency average = 19.7033
	minimum = 7
	maximum = 47
Slowest packet = 11668
Flit latency average = 19.7033
	minimum = 7
	maximum = 47
Slowest flit = 11668
Fragmentation average = 0
	minimum = 0
	maximum = 0
Injected packet rate average = 0.0490312
	minimum = 0.04 (at node 15)
	maximum = 0.0585 (at node 12)
Accepted packet rate average = 0.0486562
	minimum = 0.04 (at node 15)
	maximum = 0.0575 (at node 3)
Injected flit rate average = 0.0490312
	minimum = 0.04 (at node 15)
	maximum = 0.0585 (at node 12)
Accepted flit rate average= 0.0486562
	minimum = 0.04 (at node 15)
	maximum = 0.0575 (at node 3)
Injected packet length average = 1
Accepted packet length average = 1
Total in-flight flits = 12 (0 measured)
latency change    = 0.0290316
throughput change = 0.0507386
Class 0:
Packet latency average = 19.6802
	minimum = 7
	maximum = 53
Network latency average = 19.6802
	minimum = 7
	maximum = 53
Slowest packet = 12316
Flit latency average = 19.6802
	minimum = 7
	maximum = 53
Slowest flit = 12316
Fragmentation average = 0
	minimum = 0
	maximum = 0
Injected packet rate average = 0.0508125
	minimum = 0.039 (at node 9)
	maximum = 0.07 (at node 2)
Accepted packet rate average = 0.050625
	minimum = 0.041 (at node 6)
	maximum = 0.07 (at node 8)
Injected flit rate average = 0.0508125
	minimum = 0.039 (at node 9)
	maximum = 0.07 (at node 2)
Accepted flit rate average= 0.050625
	minimum = 0.041 (at node 6)
	maximum = 0.07 (at node 8)
Injected packet length average = 1
Accepted packet length average = 1
Total in-flight flits = 15 (0 measured)
latency change    = 0.00117014
throughput change = 0.0388889
Warmed up ...Time used is 3000 cycles
Class 0:
Packet latency average = 19.4097
	minimum = 7
	maximum = 45
Network latency average = 19.4097
	minimum = 7
	maximum = 45
Slowest packet = 13149
Flit latency average = 19.4406
	minimum = 7
	maximum = 45
Slowest flit = 13149
Fragmentation average = 0
	minimum = 0
	maximum = 0
Injected packet rate average = 0.0485
	minimum = 0.04 (at node 8)
	maximum = 0.061 (at node 15)
Accepted packet rate average = 0.048375
	minimum = 0.041 (at node 1)
	maximum = 0.06 (at node 15)
Injected flit rate average = 0.0485
	minimum = 0.04 (at node 8)
	maximum = 0.061 (at node 15)
Accepted flit rate average= 0.048375
	minimum = 0.041 (at node 1)
	maximum = 0.06 (at node 15)
Injected packet length average = 1
Accepted packet length average = 1
Total in-flight flits = 17 (17 measured)
latency change    = 0.0139362
throughput change = 0.0465116
Class 0:
Packet latency average = 19.4136
	minimum = 7
	maximum = 51
Network latency average = 19.4136
	minimum = 7
	maximum = 51
Slowest packet = 14296
Flit latency average = 19.4289
	minimum = 7
	maximum = 51
Slowest flit = 14296
Fragmentation average = 0
	minimum = 0
	maximum = 0
Injected packet rate average = 0.0488125
	minimum = 0.0395 (at node 8)
	maximum = 0.0555 (at node 12)
Accepted packet rate average = 0.0485937
	minimum = 0.0395 (at node 2)
	maximum = 0.054 (at node 15)
Injected flit rate average = 0.0488125
	minimum = 0.0395 (at node 8)
	maximum = 0.0555 (at node 12)
Accepted flit rate average= 0.0485937
	minimum = 0.0395 (at node 2)
	maximum = 0.054 (at node 15)
Injected packet length average = 1
Accepted packet length average = 1
Total in-flight flits = 22 (22 measured)
latency change    = 0.000200204
throughput change = 0.00450161
Class 0:
Packet latency average = 19.6416
	minimum = 7
	maximum = 51
Network latency average = 19.6416
	minimum = 7
	maximum = 51
Slowest packet = 14296
Flit latency average = 19.6502
	minimum = 7
	maximum = 51
Slowest flit = 14296
Fragmentation average = 0
	minimum = 0
	maximum = 0
Injected packet rate average = 0.0493333
	minimum = 0.0396667 (at node 8)
	maximum = 0.056 (at node 12)
Accepted packet rate average = 0.0494375
	minimum = 0.0406667 (at node 2)
	maximum = 0.0556667 (at node 3)
Injected flit rate average = 0.0493333
	minimum = 0.0396667 (at node 8)
	maximum = 0.056 (at node 12)
Accepted flit rate average= 0.0494375
	minimum = 0.0406667 (at node 2)
	maximum = 0.0556667 (at node 3)
Injected packet length average = 1
Accepted packet length average = 1
Total in-flight flits = 10 (10 measured)
latency change    = 0.0116085
throughput change = 0.017067
Draining all recorded packets ...
Draining remaining packets ...
Time taken is 6074 cycles
Class 0:
Packet latency average = 19.3021
	minimum = 7
	maximum = 44
Network latency average = 19.3021
	minimum = 7
	maximum = 44
Slowest packet = 15258
Flit latency average = 19.3021
	minimum = 7
	maximum = 44
Slowest flit = 15258
Fragmentation average = 0
	minimum = 0
	maximum = 0
Injected packet rate average = 0.0485625
	minimum = 0.035 (at node 8)
	maximum = 0.064 (at node 9)
Accepted packet rate average = 0.047375
	minimum = 0.033 (at node 2)
	maximum = 0.063 (at node 1)
Injected flit rate average = 0.0485625
	minimum = 0.035 (at node 8)
	maximum = 0.064 (at node 9)
Accepted flit rate average= 0.047375
	minimum = 0.033 (at node 2)
	maximum = 0.063 (at node 1)
Injected packet length average = 1
Accepted packet length average = 1
Total in-flight flits = 19 (0 measured)
latency change    = 1
throughput change = 1
Class 0:
Packet latency average = 19.2526
	minimum = 7
	maximum = 48
Network latency average = 19.2526
	minimum = 7
	maximum = 48
Slowest packet = 16613
Flit latency average = 19.2526
	minimum = 7
	maximum = 48
Slowest flit = 16613
Fragmentation average = 0
	minimum = 0
	maximum = 0
Injected packet rate average = 0.048875
	minimum = 0.036 (at node 3)
	maximum = 0.057 (at node 4)
Accepted packet rate average = 0.048375
	minimum = 0.0355 (at node 12)
	maximum = 0.057 (at node 1)
Injected flit rate average = 0.048875
	minimum = 0.036 (at node 3)
	maximum = 0.057 (at node 4)
Accepted flit rate average= 0.048375
	minimum = 0.0355 (at node 12)
	maximum = 0.057 (at node 1)
Injected packet length average = 1
Accepted packet length average = 1
Total in-flight flits = 16 (0 measured)
latency change    = 0.00257248
throughput change = 0.0206718
Class 0:
Packet latency average = 19.736
	minimum = 7
	maximum = 45
Network latency average = 19.736
	minimum = 7
	maximum = 45
Slowest packet = 16903
Flit latency average = 19.736
	minimum = 7
	maximum = 45
Slowest flit = 16903
Fragmentation average = 0
	minimum = 0
	maximum = 0
Injected packet rate average = 0.052375
	minimum = 0.035 (at node 6)
	maximum = 0.063 (at node 15)
Accepted packet rate average = 0.0525625
	minimum = 0.036 (at node 9)
	maximum = 0.062 (at node 3)
Injected flit rate average = 0.052375
	minimum = 0.035 (at node 6)
	maximum = 0.063 (at node 15)
Accepted flit rate average= 0.0525625
	minimum = 0.036 (at node 9)
	maximum = 0.062 (at node 3)
Injected packet length average = 1
Accepted packet length average = 1
Total in-flight flits = 13 (0 measured)
latency change    = 0.0244955
throughput change = 0.0796671
Warmed up ...Time used is 3000 cycles
Class 0:
Packet latency average = 19.9225
	minimum = 7
	maximum = 45
Network latency average = 19.9225
	minimum = 7
	maximum = 45
Slowest packet = 18042
Flit latency average = 19.9504
	minimum = 7
	maximum = 45
Slowest flit = 18042
Fragmentation average = 0
	minimum = 0
	maximum = 0
Injected packet rate average = 0.0494375
	minimum = 0.036 (at node 11)
	maximum = 0.061 (at node 2)
Accepted packet rate average = 0.0491875
	minimum = 0.037 (at node 14)
	maximum = 0.06 (at node 6)
Injected flit rate average = 0.0494375
	minimum = 0.036 (at node 11)
	maximum = 0.061 (at node 2)
Accepted flit rate average= 0.0491875
	minimum = 0.037 (at node 14)
	maximum = 0.06 (at node 6)
Injected packet length average = 1
Accepted packet length average = 1
Total in-flight flits = 17 (17 measured)
latency change    = 0.00935888
throughput change = 0.068615
Class 0:
Packet latency average = 19.9535
	minimum = 7
	maximum = 45
Network latency average = 19.9535
	minimum = 7
	maximum = 45
Slowest packet = 18042
Flit latency average = 19.9668
	minimum = 7
	maximum = 45
Slowest flit = 18042
Fragmentation average = 0
	minimum = 0
	maximum = 0
Injected packet rate average = 0.05075
	minimum = 0.0425 (at node 0)
	maximum = 0.062 (at node 2)
Accepted packet rate average = 0.0508125
	minimum = 0.0425 (at node 0)
	maximum = 0.062 (at node 8)
Injected flit rate average = 0.05075
	minimum = 0.0425 (at node 0)
	maximum = 0.062 (at node 2)
Accepted flit rate average= 0.0508125
	minimum = 0.0425 (at node 0)
	maximum = 0.062 (at node 8)
Injected packet length average = 1
Accepted packet length average = 1
Total in-flight flits = 11 (11 measured)
latency change    = 0.00155472
throughput change = 0.0319803
Class 0:
Packet latency average = 19.6526
	minimum = 7
	maximum = 45
Network latency average = 19.6526
	minimum = 7
	maximum = 45
Slowest packet = 18042
Flit latency average = 19.663
	minimum = 7
	maximum = 45
Slowest flit = 18042
Fragmentation average = 0
	minimum = 0
	maximum = 0
Injected packet rate average = 0.0512292
	minimum = 0.046 (at node 0)
	maximum = 0.0586667 (at node 5)
Accepted packet rate average = 0.0511875
	minimum = 0.0456667 (at node 0)
	maximum = 0.0586667 (at node 5)
Injected flit rate average = 0.0512292
	minimum = 0.046 (at node 0)
	maximum = 0.0586667 (at node 5)
Accepted flit rate average= 0.0511875
	minimum = 0.0456667 (at node 0)
	maximum = 0.0586667 (at node 5)
Injected packet length average = 1
Accepted packet length average = 1
Total in-flight flits = 15 (15 measured)
latency change    = 0.0153101
throughput change = 0.00732601
Class 0:
Packet latency average = 19.5225
	minimum = 7
	maximum = 46
Network latency average = 19.5225
	minimum = 7
	maximum = 46
Slowest packet = 20844
Flit latency average = 19.5309
	minimum = 7
	maximum = 46
Slowest flit = 20844
Fragmentation average = 0
	minimum = 0
	maximum = 0
Injected packet rate average = 0.0506094
	minimum = 0.046 (at node 14)
	maximum = 0.05825 (at node 5)
Accepted packet rate average = 0.050625
	minimum = 0.046 (at node 11)
	maximum = 0.05775 (at node 5)
Injected flit rate average = 0.0506094
	minimum = 0.046 (at node 14)
	maximum = 0.05825 (at node 5)
Accepted flit rate average= 0.050625
	minimum = 0.046 (at node 11)
	maximum = 0.05775 (at node 5)
Injected packet length average = 1
Accepted packet length average = 1
Total in-flight flits = 12 (12 measured)
latency change    = 0.00666678
throughput change = 0.0111111
Draining all recorded packets ...
Draining remaining packets ...
Time taken is 7064 cycles
Class 0:
Packet latency average = 20.2552
	minimum = 7
	maximum = 47
Network latency average = 20.2552
	minimum = 7
	maximum = 47
Slowest packet = 21048
Flit latency average = 20.2552
	minimum = 7
	maximum = 47
Slowest flit = 21048
Fragmentation average = 0
	minimum = 0
	maximum = 0
Injected packet rate average = 0.05175
	minimum = 0.037 (at node 15)
	maximum = 0.068 (at node 7)
Accepted packet rate average = 0.0506875
	minimum = 0.036 (at node 15)
	maximum = 0.064 (at node 13)
Injected flit rate average = 0.05175
	minimum = 0.037 (at node 15)
	maximum = 0.068 (at node 7)
Accepted flit rate average= 0.0506875
	minimum = 0.036 (at node 15)
	maximum = 0.064 (at node 13)
Injected packet length average = 1
Accepted packet length average = 1
Total in-flight flits = 17 (0 measured)
latency change    = 1
throughput change = 1
Class 0:
Packet latency average = 19.8972
	minimum = 7
	maximum = 47
Network latency average = 19.8972
	minimum = 7
	maximum = 47
Slowest packet = 21048
Flit latency average = 19.8972
	minimum = 7
	maximum = 47
Slowest flit = 21048
Fragmentation average = 0
	minimum = 0
	maximum = 0
Injected packet rate average = 0.0512813
	minimum = 0.0445 (at node 12)
	maximum = 0.062 (at node 11)
Accepted packet rate average = 0.0507812
	minimum = 0.0445 (at node 3)
	maximum = 0.0615 (at node 14)
Injected flit rate average = 0.0512813
	minimum = 0.0445 (at node 12)
	maximum = 0.062 (at node 11)
Accepted flit rate average= 0.0507812
	minimum = 0.0445 (at node 3)
	maximum = 0.0615 (at node 14)
Injected packet length average = 1
Accepted packet length average = 1
Total in-flight flits = 16 (0 measured)
latency change    = 0.0179929
throughput change = 0.00184615
Class 0:
Packet latency average = 19.9075
	minimum = 7
	maximum = 45
Network latency average = 19.9075
	minimum = 7
	maximum = 45
Slowest packet = 23114
Flit latency average = 19.9075
	minimum = 7
	maximum = 45
Slowest flit = 23114
Fragmentation average = 0
	minimum = 0
	maximum = 0
Injected packet rate average = 0.0490625
	minimum = 0.04 (at node 5)
	maximum = 0.06 (at node 14)
Accepted packet rate average = 0.0493125
	minimum = 0.04 (at node 5)
	maximum = 0.059 (at node 11)
Injected flit rate average = 0.0490625
	minimum = 0.04 (at node 5)
	maximum = 0.06 (at node 14)
Accepted flit rate average= 0.0493125
	minimum = 0.04 (at node 5)
	maximum = 0.059 (at node 11)
Injected packet length average = 1
Accepted packet length average = 1
Total in-flight flits = 12 (0 measured)
latency change    = 0.000514734
throughput change = 0.0297845
Warmed up ...Time used is 3000 cycles
Class 0:
Packet latency average = 19.7145
	minimum = 7
	maximum = 45
Network latency average = 19.7145
	minimum = 7
	maximum = 45
Slowest packet = 23456
Flit latency average = 19.7839
	minimum = 7
	maximum = 45
Slowest flit = 23456
Fragmentation average = 0
	minimum = 0
	maximum = 0
Injected packet rate average = 0.0543125
	minimum = 0.045 (at node 1)
	maximum = 0.07 (at node 8)
Accepted packet rate average = 0.054375
	minimum = 0.044 (at node 10)
	maximum = 0.068 (at node 2)
Injected flit rate average = 0.0543125
	minimum = 0.045 (at node 1)
	maximum = 0.07 (at node 8)
Accepted flit rate average= 0.054375
	minimum = 0.044 (at node 10)
	maximum = 0.068 (at node 2)
Injected packet length average = 1
Accepted packet length average = 1
Total in-flight flits = 11 (11 measured)
latency change    = 0.00979107
throughput change = 0.0931034
Class 0:
Packet latency average = 19.713
	minimum = 7
	maximum = 45
Network latency average = 19.713
	minimum = 7
	maximum = 45
Slowest packet = 23456
Flit latency average = 19.748
	minimum = 7
	maximum = 45
Slowest flit = 23456
Fragmentation average = 0
	minimum = 0
	maximum = 0
Injected packet rate average = 0.0541563
	minimum = 0.0445 (at node 5)
	maximum = 0.0615 (at node 14)
Accepted packet rate average = 0.0540625
	minimum = 0.0445 (at node 5)
	maximum = 0.0615 (at node 11)
Injected flit rate average = 0.0541563
	minimum = 0.0445 (at node 5)
	maximum = 0.0615 (at node 14)
Accepted flit rate average= 0.0540625
	minimum = 0.0445 (at node 5)
	maximum = 0.0615 (at node 11)
Injected packet length average = 1
Accepted packet length average = 1
Total in-flight flits = 15 (15 measured)
latency change    = 7.17189e-05
throughput change = 0.00578035
Class 0:
Packet latency average = 19.6771
	minimum = 7
	maximum = 47
Network latency average = 19.6771
	minimum = 7
	maximum = 47
Slowest packet = 25725
Flit latency average = 19.7013
	minimum = 7
	maximum = 47
Slowest flit = 25725
Fragmentation average = 0
	minimum = 0
	maximum = 0
Injected packet rate average = 0.0526875
	minimum = 0.0433333 (at node 5)
	maximum = 0.0593333 (at node 13)
Accepted packet rate average = 0.0525833
	minimum = 0.0433333 (at node 5)
	maximum = 0.0586667 (at node 7)
Injected flit rate average = 0.0526875
	minimum = 0.0433333 (at node 5)
	maximum = 0.0593333 (at node 13)
Accepted flit rate average= 0.0525833
	minimum = 0.0433333 (at node 5)
	maximum = 0.0586667 (at node 7)
Injected packet length average = 1
Accepted packet length average = 1
Total in-flight flits = 17 (17 measured)
latency change    = 0.00182388
throughput change = 0.02813
Class 0:
Packet latency average = 19.7619
	minimum = 7
	maximum = 47
Network latency average = 19.7619
	minimum = 7
	maximum = 47
Slowest packet = 25725
Flit latency average = 19.7799
	minimum = 7
	maximum = 47
Slowest flit = 25725
Fragmentation average = 0
	minimum = 0
	maximum = 0
Injected packet rate average = 0.0519531
	minimum = 0.043 (at node 5)
	maximum = 0.05625 (at node 13)
Accepted packet rate average = 0.0518906
	minimum = 0.043 (at node 5)
	maximum = 0.05625 (at node 11)
Injected flit rate average = 0.0519531
	minimum = 0.043 (at node 5)
	maximum = 0.05625 (at node 13)
Accepted flit rate average= 0.0518906
	minimum = 0.043 (at node 5)
	maximum = 0.05625 (at node 11)
Injected packet length average = 1
Accepted packet length average = 1
Total in-flight flits = 16 (16 measured)
latency change    = 0.00428664
throughput change = 0.0133494
Draining all recorded packets ...
Draining remaining packets ...
Time taken is 7061 cycles
Class 0:
Packet latency average = 19.1287
	minimum = 7
	maximum = 45
Network latency average = 19.1287
	minimum = 7
	maximum = 45
Slowest packet = 26859
Flit latency average = 19.1287
	minimum = 7
	maximum = 45
Slowest flit = 26859
Fragmentation average = 0
	minimum = 0
	maximum = 0
Injected packet rate average = 0.0511875
	minimum = 0.038 (at node 13)
	maximum = 0.065 (at node 15)
Accepted packet rate average = 0.0505
	minimum = 0.038 (at node 7)
	maximum = 0.065 (at node 15)
Injected flit rate average = 0.0511875
	minimum = 0.038 (at node 13)
	maximum = 0.065 (at node 15)
Accepted flit rate average= 0.0505
	minimum = 0.038 (at node 7)
	maximum = 0.065 (at node 15)
Injected packet length average = 1
Accepted packet length average = 1
Total in-flight flits = 11 (0 measured)
latency change    = 1
throughput change = 1
Class 0:
Packet latency average = 19.7471
	minimum = 7
	maximum = 45
Network latency average = 19.7471
	minimum = 7
	maximum = 45
Slowest packet = 26859
Flit latency average = 19.7471
	minimum = 7
	maximum = 45
Slowest flit = 26859
Fragmentation average = 0
	minimum = 0
	maximum = 0
Injected packet rate average = 0.050875
	minimum = 0.0435 (at node 9)
	maximum = 0.064 (at node 8)
Accepted packet rate average = 0.0504062
	minimum = 0.043 (at node 6)
	maximum = 0.064 (at node 2)
Injected flit rate average = 0.050875
	minimum = 0.0435 (at node 9)
	maximum = 0.064 (at node 8)
Accepted flit rate average= 0.0504062
	minimum = 0.043 (at node 6)
	maximum = 0.064 (at node 2)
Injected packet length average = 1
Accepted packet length average = 1
Total in-flight flits = 15 (0 measured)
latency change    = 0.0313131
throughput change = 0.00185989
Class 0:
Packet latency average = 20.0906
	minimum = 7
	maximum = 52
Network latency average = 20.0906
	minimum = 7
	maximum = 52
Slowest packet = 28572
Flit latency average = 20.0906
	minimum = 7
	maximum = 52
Slowest flit = 28572
Fragmentation average = 0
	minimum = 0
	maximum = 0
Injected packet rate average = 0.0506875
	minimum = 0.038 (at node 11)
	maximum = 0.066 (at node 10)
Accepted packet rate average = 0.050375
	minimum = 0.038 (at node 14)
	maximum = 0.063 (at node 10)
Injected flit rate average = 0.0506875
	minimum = 0.038 (at node 11)
	maximum = 0.066 (at node 10)
Accepted flit rate average= 0.050375
	minimum = 0.038 (at node 14)
	maximum = 0.063 (at node 10)
Injected packet length average = 1
Accepted packet length average = 1
Total in-flight flits = 20 (0 measured)
latency change    = 0.0170983
throughput change = 0.000620347
Warmed up ...Time used is 3000 cycles
Class 0:
Packet latency average = 18.9865
	minimum = 7
	maximum = 46
Network latency average = 18.9852
	minimum = 7
	maximum = 46
Slowest packet = 29693
Flit latency average = 19.0747
	minimum = 7
	maximum = 46
Slowest flit = 29693
Fragmentation average = 0
	minimum = 0
	maximum = 0
Injected packet rate average = 0.0475625
	minimum = 0.038 (at node 12)
	maximum = 0.058 (at node 0)
Accepted packet rate average = 0.0476875
	minimum = 0.038 (at node 3)
	maximum = 0.057 (at node 0)
Injected flit rate average = 0.0475625
	minimum = 0.038 (at node 12)
	maximum = 0.058 (at node 0)
Accepted flit rate average= 0.0476875
	minimum = 0.038 (at node 3)
	maximum = 0.057 (at node 0)
Injected packet length average = 1
Accepted packet length average = 1
Total in-flight flits = 18 (18 measured)
latency change    = 0.058148
throughput change = 0.0563565
Class 0:
Packet latency average = 19.2577
	minimum = 7
	maximum = 53
Network latency average = 19.257
	minimum = 7
	maximum = 53
Slowest packet = 30563
Flit latency average = 19.2977
	minimum = 7
	maximum = 53
Slowest flit = 30563
Fragmentation average = 0
	minimum = 0
	maximum = 0
Injected packet rate average = 0.0481562
	minimum = 0.043 (at node 6)
	maximum = 0.0555 (at node 0)
Accepted packet rate average = 0.0482812
	minimum = 0.043 (at node 9)
	maximum = 0.0555 (at node 0)
Injected flit rate average = 0.0481562
	minimum = 0.043 (at node 6)
	maximum = 0.0555 (at node 0)
Accepted flit rate average= 0.0482812
	minimum = 0.043 (at node 9)
	maximum = 0.0555 (at node 0)
Injected packet length average = 1
Accepted packet length average = 1
Total in-flight flits = 16 (16 measured)
latency change    = 0.0140808
throughput change = 0.0122977
Class 0:
Packet latency average = 19.1738
	minimum = 7
	maximum = 53
Network latency average = 19.1733
	minimum = 7
	maximum = 53
Slowest packet = 30563
Flit latency average = 19.2009
	minimum = 7
	maximum = 53
Slowest flit = 30563
Fragmentation average = 0
	minimum = 0
	maximum = 0
Injected packet rate average = 0.0486875
	minimum = 0.039 (at node 2)
	maximum = 0.0563333 (at node 0)
Accepted packet rate average = 0.0488542
	minimum = 0.0403333 (at node 8)
	maximum = 0.056 (at node 0)
Injected flit rate average = 0.0486875
	minimum = 0.039 (at node 2)
	maximum = 0.0563333 (at node 0)
Accepted flit rate average= 0.0488542
	minimum = 0.0403333 (at node 8)
	maximum = 0.056 (at node 0)
Injected packet length average = 1
Accepted packet length average = 1
Total in-flight flits = 12 (12 measured)
latency change    = 0.00437793
throughput change = 0.0117271
Class 0:
Packet latency average = 19.18
	minimum = 7
	maximum = 53
Network latency average = 19.1797
	minimum = 7
	maximum = 53
Slowest packet = 30563
Flit latency average = 19.2005
	minimum = 7
	maximum = 53
Slowest flit = 30563
Fragmentation average = 0
	minimum = 0
	maximum = 0
Injected packet rate average = 0.0481719
	minimum = 0.04075 (at node 2)
	maximum = 0.0555 (at node 0)
Accepted packet rate average = 0.0483125
	minimum = 0.0415 (at node 3)
	maximum = 0.0555 (at node 0)
Injected flit rate average = 0.0481719
	minimum = 0.04075 (at node 2)
	maximum = 0.0555 (at node 0)
Accepted flit rate average= 0.0483125
	minimum = 0.0415 (at node 3)
	maximum = 0.0555 (at node 0)
Injected packet length average = 1
Accepted packet length average = 1
Total in-flight flits = 11 (11 measured)
latency change    = 0.000325838
throughput change = 0.0112117
Draining all recorded packets ...
Draining remaining packets ...
Time taken is 7068 cycles
Class 0:
Packet latency average = 19.4961
	minimum = 7
	maximum = 46
Network latency average = 19.4961
	minimum = 7
	maximum = 46
Slowest packet = 32518
Flit latency average = 19.4961
	minimum = 7
	maximum = 46
Slowest flit = 32518
Fragmentation average = 0
	minimum = 0
	maximum = 0
Injected packet rate average = 0.049625
	minimum = 0.036 (at node 6)
	maximum = 0.059 (at node 5)
Accepted packet rate average = 0.048625
	minimum = 0.035 (at node 9)
	maximum = 0.058 (at node 8)
Injected flit rate average = 0.049625
	minimum = 0.036 (at node 6)
	maximum = 0.059 (at node 5)
Accepted flit rate average= 0.048625
	minimum = 0.035 (at node 9)
	maximum = 0.058 (at node 8)
Injected packet length average = 1
Accepted packet length average = 1
Total in-flight flits = 16 (0 measured)
latency change    = 1
throughput change = 1
Class 0:
Packet latency average = 19.526
	minimum = 7
	maximum = 46
Network latency average = 19.526
	minimum = 7
	maximum = 46
Slowest packet = 32518
Flit latency average = 19.526
	minimum = 7
	maximum = 46
Slowest flit = 32518
Fragmentation average = 0
	minimum = 0
	maximum = 0
Injected packet rate average = 0.0504375
	minimum = 0.037 (at node 6)
	maximum = 0.0585 (at node 4)
Accepted packet rate average = 0.0499062
	minimum = 0.036 (at node 9)
	maximum = 0.0585 (at node 1)
Injected flit rate average = 0.0504375
	minimum = 0.037 (at node 6)
	maximum = 0.0585 (at node 4)
Accepted flit rate average= 0.0499062
	minimum = 0.036 (at node 9)
	maximum = 0.0585 (at node 1)
Injected packet length average = 1
Accepted packet length average = 1
Total in-flight flits = 17 (0 measured)
latency change    = 0.00152834
throughput change = 0.0256731
Class 0:
Packet latency average = 19.6623
	minimum = 7
	maximum = 43
Network latency average = 19.6623
	minimum = 7
	maximum = 43
Slowest packet = 34189
Flit latency average = 19.6623
	minimum = 7
	maximum = 43
Slowest flit = 34189
Fragmentation average = 0
	minimum = 0
	maximum = 0
Injected packet rate average = 0.047625
	minimum = 0.04 (at node 0)
	maximum = 0.057 (at node 12)
Accepted packet rate average = 0.0479375
	minimum = 0.039 (at node 4)
	maximum = 0.056 (at node 3)
Injected flit rate average = 0.047625
	minimum = 0.04 (at node 0)
	maximum = 0.057 (at node 12)
Accepted flit rate average= 0.0479375
	minimum = 0.039 (at node 4)
	maximum = 0.056 (at node 3)
Injected packet length average = 1
Accepted packet length average = 1
Total in-flight flits = 12 (0 measured)
latency change    = 0.0069338
throughput change = 0.0410691
Warmed up ...Time used is 3000 cycles
Class 0:
Packet latency average = 19.4872
	minimum = 7
	maximum = 44
Network latency average = 19.4872
	minimum = 7
	maximum = 44
Slowest packet = 34612
Flit latency average = 19.5954
	minimum = 7
	maximum = 44
Slowest flit = 34612
Fragmentation average = 0
	minimum = 0
	maximum = 0
Injected packet rate average = 0.0516875
	minimum = 0.042 (at node 13)
	maximum = 0.064 (at node 7)
Accepted packet rate average = 0.0520625
	minimum = 0.044 (at node 7)
	maximum = 0.063 (at node 13)
Injected flit rate average = 0.0516875
	minimum = 0.042 (at node 13)
	maximum = 0.064 (at node 7)
Accepted flit rate average= 0.0520625
	minimum = 0.044 (at node 7)
	maximum = 0.063 (at node 13)
Injected packet length average = 1
Accepted packet length average = 1
Total in-flight flits = 6 (6 measured)
latency change    = 0.00898589
throughput change = 0.0792317
Class 0:
Packet latency average = 19.5746
	minimum = 7
	maximum = 46
Network latency average = 19.5746
	minimum = 7
	maximum = 46
Slowest packet = 35650
Flit latency average = 19.6289
	minimum = 7
	maximum = 46
Slowest flit = 35650
Fragmentation average = 0
	minimum = 0
	maximum = 0
Injected packet rate average = 0.0513125
	minimum = 0.041 (at node 13)
	maximum = 0.057 (at node 7)
Accepted packet rate average = 0.0512813
	minimum = 0.0415 (at node 7)
	maximum = 0.0575 (at node 13)
Injected flit rate average = 0.0513125
	minimum = 0.041 (at node 13)
	maximum = 0.057 (at node 7)
Accepted flit rate average= 0.0512813
	minimum = 0.0415 (at node 7)
	maximum = 0.0575 (at node 13)
Injected packet length average = 1
Accepted packet length average = 1
Total in-flight flits = 13 (13 measured)
latency change    = 0.00446369
throughput change = 0.0152346
Class 0:
Packet latency average = 19.778
	minimum = 7
	maximum = 46
Network latency average = 19.778
	minimum = 7
	maximum = 46
Slowest packet = 35650
Flit latency average = 19.8137
	minimum = 7
	maximum = 46
Slowest flit = 35650
Fragmentation average = 0
	minimum = 0
	maximum = 0
Injected packet rate average = 0.0507083
	minimum = 0.046 (at node 5)
	maximum = 0.0553333 (at node 0)
Accepted packet rate average = 0.0506458
	minimum = 0.046 (at node 5)
	maximum = 0.0553333 (at node 0)
Injected flit rate average = 0.0507083
	minimum = 0.046 (at node 5)
	maximum = 0.0553333 (at node 0)
Accepted flit rate average= 0.0506458
	minimum = 0.046 (at node 5)
	maximum = 0.0553333 (at node 0)
Injected packet length average = 1
Accepted packet length average = 1
Total in-flight flits = 15 (15 measured)
latency change    = 0.0102853
throughput change = 0.0125463
Class 0:
Packet latency average = 19.8402
	minimum = 7
	maximum = 46
Network latency average = 19.8402
	minimum = 7
	maximum = 46
Slowest packet = 35650
Flit latency average = 19.8668
	minimum = 7
	maximum = 46
Slowest flit = 35650
Fragmentation average = 0
	minimum = 0
	maximum = 0
Injected packet rate average = 0.0505
	minimum = 0.047 (at node 4)
	maximum = 0.05425 (at node 12)
Accepted packet rate average = 0.0504531
	minimum = 0.04675 (at node 1)
	maximum = 0.05425 (at node 3)
Injected flit rate average = 0.0505
	minimum = 0.047 (at node 4)
	maximum = 0.05425 (at node 12)
Accepted flit rate average= 0.0504531
	minimum = 0.04675 (at node 1)
	maximum = 0.05425 (at node 3)
Injected packet length average = 1
Accepted packet length average = 1
Total in-flight flits = 15 (15 measured)
latency change    = 0.00313587
throughput change = 0.00381955
Draining all recorded packets ...
Draining remaining packets ...
Time taken is 7067 cycles
Class 0:
Packet latency average = 19.8875
	minimum = 7
	maximum = 46
Network latency average = 19.8875
	minimum = 7
	maximum = 46
Slowest packet = 38170
Flit latency average = 19.8875
	minimum = 7
	maximum = 46
Slowest flit = 38170
Fragmentation average = 0
	minimum = 0
	maximum = 0
Injected packet rate average = 0.0509375
	minimum = 0.043 (at node 10)
	maximum = 0.06 (at node 3)
Accepted packet rate average = 0.0494375
	minimum = 0.043 (at node 10)
	maximum = 0.056 (at node 0)
Injected flit rate average = 0.0509375
	minimum = 0.043 (at node 10)
	maximum = 0.06 (at node 3)
Accepted flit rate average= 0.0494375
	minimum = 0.043 (at node 10)
	maximum = 0.056 (at node 0)
Injected packet length average = 1
Accepted packet length average = 1
Total in-flight flits = 24 (0 measured)
latency change    = 1
throughput change = 1
Class 0:
Packet latency average = 19.6967
	minimum = 7
	maximum = 46
Network latency average = 19.6967
	minimum = 7
	maximum = 46
Slowest packet = 38170
Flit latency average = 19.6967
	minimum = 7
	maximum = 46
Slowest flit = 38170
Fragmentation average = 0
	minimum = 0
	maximum = 0
Injected packet rate average = 0.0493125
	minimum = 0.042 (at node 10)
	maximum = 0.057 (at node 5)
Accepted packet rate average = 0.0488437
	minimum = 0.042 (at node 10)
	maximum = 0.057 (at node 5)
Injected flit rate average = 0.0493125
	minimum = 0.042 (at node 10)
	maximum = 0.057 (at node 5)
Accepted flit rate average= 0.0488437
	minimum = 0.042 (at node 10)
	maximum = 0.057 (at node 5)
Injected packet length average = 1
Accepted packet length average = 1
Total in-flight flits = 15 (0 measured)
latency change    = 0.0096842
throughput change = 0.0121561
Class 0:
Packet latency average = 19.0095
	minimum = 7
	maximum = 45
Network latency average = 19.0095
	minimum = 7
	maximum = 45
Slowest packet = 39727
Flit latency average = 19.0095
	minimum = 7
	maximum = 45
Slowest flit = 39727
Fragmentation average = 0
	minimum = 0
	maximum = 0
Injected packet rate average = 0.053
	minimum = 0.036 (at node 14)
	maximum = 0.078 (at node 10)
Accepted packet rate average = 0.0528125
	minimum = 0.035 (at node 11)
	maximum = 0.078 (at node 10)
Injected flit rate average = 0.053
	minimum = 0.036 (at node 14)
	maximum = 0.078 (at node 10)
Accepted flit rate average= 0.0528125
	minimum = 0.035 (at node 11)
	maximum = 0.078 (at node 10)
Injected packet length average = 1
Accepted packet length average = 1
Total in-flight flits = 18 (0 measured)
latency change    = 0.0361541
throughput change = 0.0751479
Warmed up ...Time used is 3000 cycles
Class 0:
Packet latency average = 19.5573
	minimum = 7
	maximum = 47
Network latency average = 19.5573
	minimum = 7
	maximum = 47
Slowest packet = 40444
Flit latency average = 19.7226
	minimum = 7
	maximum = 47
Slowest flit = 40444
Fragmentation average = 0
	minimum = 0
	maximum = 0
Injected packet rate average = 0.0519375
	minimum = 0.038 (at node 10)
	maximum = 0.063 (at node 4)
Accepted packet rate average = 0.0518125
	minimum = 0.036 (at node 10)
	maximum = 0.061 (at node 1)
Injected flit rate average = 0.0519375
	minimum = 0.038 (at node 10)
	maximum = 0.063 (at node 4)
Accepted flit rate average= 0.0518125
	minimum = 0.036 (at node 10)
	maximum = 0.061 (at node 1)
Injected packet length average = 1
Accepted packet length average = 1
Total in-flight flits = 20 (20 measured)
latency change    = 0.0280135
throughput change = 0.0193004
Class 0:
Packet latency average = 19.6733
	minimum = 7
	maximum = 48
Network latency average = 19.6733
	minimum = 7
	maximum = 48
Slowest packet = 41612
Flit latency average = 19.7563
	minimum = 7
	maximum = 48
Slowest flit = 41612
Fragmentation average = 0
	minimum = 0
	maximum = 0
Injected packet rate average = 0.0506875
	minimum = 0.043 (at node 10)
	maximum = 0.056 (at node 4)
Accepted packet rate average = 0.0507812
	minimum = 0.0425 (at node 10)
	maximum = 0.0565 (at node 5)
Injected flit rate average = 0.0506875
	minimum = 0.043 (at node 10)
	maximum = 0.056 (at node 4)
Accepted flit rate average= 0.0507812
	minimum = 0.0425 (at node 10)
	maximum = 0.0565 (at node 5)
Injected packet length average = 1
Accepted packet length average = 1
Total in-flight flits = 15 (15 measured)
latency change    = 0.00589467
throughput change = 0.0203077
Class 0:
Packet latency average = 19.6736
	minimum = 7
	maximum = 48
Network latency average = 19.6736
	minimum = 7
	maximum = 48
Slowest packet = 41612
Flit latency average = 19.7296
	minimum = 7
	maximum = 48
Slowest flit = 41612
Fragmentation average = 0
	minimum = 0
	maximum = 0
Injected packet rate average = 0.05025
	minimum = 0.0436667 (at node 10)
	maximum = 0.0553333 (at node 8)
Accepted packet rate average = 0.0502292
	minimum = 0.0436667 (at node 10)
	maximum = 0.0553333 (at node 2)
Injected flit rate average = 0.05025
	minimum = 0.0436667 (at node 10)
	maximum = 0.0553333 (at node 8)
Accepted flit rate average= 0.0502292
	minimum = 0.0436667 (at node 10)
	maximum = 0.0553333 (at node 2)
Injected packet length average = 1
Accepted packet length average = 1
Total in-flight flits = 19 (19 measured)
latency change    = 1.66279e-05
throughput change = 0.0109913
Draining all recorded packets ...
Draining remaining packets ...
Time taken is 6063 cycles
Class 0:
Packet latency average = 19.6107
	minimum = 7
	maximum = 46
Network latency average = 19.6107
	minimum = 7
	maximum = 46
Slowest packet = 43354
Flit latency average = 19.6107
	minimum = 7
	maximum = 46
Slowest flit = 43354
Fragmentation average = 0
	minimum = 0
	maximum = 0
Injected packet rate average = 0.0499375
	minimum = 0.038 (at node 10)
	maximum = 0.058 (at node 9)
Accepted packet rate average = 0.049125
	minimum = 0.037 (at node 10)
	maximum = 0.057 (at node 2)
Injected flit rate average = 0.0499375
	minimum = 0.038 (at node 10)
	maximum = 0.058 (at node 9)
Accepted flit rate average= 0.049125
	minimum = 0.037 (at node 10)
	maximum = 0.057 (at node 2)
Injected packet length average = 1
Accepted packet length average = 1
Total in-flight flits = 13 (0 measured)
latency change    = 1
throughput change = 1
Class 0:
Packet latency average = 19.3125
	minimum = 7
	maximum = 46
Network latency average = 19.3125
	minimum = 7
	maximum = 46
Slowest packet = 43354
Flit latency average = 19.3125
	minimum = 7
	maximum = 46
Slowest flit = 43354
Fragmentation average = 0
	minimum = 0
	maximum = 0
Injected packet rate average = 0.0499687
	minimum = 0.041 (at node 12)
	maximum = 0.058 (at node 15)
Accepted packet rate average = 0.0494062
	minimum = 0.0405 (at node 3)
	maximum = 0.058 (at node 15)
Injected flit rate average = 0.0499687
	minimum = 0.041 (at node 12)
	maximum = 0.058 (at node 15)
Accepted flit rate average= 0.0494062
	minimum = 0.0405 (at node 3)
	maximum = 0.058 (at node 15)
Injected packet length average = 1
Accepted packet length average = 1
Total in-flight flits = 18 (0 measured)
latency change    = 0.0154422
throughput change = 0.0056926
Class 0:
Packet latency average = 20.0414
	minimum = 7
	maximum = 46
Network latency average = 20.0414
	minimum = 7
	maximum = 46
Slowest packet = 44804
Flit latency average = 20.0414
	minimum = 7
	maximum = 46
Slowest flit = 44804
Fragmentation average = 0
	minimum = 0
	maximum = 0
Injected packet rate average = 0.051375
	minimum = 0.042 (at node 15)
	maximum = 0.062 (at node 4)
Accepted packet rate average = 0.051375
	minimum = 0.042 (at node 15)
	maximum = 0.063 (at node 1)
Injected flit rate average = 0.051375
	minimum = 0.042 (at node 15)
	maximum = 0.062 (at node 4)
Accepted flit rate average= 0.051375
	minimum = 0.042 (at node 15)
	maximum = 0.063 (at node 1)
Injected packet length average = 1
Accepted packet length average = 1
Total in-flight flits = 18 (0 measured)
latency change    = 0.0363699
throughput change = 0.0383212
Warmed up ...Time used is 3000 cycles
Class 0:
Packet latency average = 19.2931
	minimum = 7
	maximum = 45
Network latency average = 19.2931
	minimum = 7
	maximum = 45
Slowest packet = 45247
Flit latency average = 19.4614
	minimum = 7
	maximum = 45
Slowest flit = 45247
Fragmentation average = 0
	minimum = 0
	maximum = 0
Injected packet rate average = 0.0519375
	minimum = 0.042 (at node 12)
	maximum = 0.061 (at node 13)
Accepted packet rate average = 0.051875
	minimum = 0.042 (at node 2)
	maximum = 0.063 (at node 7)
Injected flit rate average = 0.0519375
	minimum = 0.042 (at node 12)
	maximum = 0.061 (at node 13)
Accepted flit rate average= 0.051875
	minimum = 0.042 (at node 2)
	maximum = 0.063 (at node 7)
Injected packet length average = 1
Accepted packet length average = 1
Total in-flight flits = 19 (19 measured)
latency change    = 0.0387838
throughput change = 0.00963855
Class 0:
Packet latency average = 19.5296
	minimum = 7
	maximum = 46
Network latency average = 19.5296
	minimum = 7
	maximum = 46
Slowest packet = 46453
Flit latency average = 19.6149
	minimum = 7
	maximum = 46
Slowest flit = 46453
Fragmentation average = 0
	minimum = 0
	maximum = 0
Injected packet rate average = 0.04975
	minimum = 0.0435 (at node 7)
	maximum = 0.055 (at node 10)
Accepted packet rate average = 0.0496562
	minimum = 0.0425 (at node 13)
	maximum = 0.0555 (at node 7)
Injected flit rate average = 0.04975
	minimum = 0.0435 (at node 7)
	maximum = 0.055 (at node 10)
Accepted flit rate average= 0.0496562
	minimum = 0.0425 (at node 13)
	maximum = 0.0555 (at node 7)
Injected packet length average = 1
Accepted packet length average = 1
Total in-flight flits = 21 (21 measured)
latency change    = 0.0121096
throughput change = 0.0446822
Class 0:
Packet latency average = 19.6719
	minimum = 7
	maximum = 46
Network latency average = 19.6719
	minimum = 7
	maximum = 46
Slowest packet = 46453
Flit latency average = 19.7277
	minimum = 7
	maximum = 46
Slowest flit = 46453
Fragmentation average = 0
	minimum = 0
	maximum = 0
Injected packet rate average = 0.0495625
	minimum = 0.0423333 (at node 8)
	maximum = 0.0556667 (at node 3)
Accepted packet rate average = 0.0496458
	minimum = 0.043 (at node 2)
	maximum = 0.0553333 (at node 12)
Injected flit rate average = 0.0495625
	minimum = 0.0423333 (at node 8)
	maximum = 0.0556667 (at node 3)
Accepted flit rate average= 0.0496458
	minimum = 0.043 (at node 2)
	maximum = 0.0553333 (at node 12)
Injected packet length average = 1
Accepted packet length average = 1
Total in-flight flits = 14 (14 measured)
latency change    = 0.00723279
throughput change = 0.00020982
Draining all recorded packets ...
Draining remaining packets ...
Time taken is 6061 cycles
Class 0:
Packet latency average = 19.4361
	minimum = 7
	maximum = 43
Network latency average = 19.4361
	minimum = 7
	maximum = 43
Slowest packet = 47635
Flit latency average = 19.4361
	minimum = 7
	maximum = 43
Slowest flit = 47635
Fragmentation average = 0
	minimum = 0
	maximum = 0
Injected packet rate average = 0.0469375
	minimum = 0.036 (at node 10)
	maximum = 0.061 (at node 9)
Accepted packet rate average = 0.046
	minimum = 0.036 (at node 10)
	maximum = 0.059 (at node 6)
Injected flit rate average = 0.0469375
	minimum = 0.036 (at node 10)
	maximum = 0.061 (at node 9)
Accepted flit rate average= 0.046
	minimum = 0.036 (at node 10)
	maximum = 0.059 (at node 6)
Injected packet length average = 1
Accepted packet length average = 1
Total in-flight flits = 15 (0 measured)
latency change    = 1
throughput change = 1
Class 0:
Packet latency average = 19.3718
	minimum = 7
	maximum = 45
Network latency average = 19.3718
	minimum = 7
	maximum = 45
Slowest packet = 48485
Flit latency average = 19.3718
	minimum = 7
	maximum = 45
Slowest flit = 48485
Fragmentation average = 0
	minimum = 0
	maximum = 0
Injected packet rate average = 0.0491875
	minimum = 0.0375 (at node 13)
	maximum = 0.061 (at node 1)
Accepted packet rate average = 0.04875
	minimum = 0.0365 (at node 7)
	maximum = 0.061 (at node 4)
Injected flit rate average = 0.0491875
	minimum = 0.0375 (at node 13)
	maximum = 0.061 (at node 1)
Accepted flit rate average= 0.04875
	minimum = 0.0365 (at node 7)
	maximum = 0.061 (at node 4)
Injected packet length average = 1
Accepted packet length average = 1
Total in-flight flits = 14 (0 measured)
latency change    = 0.00332166
throughput change = 0.0564103
Class 0:
Packet latency average = 19.844
	minimum = 7
	maximum = 47
Network latency average = 19.844
	minimum = 7
	maximum = 47
Slowest packet = 49256
Flit latency average = 19.844
	minimum = 7
	maximum = 47
Slowest flit = 49256
Fragmentation average = 0
	minimum = 0
	maximum = 0
Injected packet rate average = 0.0491875
	minimum = 0.04 (at node 9)
	maximum = 0.059 (at node 2)
Accepted packet rate average = 0.048875
	minimum = 0.04 (at node 6)
	maximum = 0.058 (at node 8)
Injected flit rate average = 0.0491875
	minimum = 0.04 (at node 9)
	maximum = 0.059 (at node 2)
Accepted flit rate average= 0.048875
	minimum = 0.04 (at node 6)
	maximum = 0.058 (at node 8)
Injected packet length average = 1
Accepted packet length average = 1
Total in-flight flits = 19 (0 measured)
latency change    = 0.0237954
throughput change = 0.00255754
Warmed up ...Time used is 3000 cycles
Class 0:
Packet latency average = 19.773
	minimum = 7
	maximum = 50
Network latency average = 19.773
	minimum = 7
	maximum = 50
Slowest packet = 50259
Flit latency average = 19.9139
	minimum = 7
	maximum = 50
Slowest flit = 50259
Fragmentation average = 0
	minimum = 0
	maximum = 0
Injected packet rate average = 0.051125
	minimum = 0.041 (at node 6)
	maximum = 0.071 (at node 2)
Accepted packet rate average = 0.0515625
	minimum = 0.04 (at node 9)
	maximum = 0.071 (at node 8)
Injected flit rate average = 0.051125
	minimum = 0.041 (at node 6)
	maximum = 0.071 (at node 2)
Accepted flit rate average= 0.0515625
	minimum = 0.04 (at node 9)
	maximum = 0.071 (at node 8)
Injected packet length average = 1
Accepted packet length average = 1
Total in-flight flits = 12 (12 measured)
latency change    = 0.00359263
throughput change = 0.0521212
Class 0:
Packet latency average = 19.7587
	minimum = 7
	maximum = 50
Network latency average = 19.7587
	minimum = 7
	maximum = 50
Slowest packet = 50259
Flit latency average = 19.8304
	minimum = 7
	maximum = 50
Slowest flit = 50259
Fragmentation average = 0
	minimum = 0
	maximum = 0
Injected packet rate average = 0.051
	minimum = 0.0455 (at node 7)
	maximum = 0.059 (at node 2)
Accepted packet rate average = 0.0508438
	minimum = 0.0455 (at node 13)
	maximum = 0.0595 (at node 8)
Injected flit rate average = 0.051
	minimum = 0.0455 (at node 7)
	maximum = 0.059 (at node 2)
Accepted flit rate average= 0.0508438
	minimum = 0.0455 (at node 13)
	maximum = 0.0595 (at node 8)
Injected packet length average = 1
Accepted packet length average = 1
Total in-flight flits = 24 (24 measured)
latency change    = 0.000721018
throughput change = 0.0141364
Class 0:
Packet latency average = 19.8139
	minimum = 7
	maximum = 50
Network latency average = 19.8135
	minimum = 7
	maximum = 50
Slowest packet = 50259
Flit latency average = 19.8608
	minimum = 7
	maximum = 50
Slowest flit = 50259
Fragmentation average = 0
	minimum = 0
	maximum = 0
Injected packet rate average = 0.0508125
	minimum = 0.047 (at node 0)
	maximum = 0.055 (at node 4)
Accepted packet rate average = 0.0508958
	minimum = 0.047 (at node 0)
	maximum = 0.0553333 (at node 1)
Injected flit rate average = 0.0508125
	minimum = 0.047 (at node 0)
	maximum = 0.055 (at node 4)
Accepted flit rate average= 0.0508958
	minimum = 0.047 (at node 0)
	maximum = 0.0553333 (at node 1)
Injected packet length average = 1
Accepted packet length average = 1
Total in-flight flits = 15 (15 measured)
latency change    = 0.00278781
throughput change = 0.00102333
Class 0:
Packet latency average = 19.8875
	minimum = 7
	maximum = 50
Network latency average = 19.8871
	minimum = 7
	maximum = 50
Slowest packet = 50259
Flit latency average = 19.922
	minimum = 7
	maximum = 50
Slowest flit = 50259
Fragmentation average = 0
	minimum = 0
	maximum = 0
Injected packet rate average = 0.0509375
	minimum = 0.0465 (at node 5)
	maximum = 0.0555 (at node 12)
Accepted packet rate average = 0.0511094
	minimum = 0.0465 (at node 5)
	maximum = 0.05575 (at node 3)
Injected flit rate average = 0.0509375
	minimum = 0.0465 (at node 5)
	maximum = 0.0555 (at node 12)
Accepted flit rate average= 0.0511094
	minimum = 0.0465 (at node 5)
	maximum = 0.05575 (at node 3)
Injected packet length average = 1
Accepted packet length average = 1
Total in-flight flits = 8 (8 measured)
latency change    = 0.0036963
throughput change = 0.00417813
Draining all recorded packets ...
Draining remaining packets ...
Time taken is 7057 cycles
Class 0:
Packet latency average = 19.6323
	minimum = 7
	maximum = 46
Network latency average = 19.6323
	minimum = 7
	maximum = 46
Slowest packet = 53825
Flit latency average = 19.6323
	minimum = 7
	maximum = 46
Slowest flit = 53825
Fragmentation average = 0
	minimum = 0
	maximum = 0
Injected packet rate average = 0.0498125
	minimum = 0.035 (at node 1)
	maximum = 0.061 (at node 14)
Accepted packet rate average = 0.049125
	minimum = 0.034 (at node 4)
	maximum = 0.059 (at node 2)
Injected flit rate average = 0.0498125
	minimum = 0.035 (at node 1)
	maximum = 0.061 (at node 14)
Accepted flit rate average= 0.049125
	minimum = 0.034 (at node 4)
	maximum = 0.059 (at node 2)
Injected packet length average = 1
Accepted packet length average = 1
Total in-flight flits = 11 (0 measured)
latency change    = 1
throughput change = 1
Class 0:
Packet latency average = 19.5678
	minimum = 7
	maximum = 46
Network latency average = 19.5678
	minimum = 7
	maximum = 46
Slowest packet = 53825
Flit latency average = 19.5678
	minimum = 7
	maximum = 46
Slowest flit = 53825
Fragmentation average = 0
	minimum = 0
	maximum = 0
Injected packet rate average = 0.0500625
	minimum = 0.043 (at node 1)
	maximum = 0.062 (at node 8)
Accepted packet rate average = 0.0495312
	minimum = 0.0425 (at node 4)
	maximum = 0.062 (at node 2)
Injected flit rate average = 0.0500625
	minimum = 0.043 (at node 1)
	maximum = 0.062 (at node 8)
Accepted flit rate average= 0.0495312
	minimum = 0.0425 (at node 4)
	maximum = 0.062 (at node 2)
Injected packet length average = 1
Accepted packet length average = 1
Total in-flight flits = 17 (0 measured)
latency change    = 0.00329583
throughput change = 0.00820189
Class 0:
Packet latency average = 19.4468
	minimum = 7
	maximum = 47
Network latency average = 19.4468
	minimum = 7
	maximum = 47
Slowest packet = 55131
Flit latency average = 19.4468
	minimum = 7
	maximum = 47
Slowest flit = 55131
Fragmentation average = 0
	minimum = 0
	maximum = 0
Injected packet rate average = 0.0499375
	minimum = 0.034 (at node 8)
	maximum = 0.065 (at node 4)
Accepted packet rate average = 0.0499375
	minimum = 0.034 (at node 2)
	maximum = 0.065 (at node 1)
Injected flit rate average = 0.0499375
	minimum = 0.034 (at node 8)
	maximum = 0.065 (at node 4)
Accepted flit rate average= 0.0499375
	minimum = 0.034 (at node 2)
	maximum = 0.065 (at node 1)
Injected packet length average = 1
Accepted packet length average = 1
Total in-flight flits = 17 (0 measured)
latency change    = 0.00622286
throughput change = 0.00813517
Warmed up ...Time used is 3000 cycles
Class 0:
Packet latency average = 19.7635
	minimum = 7
	maximum = 46
Network latency average = 19.7635
	minimum = 7
	maximum = 46
Slowest packet = 56128
Flit latency average = 19.8616
	minimum = 7
	maximum = 46
Slowest flit = 56128
Fragmentation average = 0
	minimum = 0
	maximum = 0
Injected packet rate average = 0.0496875
	minimum = 0.034 (at node 8)
	maximum = 0.064 (at node 4)
Accepted packet rate average = 0.0496875
	minimum = 0.034 (at node 2)
	maximum = 0.064 (at node 1)
Injected flit rate average = 0.0496875
	minimum = 0.034 (at node 8)
	maximum = 0.064 (at node 4)
Accepted flit rate average= 0.0496875
	minimum = 0.034 (at node 2)
	maximum = 0.064 (at node 1)
Injected packet length average = 1
Accepted packet length average = 1
Total in-flight flits = 17 (17 measured)
latency change    = 0.0160239
throughput change = 0.00503145
Class 0:
Packet latency average = 19.4695
	minimum = 7
	maximum = 46
Network latency average = 19.4695
	minimum = 7
	maximum = 46
Slowest packet = 56128
Flit latency average = 19.5217
	minimum = 7
	maximum = 46
Slowest flit = 56128
Fragmentation average = 0
	minimum = 0
	maximum = 0
Injected packet rate average = 0.0495312
	minimum = 0.0405 (at node 13)
	maximum = 0.058 (at node 4)
Accepted packet rate average = 0.0496562
	minimum = 0.0405 (at node 7)
	maximum = 0.059 (at node 1)
Injected flit rate average = 0.0495312
	minimum = 0.0405 (at node 13)
	maximum = 0.058 (at node 4)
Accepted flit rate average= 0.0496562
	minimum = 0.0405 (at node 7)
	maximum = 0.059 (at node 1)
Injected packet length average = 1
Accepted packet length average = 1
Total in-flight flits = 13 (13 measured)
latency change    = 0.0151021
throughput change = 0.000629327
Class 0:
Packet latency average = 19.6462
	minimum = 7
	maximum = 47
Network latency average = 19.6462
	minimum = 7
	maximum = 47
Slowest packet = 57809
Flit latency average = 19.6794
	minimum = 7
	maximum = 47
Slowest flit = 57809
Fragmentation average = 0
	minimum = 0
	maximum = 0
Injected packet rate average = 0.0502083
	minimum = 0.0413333 (at node 13)
	maximum = 0.0583333 (at node 15)
Accepted packet rate average = 0.0501667
	minimum = 0.0413333 (at node 7)
	maximum = 0.0583333 (at node 15)
Injected flit rate average = 0.0502083
	minimum = 0.0413333 (at node 13)
	maximum = 0.0583333 (at node 15)
Accepted flit rate average= 0.0501667
	minimum = 0.0413333 (at node 7)
	maximum = 0.0583333 (at node 15)
Injected packet length average = 1
Accepted packet length average = 1
Total in-flight flits = 19 (19 measured)
latency change    = 0.0089945
throughput change = 0.0101744
Draining all recorded packets ...
Draining remaining packets ...
Time taken is 6070 cycles
Class 0:
Packet latency average = 19.1114
	minimum = 7
	maximum = 45
Network latency average = 19.1114
	minimum = 7
	maximum = 45
Slowest packet = 58591
Flit latency average = 19.1114
	minimum = 7
	maximum = 45
Slowest flit = 58591
Fragmentation average = 0
	minimum = 0
	maximum = 0
Injected packet rate average = 0.0483125
	minimum = 0.041 (at node 12)
	maximum = 0.062 (at node 15)
Accepted packet rate average = 0.047125
	minimum = 0.038 (at node 3)
	maximum = 0.061 (at node 15)
Injected flit rate average = 0.0483125
	minimum = 0.041 (at node 12)
	maximum = 0.062 (at node 15)
Accepted flit rate average= 0.047125
	minimum = 0.038 (at node 3)
	maximum = 0.061 (at node 15)
Injected packet length average = 1
Accepted packet length average = 1
Total in-flight flits = 19 (0 measured)
latency change    = 1
throughput change = 1
Class 0:
Packet latency average = 19.315
	minimum = 7
	maximum = 46
Network latency average = 19.315
	minimum = 7
	maximum = 46
Slowest packet = 59503
Flit latency average = 19.315
	minimum = 7
	maximum = 46
Slowest flit = 59503
Fragmentation average = 0
	minimum = 0
	maximum = 0
Injected packet rate average = 0.0494687
	minimum = 0.0385 (at node 6)
	maximum = 0.0605 (at node 15)
Accepted packet rate average = 0.0488125
	minimum = 0.038 (at node 9)
	maximum = 0.0605 (at node 15)
Injected flit rate average = 0.0494687
	minimum = 0.0385 (at node 6)
	maximum = 0.0605 (at node 15)
Accepted flit rate average= 0.0488125
	minimum = 0.038 (at node 9)
	maximum = 0.0605 (at node 15)
Injected packet length average = 1
Accepted packet length average = 1
Total in-flight flits = 21 (0 measured)
latency change    = 0.0105397
throughput change = 0.0345711
Class 0:
Packet latency average = 20.6254
	minimum = 7
	maximum = 52
Network latency average = 20.6254
	minimum = 7
	maximum = 52
Slowest packet = 59752
Flit latency average = 20.6254
	minimum = 7
	maximum = 52
Slowest flit = 59752
Fragmentation average = 0
	minimum = 0
	maximum = 0
Injected packet rate average = 0.052375
	minimum = 0.035 (at node 2)
	maximum = 0.069 (at node 12)
Accepted packet rate average = 0.0525625
	minimum = 0.038 (at node 8)
	maximum = 0.069 (at node 12)
Injected flit rate average = 0.052375
	minimum = 0.035 (at node 2)
	maximum = 0.069 (at node 12)
Accepted flit rate average= 0.0525625
	minimum = 0.038 (at node 8)
	maximum = 0.069 (at node 12)
Injected packet length average = 1
Accepted packet length average = 1
Total in-flight flits = 18 (0 measured)
latency change    = 0.0635363
throughput change = 0.0713436
Warmed up ...Time used is 3000 cycles
Class 0:
Packet latency average = 19.2728
	minimum = 7
	maximum = 44
Network latency average = 19.2728
	minimum = 7
	maximum = 44
Slowest packet = 60506
Flit latency average = 19.433
	minimum = 7
	maximum = 44
Slowest flit = 60445
Fragmentation average = 0
	minimum = 0
	maximum = 0
Injected packet rate average = 0.050375
	minimum = 0.039 (at node 10)
	maximum = 0.071 (at node 0)
Accepted packet rate average = 0.050375
	minimum = 0.039 (at node 10)
	maximum = 0.071 (at node 0)
Injected flit rate average = 0.050375
	minimum = 0.039 (at node 10)
	maximum = 0.071 (at node 0)
Accepted flit rate average= 0.050375
	minimum = 0.039 (at node 10)
	maximum = 0.071 (at node 0)
Injected packet length average = 1
Accepted packet length average = 1
Total in-flight flits = 18 (18 measured)
latency change    = 0.0701818
throughput change = 0.0434243
Class 0:
Packet latency average = 19.4389
	minimum = 7
	maximum = 45
Network latency average = 19.4389
	minimum = 7
	maximum = 45
Slowest packet = 61228
Flit latency average = 19.517
	minimum = 7
	maximum = 45
Slowest flit = 61228
Fragmentation average = 0
	minimum = 0
	maximum = 0
Injected packet rate average = 0.050375
	minimum = 0.0385 (at node 13)
	maximum = 0.061 (at node 0)
Accepted packet rate average = 0.0504687
	minimum = 0.0385 (at node 7)
	maximum = 0.0605 (at node 0)
Injected flit rate average = 0.050375
	minimum = 0.0385 (at node 13)
	maximum = 0.061 (at node 0)
Accepted flit rate average= 0.0504687
	minimum = 0.0385 (at node 7)
	maximum = 0.0605 (at node 0)
Injected packet length average = 1
Accepted packet length average = 1
Total in-flight flits = 15 (15 measured)
latency change    = 0.00854498
throughput change = 0.00185759
Class 0:
Packet latency average = 19.5431
	minimum = 7
	maximum = 46
Network latency average = 19.5431
	minimum = 7
	maximum = 46
Slowest packet = 62242
Flit latency average = 19.5942
	minimum = 7
	maximum = 46
Slowest flit = 62242
Fragmentation average = 0
	minimum = 0
	maximum = 0
Injected packet rate average = 0.0506667
	minimum = 0.0443333 (at node 15)
	maximum = 0.0586667 (at node 0)
Accepted packet rate average = 0.0506667
	minimum = 0.0443333 (at node 15)
	maximum = 0.0586667 (at node 0)
Injected flit rate average = 0.0506667
	minimum = 0.0443333 (at node 15)
	maximum = 0.0586667 (at node 0)
Accepted flit rate average= 0.0506667
	minimum = 0.0443333 (at node 15)
	maximum = 0.0586667 (at node 0)
Injected packet length average = 1
Accepted packet length average = 1
Total in-flight flits = 18 (18 measured)
latency change    = 0.00532843
throughput change = 0.00390625
Class 0:
Packet latency average = 19.6263
	minimum = 7
	maximum = 46
Network latency average = 19.6263
	minimum = 7
	maximum = 46
Slowest packet = 62242
Flit latency average = 19.6646
	minimum = 7
	maximum = 46
Slowest flit = 62242
Fragmentation average = 0
	minimum = 0
	maximum = 0
Injected packet rate average = 0.0499687
	minimum = 0.044 (at node 13)
	maximum = 0.056 (at node 0)
Accepted packet rate average = 0.0500781
	minimum = 0.044 (at node 7)
	maximum = 0.056 (at node 0)
Injected flit rate average = 0.0499687
	minimum = 0.044 (at node 13)
	maximum = 0.056 (at node 0)
Accepted flit rate average= 0.0500781
	minimum = 0.044 (at node 7)
	maximum = 0.056 (at node 0)
Injected packet length average = 1
Accepted packet length average = 1
Total in-flight flits = 11 (11 measured)
latency change    = 0.00423984
throughput change = 0.0117525
Draining all recorded packets ...
Draining remaining packets ...
Time taken is 7063 cycles
Class 0:
Packet latency average = 20.156
	minimum = 7
	maximum = 46
Network latency average = 20.156
	minimum = 7
	maximum = 46
Slowest packet = 63803
Flit latency average = 20.156
	minimum = 7
	maximum = 46
Slowest flit = 63803
Fragmentation average = 0
	minimum = 0
	maximum = 0
Injected packet rate average = 0.0488125
	minimum = 0.03 (at node 4)
	maximum = 0.06 (at node 6)
Accepted packet rate average = 0.0480625
	minimum = 0.029 (at node 1)
	maximum = 0.06 (at node 3)
Injected flit rate average = 0.0488125
	minimum = 0.03 (at node 4)
	maximum = 0.06 (at node 6)
Accepted flit rate average= 0.0480625
	minimum = 0.029 (at node 1)
	maximum = 0.06 (at node 3)
Injected packet length average = 1
Accepted packet length average = 1
Total in-flight flits = 12 (0 measured)
latency change    = 1
throughput change = 1
Class 0:
Packet latency average = 20.1305
	minimum = 7
	maximum = 46
Network latency average = 20.1305
	minimum = 7
	maximum = 46
Slowest packet = 63803
Flit latency average = 20.1305
	minimum = 7
	maximum = 46
Slowest flit = 63803
Fragmentation average = 0
	minimum = 0
	maximum = 0
Injected packet rate average = 0.0499687
	minimum = 0.041 (at node 5)
	maximum = 0.062 (at node 12)
Accepted packet rate average = 0.0495625
	minimum = 0.041 (at node 5)
	maximum = 0.062 (at node 3)
Injected flit rate average = 0.0499687
	minimum = 0.041 (at node 5)
	maximum = 0.062 (at node 12)
Accepted flit rate average= 0.0495625
	minimum = 0.041 (at node 5)
	maximum = 0.062 (at node 3)
Injected packet length average = 1
Accepted packet length average = 1
Total in-flight flits = 13 (0 measured)
latency change    = 0.00126821
throughput change = 0.0302648
Class 0:
Packet latency average = 19.6128
	minimum = 7
	maximum = 45
Network latency average = 19.6128
	minimum = 7
	maximum = 45
Slowest packet = 65324
Flit latency average = 19.6128
	minimum = 7
	maximum = 45
Slowest flit = 65324
Fragmentation average = 0
	minimum = 0
	maximum = 0
Injected packet rate average = 0.051875
	minimum = 0.038 (at node 10)
	maximum = 0.061 (at node 1)
Accepted packet rate average = 0.0518125
	minimum = 0.039 (at node 10)
	maximum = 0.061 (at node 5)
Injected flit rate average = 0.051875
	minimum = 0.038 (at node 10)
	maximum = 0.061 (at node 1)
Accepted flit rate average= 0.0518125
	minimum = 0.039 (at node 10)
	maximum = 0.061 (at node 5)
Injected packet length average = 1
Accepted packet length average = 1
Total in-flight flits = 14 (0 measured)
latency change    = 0.0263976
throughput change = 0.0434258
Warmed up ...Time used is 3000 cycles
Class 0:
Packet latency average = 19.6025
	minimum = 7
	maximum = 44
Network latency average = 19.6025
	minimum = 7
	maximum = 44
Slowest packet = 66338
Flit latency average = 19.6708
	minimum = 7
	maximum = 44
Slowest flit = 66338
Fragmentation average = 0
	minimum = 0
	maximum = 0
Injected packet rate average = 0.05025
	minimum = 0.039 (at node 5)
	maximum = 0.061 (at node 12)
Accepted packet rate average = 0.0499375
	minimum = 0.038 (at node 5)
	maximum = 0.059 (at node 9)
Injected flit rate average = 0.05025
	minimum = 0.039 (at node 5)
	maximum = 0.061 (at node 12)
Accepted flit rate average= 0.0499375
	minimum = 0.038 (at node 5)
	maximum = 0.059 (at node 9)
Injected packet length average = 1
Accepted packet length average = 1
Total in-flight flits = 19 (19 measured)
latency change    = 0.000522316
throughput change = 0.0375469
Class 0:
Packet latency average = 19.7689
	minimum = 7
	maximum = 46
Network latency average = 19.7689
	minimum = 7
	maximum = 46
Slowest packet = 67498
Flit latency average = 19.8011
	minimum = 7
	maximum = 46
Slowest flit = 67498
Fragmentation average = 0
	minimum = 0
	maximum = 0
Injected packet rate average = 0.0509063
	minimum = 0.0415 (at node 5)
	maximum = 0.059 (at node 2)
Accepted packet rate average = 0.05075
	minimum = 0.041 (at node 5)
	maximum = 0.06 (at node 8)
Injected flit rate average = 0.0509063
	minimum = 0.0415 (at node 5)
	maximum = 0.059 (at node 2)
Accepted flit rate average= 0.05075
	minimum = 0.041 (at node 5)
	maximum = 0.06 (at node 8)
Injected packet length average = 1
Accepted packet length average = 1
Total in-flight flits = 19 (19 measured)
latency change    = 0.00841706
throughput change = 0.0160099
Class 0:
Packet latency average = 19.5415
	minimum = 7
	maximum = 46
Network latency average = 19.5415
	minimum = 7
	maximum = 46
Slowest packet = 67498
Flit latency average = 19.5639
	minimum = 7
	maximum = 46
Slowest flit = 67498
Fragmentation average = 0
	minimum = 0
	maximum = 0
Injected packet rate average = 0.0516458
	minimum = 0.0486667 (at node 13)
	maximum = 0.0576667 (at node 2)
Accepted packet rate average = 0.0515417
	minimum = 0.0486667 (at node 7)
	maximum = 0.058 (at node 8)
Injected flit rate average = 0.0516458
	minimum = 0.0486667 (at node 13)
	maximum = 0.0576667 (at node 2)
Accepted flit rate average= 0.0515417
	minimum = 0.0486667 (at node 7)
	maximum = 0.058 (at node 8)
Injected packet length average = 1
Accepted packet length average = 1
Total in-flight flits = 19 (19 measured)
latency change    = 0.0116409
throughput change = 0.0153597
Draining all recorded packets ...
Draining remaining packets ...
Time taken is 6052 cycles
Class 0:
Packet latency average = 19.9336
	minimum = 7
	maximum = 46
Network latency average = 19.9336
	minimum = 7
	maximum = 46
Slowest packet = 69104
Flit latency average = 19.9336
	minimum = 7
	maximum = 46
Slowest flit = 69104
Fragmentation average = 0
	minimum = 0
	maximum = 0
Injected packet rate average = 0.0490625
	minimum = 0.041 (at node 1)
	maximum = 0.06 (at node 3)
Accepted packet rate average = 0.048
	minimum = 0.039 (at node 4)
	maximum = 0.058 (at node 12)
Injected flit rate average = 0.0490625
	minimum = 0.041 (at node 1)
	maximum = 0.06 (at node 3)
Accepted flit rate average= 0.048
	minimum = 0.039 (at node 4)
	maximum = 0.058 (at node 12)
Injected packet length average = 1
Accepted packet length average = 1
Total in-flight flits = 17 (0 measured)
latency change    = 1
throughput change = 1
Class 0:
Packet latency average = 19.6158
	minimum = 7
	maximum = 46
Network latency average = 19.6158
	minimum = 7
	maximum = 46
Slowest packet = 69104
Flit latency average = 19.6158
	minimum = 7
	maximum = 46
Slowest flit = 69104
Fragmentation average = 0
	minimum = 0
	maximum = 0
Injected packet rate average = 0.049125
	minimum = 0.043 (at node 2)
	maximum = 0.054 (at node 10)
Accepted packet rate average = 0.0485625
	minimum = 0.0425 (at node 8)
	maximum = 0.053 (at node 10)
Injected flit rate average = 0.049125
	minimum = 0.043 (at node 2)
	maximum = 0.054 (at node 10)
Accepted flit rate average= 0.0485625
	minimum = 0.0425 (at node 8)
	maximum = 0.053 (at node 10)
Injected packet length average = 1
Accepted packet length average = 1
Total in-flight flits = 18 (0 measured)
latency change    = 0.0161993
throughput change = 0.011583
Class 0:
Packet latency average = 19.6696
	minimum = 7
	maximum = 45
Network latency average = 19.6696
	minimum = 7
	maximum = 45
Slowest packet = 70475
Flit latency average = 19.6696
	minimum = 7
	maximum = 45
Slowest flit = 70475
Fragmentation average = 0
	minimum = 0
	maximum = 0
Injected packet rate average = 0.04925
	minimum = 0.039 (at node 7)
	maximum = 0.065 (at node 1)
Accepted packet rate average = 0.0495625
	minimum = 0.039 (at node 13)
	maximum = 0.064 (at node 4)
Injected flit rate average = 0.04925
	minimum = 0.039 (at node 7)
	maximum = 0.065 (at node 1)
Accepted flit rate average= 0.0495625
	minimum = 0.039 (at node 13)
	maximum = 0.064 (at node 4)
Injected packet length average = 1
Accepted packet length average = 1
Total in-flight flits = 13 (0 measured)
latency change    = 0.00273411
throughput change = 0.0201765
Warmed up ...Time used is 3000 cycles
Class 0:
Packet latency average = 19.9925
	minimum = 7
	maximum = 47
Network latency average = 19.9925
	minimum = 7
	maximum = 47
Slowest packet = 71124
Flit latency average = 20.0369
	minimum = 7
	maximum = 47
Slowest flit = 71124
Fragmentation average = 0
	minimum = 0
	maximum = 0
Injected packet rate average = 0.0508125
	minimum = 0.036 (at node 0)
	maximum = 0.057 (at node 7)
Accepted packet rate average = 0.05075
	minimum = 0.037 (at node 0)
	maximum = 0.057 (at node 1)
Injected flit rate average = 0.0508125
	minimum = 0.036 (at node 0)
	maximum = 0.057 (at node 7)
Accepted flit rate average= 0.05075
	minimum = 0.037 (at node 0)
	maximum = 0.057 (at node 1)
Injected packet length average = 1
Accepted packet length average = 1
Total in-flight flits = 14 (14 measured)
latency change    = 0.0161501
throughput change = 0.023399
Class 0:
Packet latency average = 19.8398
	minimum = 7
	maximum = 47
Network latency average = 19.8398
	minimum = 7
	maximum = 47
Slowest packet = 71124
Flit latency average = 19.8634
	minimum = 7
	maximum = 47
Slowest flit = 71124
Fragmentation average = 0
	minimum = 0
	maximum = 0
Injected packet rate average = 0.05025
	minimum = 0.0395 (at node 0)
	maximum = 0.058 (at node 15)
Accepted packet rate average = 0.0503437
	minimum = 0.0395 (at node 0)
	maximum = 0.0575 (at node 7)
Injected flit rate average = 0.05025
	minimum = 0.0395 (at node 0)
	maximum = 0.058 (at node 15)
Accepted flit rate average= 0.0503437
	minimum = 0.0395 (at node 0)
	maximum = 0.0575 (at node 7)
Injected packet length average = 1
Accepted packet length average = 1
Total in-flight flits = 10 (10 measured)
latency change    = 0.00769619
throughput change = 0.00806952
Class 0:
Packet latency average = 19.6849
	minimum = 7
	maximum = 47
Network latency average = 19.6849
	minimum = 7
	maximum = 47
Slowest packet = 71124
Flit latency average = 19.7019
	minimum = 7
	maximum = 47
Slowest flit = 71124
Fragmentation average = 0
	minimum = 0
	maximum = 0
Injected packet rate average = 0.0492083
	minimum = 0.0406667 (at node 0)
	maximum = 0.0563333 (at node 15)
Accepted packet rate average = 0.0492708
	minimum = 0.041 (at node 0)
	maximum = 0.0563333 (at node 15)
Injected flit rate average = 0.0492083
	minimum = 0.0406667 (at node 0)
	maximum = 0.0563333 (at node 15)
Accepted flit rate average= 0.0492708
	minimum = 0.041 (at node 0)
	maximum = 0.0563333 (at node 15)
Injected packet length average = 1
Accepted packet length average = 1
Total in-flight flits = 10 (10 measured)
latency change    = 0.00786646
throughput change = 0.0217759
Draining all recorded packets ...
Draining remaining packets ...
Time taken is 6066 cycles
Class 0:
Packet latency average = 19.7555
	minimum = 7
	maximum = 47
Network latency average = 19.7555
	minimum = 7
	maximum = 47
Slowest packet = 73800
Flit latency average = 19.7555
	minimum = 7
	maximum = 47
Slowest flit = 73800
Fragmentation average = 0
	minimum = 0
	maximum = 0
Injected packet rate average = 0.05175
	minimum = 0.043 (at node 8)
	maximum = 0.059 (at node 7)
[...]
	minimum = 0.0415 (at node 14)
	maximum = 0.0615 (at node 6)
Accepted packet rate average = 0.0510313
	minimum = 0.0415 (at node 11)
	maximum = 0.0615 (at node 9)
Injected flit rate average = 0.0510938
	minimum = 0.0415 (at node 14)
	maximum = 0.0615 (at node 6)
Accepted flit rate average= 0.0510313
	minimum = 0.0415 (at node 11)
	maximum = 0.0615 (at node 9)
Injected packet length average = 1
Accepted packet length average = 1
Total in-flight flits = 23 (23 measured)
latency change    = 0.00973316
throughput change = 0.0251072
Class 0:
Packet latency average = 19.2112
	minimum = 7
	maximum = 48
Network latency average = 19.2112
	minimum = 7
	maximum = 48
Slowest packet = 492831
Flit latency average = 19.2714
	minimum = 7
	maximum = 48
Slowest flit = 492831
Fragmentation average = 0
	minimum = 0
	maximum = 0
Injected packet rate average = 0.0509375
	minimum = 0.043 (at node 11)
	maximum = 0.06 (at node 0)
Accepted packet rate average = 0.0510417
	minimum = 0.0423333 (at node 14)
	maximum = 0.06 (at node 0)
Injected flit rate average = 0.0509375
	minimum = 0.043 (at node 11)
	maximum = 0.06 (at node 0)
Accepted flit rate average= 0.0510417
	minimum = 0.0423333 (at node 14)
	maximum = 0.06 (at node 0)
Injected packet length average = 1
Accepted packet length average = 1
Total in-flight flits = 16 (16 measured)
latency change    = 0.0134476
throughput change = 0.000204082
Class 0:
Packet latency average = 19.2093
	minimum = 7
	maximum = 48
Network latency average = 19.2093
	minimum = 7
	maximum = 48
Slowest packet = 492831
Flit latency average = 19.2545
	minimum = 7
	maximum = 48
Slowest flit = 492831
Fragmentation average = 0
	minimum = 0
	maximum = 0
Injected packet rate average = 0.051
	minimum = 0.04625 (at node 2)
	maximum = 0.0585 (at node 6)
Accepted packet rate average = 0.0509531
	minimum = 0.046 (at node 8)
	maximum = 0.058 (at node 9)
Injected flit rate average = 0.051
	minimum = 0.04625 (at node 2)
	maximum = 0.0585 (at node 6)
Accepted flit rate average= 0.0509531
	minimum = 0.046 (at node 8)
	maximum = 0.058 (at node 9)
Injected packet length average = 1
Accepted packet length average = 1
Total in-flight flits = 24 (24 measured)
latency change    = 0.000100929
throughput change = 0.00173771
Draining all recorded packets ...
Draining remaining packets ...
Time taken is 7071 cycles
Class 0:
Packet latency average = 20.0388
	minimum = 7
	maximum = 44
Network latency average = 20.0388
	minimum = 7
	maximum = 44
Slowest packet = 495754
Flit latency average = 20.0388
	minimum = 7
	maximum = 44
Slowest flit = 495754
Fragmentation average = 0
	minimum = 0
	maximum = 0
Injected packet rate average = 0.0494375
	minimum = 0.035 (at node 15)
	maximum = 0.058 (at node 7)
Accepted packet rate average = 0.048375
	minimum = 0.035 (at node 15)
	maximum = 0.057 (at node 13)
Injected flit rate average = 0.0494375
	minimum = 0.035 (at node 15)
	maximum = 0.058 (at node 7)
Accepted flit rate average= 0.048375
	minimum = 0.035 (at node 15)
	maximum = 0.057 (at node 13)
Injected packet length average = 1
Accepted packet length average = 1
Total in-flight flits = 17 (0 measured)
latency change    = 1
throughput change = 1
Class 0:
Packet latency average = 20.1129
	minimum = 7
	maximum = 45
Network latency average = 20.1129
	minimum = 7
	maximum = 45
Slowest packet = 496721
Flit latency average = 20.1129
	minimum = 7
	maximum = 45
Slowest flit = 496721
Fragmentation average = 0
	minimum = 0
	maximum = 0
Injected packet rate average = 0.0485
	minimum = 0.042 (at node 10)
	maximum = 0.056 (at node 12)
Accepted packet rate average = 0.0481562
	minimum = 0.042 (at node 10)
	maximum = 0.056 (at node 3)
Injected flit rate average = 0.0485
	minimum = 0.042 (at node 10)
	maximum = 0.056 (at node 12)
Accepted flit rate average= 0.0481562
	minimum = 0.042 (at node 10)
	maximum = 0.056 (at node 3)
Injected packet length average = 1
Accepted packet length average = 1
Total in-flight flits = 11 (0 measured)
latency change    = 0.00368689
throughput change = 0.0045425
Class 0:
Packet latency average = 20.0348
	minimum = 7
	maximum = 47
Network latency average = 20.0348
	minimum = 7
	maximum = 47
Slowest packet = 497404
Flit latency average = 20.0348
	minimum = 7
	maximum = 47
Slowest flit = 497404
Fragmentation average = 0
	minimum = 0
	maximum = 0
Injected packet rate average = 0.052
	minimum = 0.04 (at node 8)
	maximum = 0.07 (at node 12)
Accepted packet rate average = 0.052125
	minimum = 0.04 (at node 2)
	maximum = 0.068 (at node 11)
Injected flit rate average = 0.052
	minimum = 0.04 (at node 8)
	maximum = 0.07 (at node 12)
Accepted flit rate average= 0.052125
	minimum = 0.04 (at node 2)
	maximum = 0.068 (at node 11)
Injected packet length average = 1
Accepted packet length average = 1
Total in-flight flits = 9 (0 measured)
latency change    = 0.00390029
throughput change = 0.0761391
Warmed up ...Time used is 3000 cycles
Class 0:
Packet latency average = 19.3972
	minimum = 7
	maximum = 44
Network latency average = 19.3972
	minimum = 7
	maximum = 44
Slowest packet = 498179
Flit latency average = 19.4949
	minimum = 7
	maximum = 44
Slowest flit = 498179
Fragmentation average = 0
	minimum = 0
	maximum = 0
Injected packet rate average = 0.05
	minimum = 0.04 (at node 12)
	maximum = 0.061 (at node 6)
Accepted packet rate average = 0.0495
	minimum = 0.041 (at node 3)
	maximum = 0.061 (at node 9)
Injected flit rate average = 0.05
	minimum = 0.04 (at node 12)
	maximum = 0.061 (at node 6)
Accepted flit rate average= 0.0495
	minimum = 0.041 (at node 3)
	maximum = 0.061 (at node 9)
Injected packet length average = 1
Accepted packet length average = 1
Total in-flight flits = 17 (17 measured)
latency change    = 0.0328698
throughput change = 0.0530303
Class 0:
Packet latency average = 19.6421
	minimum = 7
	maximum = 45
Network latency average = 19.6421
	minimum = 7
	maximum = 45
Slowest packet = 498822
Flit latency average = 19.69
	minimum = 7
	maximum = 45
Slowest flit = 498822
Fragmentation average = 0
	minimum = 0
	maximum = 0
Injected packet rate average = 0.0494375
	minimum = 0.044 (at node 12)
	maximum = 0.0595 (at node 7)
Accepted packet rate average = 0.0490937
	minimum = 0.044 (at node 6)
	maximum = 0.06 (at node 13)
Injected flit rate average = 0.0494375
	minimum = 0.044 (at node 12)
	maximum = 0.0595 (at node 7)
Accepted flit rate average= 0.0490937
	minimum = 0.044 (at node 6)
	maximum = 0.06 (at node 13)
Injected packet length average = 1
Accepted packet length average = 1
Total in-flight flits = 20 (20 measured)
latency change    = 0.0124699
throughput change = 0.00827498
Class 0:
Packet latency average = 19.6061
	minimum = 7
	maximum = 46
Network latency average = 19.6061
	minimum = 7
	maximum = 46
Slowest packet = 499813
Flit latency average = 19.6379
	minimum = 7
	maximum = 46
Slowest flit = 499813
Fragmentation average = 0
	minimum = 0
	maximum = 0
Injected packet rate average = 0.0496458
	minimum = 0.0433333 (at node 15)
	maximum = 0.0566667 (at node 6)
Accepted packet rate average = 0.0494792
	minimum = 0.043 (at node 15)
	maximum = 0.0563333 (at node 9)
Injected flit rate average = 0.0496458
	minimum = 0.0433333 (at node 15)
	maximum = 0.0566667 (at node 6)
Accepted flit rate average= 0.0494792
	minimum = 0.043 (at node 15)
	maximum = 0.0563333 (at node 9)
Injected packet length average = 1
Accepted packet length average = 1
Total in-flight flits = 17 (17 measured)
latency change    = 0.00183817
throughput change = 0.00778947
Class 0:
Packet latency average = 19.7358
	minimum = 7
	maximum = 46
Network latency average = 19.7358
	minimum = 7
	maximum = 46
Slowest packet = 499813
Flit latency average = 19.7591
	minimum = 7
	maximum = 46
Slowest flit = 499813
Fragmentation average = 0
	minimum = 0
	maximum = 0
Injected packet rate average = 0.0500781
	minimum = 0.04325 (at node 15)
	maximum = 0.056 (at node 6)
Accepted packet rate average = 0.049875
	minimum = 0.04325 (at node 15)
	maximum = 0.056 (at node 9)
Injected flit rate average = 0.0500781
	minimum = 0.04325 (at node 15)
	maximum = 0.056 (at node 6)
Accepted flit rate average= 0.049875
	minimum = 0.04325 (at node 15)
	maximum = 0.056 (at node 9)
Injected packet length average = 1
Accepted packet length average = 1
Total in-flight flits = 22 (22 measured)
latency change    = 0.0065717
throughput change = 0.00793651
Draining all recorded packets ...
Draining remaining packets ...
Time taken is 7077 cycles
Class 0:
Packet latency average = 19.3249
	minimum = 7
	maximum = 46
Network latency average = 19.3249
	minimum = 7
	maximum = 46
Slowest packet = 501777
Flit latency average = 19.3249
	minimum = 7
	maximum = 46
Slowest flit = 501777
Fragmentation average = 0
	minimum = 0
	maximum = 0
Injected packet rate average = 0.048375
	minimum = 0.04 (at node 11)
	maximum = 0.059 (at node 4)
Accepted packet rate average = 0.0469375
	minimum = 0.04 (at node 2)
	maximum = 0.057 (at node 11)
Injected flit rate average = 0.048375
	minimum = 0.04 (at node 11)
	maximum = 0.059 (at node 4)
Accepted flit rate average= 0.0469375
	minimum = 0.04 (at node 2)
	maximum = 0.057 (at node 11)
Injected packet length average = 1
Accepted packet length average = 1
Total in-flight flits = 23 (0 measured)
latency change    = 1
throughput change = 1
Class 0:
Packet latency average = 19.3937
	minimum = 7
	maximum = 47
Network latency average = 19.3931
	minimum = 7
	maximum = 47
Slowest packet = 502602
Flit latency average = 19.3931
	minimum = 7
	maximum = 47
Slowest flit = 502602
Fragmentation average = 0
	minimum = 0
	maximum = 0
Injected packet rate average = 0.0493437
	minimum = 0.044 (at node 2)
	maximum = 0.0575 (at node 0)
Accepted packet rate average = 0.0488125
	minimum = 0.0425 (at node 13)
	maximum = 0.0575 (at node 0)
Injected flit rate average = 0.0493437
	minimum = 0.044 (at node 2)
	maximum = 0.0575 (at node 0)
Accepted flit rate average= 0.0488125
	minimum = 0.0425 (at node 13)
	maximum = 0.0575 (at node 0)
Injected packet length average = 1
Accepted packet length average = 1
Total in-flight flits = 17 (0 measured)
latency change    = 0.00354887
throughput change = 0.0384123
Class 0:
Packet latency average = 20.1608
	minimum = 7
	maximum = 55
Network latency average = 20.1608
	minimum = 7
	maximum = 55
Slowest packet = 503127
Flit latency average = 20.1608
	minimum = 7
	maximum = 55
Slowest flit = 503127
Fragmentation average = 0
	minimum = 0
	maximum = 0
Injected packet rate average = 0.0479375
	minimum = 0.042 (at node 13)
	maximum = 0.059 (at node 1)
Accepted packet rate average = 0.0478125
	minimum = 0.042 (at node 7)
	maximum = 0.059 (at node 4)
Injected flit rate average = 0.0479375
	minimum = 0.042 (at node 13)
	maximum = 0.059 (at node 1)
Accepted flit rate average= 0.0478125
	minimum = 0.042 (at node 7)
	maximum = 0.059 (at node 4)
Injected packet length average = 1
Accepted packet length average = 1
Total in-flight flits = 19 (0 measured)
latency change    = 0.038047
throughput change = 0.020915
Warmed up ...Time used is 3000 cycles
Class 0:
Packet latency average = 19.8947
	minimum = 7
	maximum = 45
Network latency average = 19.8947
	minimum = 7
	maximum = 45
Slowest packet = 503767
Flit latency average = 20.0381
	minimum = 7
	maximum = 45
Slowest flit = 503409
Fragmentation average = 0
	minimum = 0
	maximum = 0
Injected packet rate average = 0.04925
	minimum = 0.037 (at node 11)
	maximum = 0.067 (at node 13)
Accepted packet rate average = 0.04925
	minimum = 0.037 (at node 9)
	maximum = 0.067 (at node 7)
Injected flit rate average = 0.04925
	minimum = 0.037 (at node 11)
	maximum = 0.067 (at node 13)
Accepted flit rate average= 0.04925
	minimum = 0.037 (at node 9)
	maximum = 0.067 (at node 7)
Injected packet length average = 1
Accepted packet length average = 1
Total in-flight flits = 19 (19 measured)
latency change    = 0.0133762
throughput change = 0.0291878
Class 0:
Packet latency average = 19.4062
	minimum = 7
	maximum = 45
Network latency average = 19.4062
	minimum = 7
	maximum = 45
Slowest packet = 503767
Flit latency average = 19.4843
	minimum = 7
	maximum = 45
Slowest flit = 503409
Fragmentation average = 0
	minimum = 0
	maximum = 0
Injected packet rate average = 0.0488437
	minimum = 0.0375 (at node 7)
	maximum = 0.057 (at node 15)
Accepted packet rate average = 0.0489062
	minimum = 0.0395 (at node 13)
	maximum = 0.057 (at node 15)
Injected flit rate average = 0.0488437
	minimum = 0.0375 (at node 7)
	maximum = 0.057 (at node 15)
Accepted flit rate average= 0.0489062
	minimum = 0.0395 (at node 13)
	maximum = 0.057 (at node 15)
Injected packet length average = 1
Accepted packet length average = 1
Total in-flight flits = 17 (17 measured)
latency change    = 0.0251702
throughput change = 0.00702875
Class 0:
Packet latency average = 19.4042
	minimum = 7
	maximum = 45
Network latency average = 19.4042
	minimum = 7
	maximum = 45
Slowest packet = 503767
Flit latency average = 19.4559
	minimum = 7
	maximum = 45
Slowest flit = 503409
Fragmentation average = 0
	minimum = 0
	maximum = 0
Injected packet rate average = 0.0492917
	minimum = 0.0433333 (at node 1)
	maximum = 0.056 (at node 15)
Accepted packet rate average = 0.0493125
	minimum = 0.0436667 (at node 4)
	maximum = 0.056 (at node 15)
Injected flit rate average = 0.0492917
	minimum = 0.0433333 (at node 1)
	maximum = 0.056 (at node 15)
Accepted flit rate average= 0.0493125
	minimum = 0.0436667 (at node 4)
	maximum = 0.056 (at node 15)
Injected packet length average = 1
Accepted packet length average = 1
Total in-flight flits = 18 (18 measured)
latency change    = 0.000104916
throughput change = 0.00823828
Draining all recorded packets ...
Draining remaining packets ...
Time taken is 6060 cycles
Class 0:
Packet latency average = 18.99
	minimum = 7
	maximum = 44
Network latency average = 18.99
	minimum = 7
	maximum = 44
Slowest packet = 505964
Flit latency average = 18.99
	minimum = 7
	maximum = 44
Slowest flit = 505964
Fragmentation average = 0
	minimum = 0
	maximum = 0
Injected packet rate average = 0.0511875
	minimum = 0.039 (at node 3)
	maximum = 0.067 (at node 5)
Accepted packet rate average = 0.0501875
	minimum = 0.038 (at node 12)
	maximum = 0.067 (at node 5)
Injected flit rate average = 0.0511875
	minimum = 0.039 (at node 3)
	maximum = 0.067 (at node 5)
Accepted flit rate average= 0.0501875
	minimum = 0.038 (at node 12)
	maximum = 0.067 (at node 5)
Injected packet length average = 1
Accepted packet length average = 1
Total in-flight flits = 16 (0 measured)
latency change    = 1
throughput change = 1
Class 0:
Packet latency average = 19.232
	minimum = 7
	maximum = 45
Network latency average = 19.232
	minimum = 7
	maximum = 45
Slowest packet = 506868
Flit latency average = 19.232
	minimum = 7
	maximum = 45
Slowest flit = 506868
Fragmentation average = 0
	minimum = 0
	maximum = 0
Injected packet rate average = 0.0507187
	minimum = 0.0415 (at node 13)
	maximum = 0.063 (at node 4)
Accepted packet rate average = 0.05025
	minimum = 0.0405 (at node 7)
	maximum = 0.0625 (at node 1)
Injected flit rate average = 0.0507187
	minimum = 0.0415 (at node 13)
	maximum = 0.063 (at node 4)
Accepted flit rate average= 0.05025
	minimum = 0.0405 (at node 7)
	maximum = 0.0625 (at node 1)
Injected packet length average = 1
Accepted packet length average = 1
Total in-flight flits = 15 (0 measured)
latency change    = 0.0125795
throughput change = 0.00124378
Class 0:
Packet latency average = 19.6945
	minimum = 7
	maximum = 42
Network latency average = 19.6945
	minimum = 7
	maximum = 42
Slowest packet = 508018
Flit latency average = 19.6945
	minimum = 7
	maximum = 42
Slowest flit = 508018
Fragmentation average = 0
	minimum = 0
	maximum = 0
Injected packet rate average = 0.0503125
	minimum = 0.042 (at node 4)
	maximum = 0.071 (at node 13)
Accepted packet rate average = 0.050125
	minimum = 0.041 (at node 15)
	maximum = 0.069 (at node 7)
Injected flit rate average = 0.0503125
	minimum = 0.042 (at node 4)
	maximum = 0.071 (at node 13)
Accepted flit rate average= 0.050125
	minimum = 0.041 (at node 15)
	maximum = 0.069 (at node 7)
Injected packet length average = 1
Accepted packet length average = 1
Total in-flight flits = 18 (0 measured)
latency change    = 0.0234862
throughput change = 0.00249377
Warmed up ...Time used is 3000 cycles
Class 0:
Packet latency average = 19.6235
	minimum = 7
	maximum = 43
Network latency average = 19.6235
	minimum = 7
	maximum = 43
Slowest packet = 508576
Flit latency average = 19.7642
	minimum = 7
	maximum = 45
Slowest flit = 508227
Fragmentation average = 0
	minimum = 0
	maximum = 0
Injected packet rate average = 0.0533125
	minimum = 0.043 (at node 5)
	maximum = 0.064 (at node 2)
Accepted packet rate average = 0.05275
	minimum = 0.042 (at node 5)
	maximum = 0.061 (at node 0)
Injected flit rate average = 0.0533125
	minimum = 0.043 (at node 5)
	maximum = 0.064 (at node 2)
Accepted flit rate average= 0.05275
	minimum = 0.042 (at node 5)
	maximum = 0.061 (at node 0)
Injected packet length average = 1
Accepted packet length average = 1
Total in-flight flits = 27 (27 measured)
latency change    = 0.00361949
throughput change = 0.049763
Class 0:
Packet latency average = 19.9109
	minimum = 7
	maximum = 51
Network latency average = 19.9109
	minimum = 7
	maximum = 51
Slowest packet = 509498
Flit latency average = 19.9799
	minimum = 7
	maximum = 51
Slowest flit = 509498
Fragmentation average = 0
	minimum = 0
	maximum = 0
Injected packet rate average = 0.0513438
	minimum = 0.043 (at node 5)
	maximum = 0.058 (at node 2)
Accepted packet rate average = 0.0514063
	minimum = 0.043 (at node 5)
	maximum = 0.058 (at node 8)
Injected flit rate average = 0.0513438
	minimum = 0.043 (at node 5)
	maximum = 0.058 (at node 2)
Accepted flit rate average= 0.0514063
	minimum = 0.043 (at node 5)
	maximum = 0.058 (at node 8)
Injected packet length average = 1
Accepted packet length average = 1
Total in-flight flits = 16 (16 measured)
latency change    = 0.0144339
throughput change = 0.0261398
Class 0:
Packet latency average = 19.7994
	minimum = 7
	maximum = 51
Network latency average = 19.7994
	minimum = 7
	maximum = 51
Slowest packet = 509498
Flit latency average = 19.8464
	minimum = 7
	maximum = 51
Slowest flit = 509498
Fragmentation average = 0
	minimum = 0
	maximum = 0
Injected packet rate average = 0.05125
	minimum = 0.0423333 (at node 5)
	maximum = 0.057 (at node 2)
Accepted packet rate average = 0.0512708
	minimum = 0.042 (at node 5)
	maximum = 0.057 (at node 8)
Injected flit rate average = 0.05125
	minimum = 0.0423333 (at node 5)
	maximum = 0.057 (at node 2)
Accepted flit rate average= 0.0512708
	minimum = 0.042 (at node 5)
	maximum = 0.057 (at node 8)
Injected packet length average = 1
Accepted packet length average = 1
Total in-flight flits = 17 (17 measured)
latency change    = 0.00562905
throughput change = 0.0026412
Draining all recorded packets ...
Draining remaining packets ...
Time taken is 6065 cycles
====== Overall Traffic Statistics ======
====== Traffic class 0 ======
Packet latency average = 19.6697 (100 samples)
	minimum = 7 (100 samples)
	maximum = 47.66 (100 samples)
Network latency average = 19.6696 (100 samples)
	minimum = 7 (100 samples)
	maximum = 47.66 (100 samples)
Flit latency average = 19.7027 (100 samples)
	minimum = 7 (100 samples)
	maximum = 47.68 (100 samples)
Fragmentation average = 0 (100 samples)
	minimum = 0 (100 samples)
	maximum = 0 (100 samples)
Injected packet rate average = 0.0501623 (100 samples)
	minimum = 0.0433252 (100 samples)
	maximum = 0.0567993 (100 samples)
Accepted packet rate average = 0.0501713 (100 samples)
	minimum = 0.0434373 (100 samples)
	maximum = 0.0568045 (100 samples)
Injected flit rate average = 0.0501623 (100 samples)
	minimum = 0.0433252 (100 samples)
	maximum = 0.0567993 (100 samples)
Accepted flit rate average = 0.0501713 (100 samples)
	minimum = 0.0434373 (100 samples)
	maximum = 0.0568045 (100 samples)
Injected packet size average = 1 (100 samples)
Accepted packet size average = 1 (100 samples)
Hops average = 3.50031 (100 samples)
Total run time 14.5262
