BEGIN Configuration File: /tmp/tmpb5jl9_hg.cfg
topology = mesh;
k = 8; n = 2;
routing_function = planar_adapt;
num_vcs = 4; vc_buf_size = 4;
wait_for_tail_credit = 1;
vc_allocator = islip; sw_allocator = islip;
alloc_iters = 1;
credit_delay = 2; routing_delay = 1;
vc_alloc_delay = 1; sw_alloc_delay = 1;
input_speedup = 2; output_speedup = 1; internal_speedup = 1.0;
traffic = hotspot;
packet_size = 1; sim_type = latency;
injection_rate = 0.1;
warmup_periods = 3; sample_period = 1000; sim_count = 100;
seed = 3;

END Configuration File: /tmp/tmpb5jl9_hg.cfg
Class 0:
Packet latency average = 249.638
	minimum = 7
	maximum = 957
Network latency average = 150.623
	minimum = 7
	maximum = 957
Slowest packet = 79
Flit latency average = 150.623
	minimum = 7
	maximum = 957
Slowest flit = 79
Fragmentation average = 0
	minimum = 0
	maximum = 0
Injected packet rate average = 0.013625
	minimum = 0.004 (at node 43)
	maximum = 0.102 (at node 11)
Accepted packet rate average = 0.00771875
	minimum = 0 (at node 0)
	maximum = 0.494 (at node 11)
Injected flit rate average = 0.013625
	minimum = 0.004 (at node 43)
	maximum = 0.102 (at node 11)
Accepted flit rate average= 0.00771875
	minimum = 0 (at node 0)
	maximum = 0.494 (at node 11)
Injected packet length average = 1
Accepted packet length average = 1
Total in-flight flits = 441 (0 measured)
latency change    = 1
throughput change = 1
Average latency for class 0 exceeded 500 cycles. Aborting simulation.
Too many sample periods needed to converge
Simulation unstable, ending ...
Total run time 0.111384
