BEGIN Configuration File: /tmp/tmpqam1nn20.cfg
topology = mesh;
k = 4;
n = 2;
routing_function = dor;
num_vcs = 4;
vc_buf_size = 4;
wait_for_tail_credit = 1;
vc_allocator = islip;
sw_allocator = islip;
alloc_iters = 1;
credit_delay = 2;
routing_delay = 1;
vc_alloc_delay = 1;
sw_alloc_delay = 1;
input_speedup = 2;
output_speedup = 1;
internal_speedup = 1.0;
traffic = transpose;
packet_size = 1;
sim_type = latency;
injection_rate = 0.05;
warmup_periods = 3;
sample_period = 1000;
sim_count = 100;
seed = 1;

END Configuration File: /tmp/tmpqam1nn20.cfg
Class 0:
Packet latency average = 19.4433
	minimum = 7
	maximum = 44
Network latency average = 19.4433
	minimum = 7
	maximum = 44
Slowest packet = 607
Flit latency average = 19.4433
	minimum = 7
	maximum = 44
Slowest flit = 607
Fragmentation average = 0
	minimum = 0
	maximum = 0
Injected packet rate average = 0.0505
	minimum = 0.038 (at node 9)
	maximum = 0.073 (at node 1)
Accepted packet rate average = 0.049625
	minimum = 0.036 (at node 6)
	maximum = 0.072 (at node 4)
Injected flit rate average = 0.0505
	minimum = 0.038 (at node 9)
	maximum = 0.073 (at node 1)
Accepted flit rate average= 0.049625
	minimum = 0.036 (at node 6)
	maximum = 0.072 (at node 4)
Injected packet length average = 1
Accepted packet length average = 1
Total in-flight flits = 14 (0 measured)
latency change    = 1
throughput change = 1
Class 0:
Packet latency average = 19.5504
	minimum = 7
	maximum = 45
Network latency average = 19.5504
	minimum = 7
	maximum = 45
Slowest packet = 920
Flit latency average = 19.5504
	minimum = 7
	maximum = 45
Slowest flit = 920
Fragmentation average = 0
	minimum = 0
	maximum = 0
Injected packet rate average = 0.0509688
	minimum = 0.0425 (at node 3)
	maximum = 0.064 (at node 1)
Accepted packet rate average = 0.0505312
	minimum = 0.042 (at node 12)
	maximum = 0.063 (at node 4)
Injected flit rate average = 0.0509688
	minimum = 0.0425 (at node 3)
	maximum = 0.064 (at node 1)
Accepted flit rate average= 0.0505312
	minimum = 0.042 (at node 12)
	maximum = 0.063 (at node 4)
Injected packet length average = 1
Accepted packet length average = 1
Total in-flight flits = 14 (0 measured)
latency change    = 0.00547697
throughput change = 0.0179344
Class 0:
Packet latency average = 19.6505
	minimum = 7
	maximum = 42
Network latency average = 19.6505
	minimum = 7
	maximum = 42
Slowest packet = 2418
Flit latency average = 19.6505
	minimum = 7
	maximum = 42
Slowest flit = 2418
Fragmentation average = 0
	minimum = 0
	maximum = 0
Injected packet rate average = 0.0524375
	minimum = 0.042 (at node 0)
	maximum = 0.064 (at node 1)
Accepted packet rate average = 0.05275
	minimum = 0.042 (at node 0)
	maximum = 0.064 (at node 4)
Injected flit rate average = 0.0524375
	minimum = 0.042 (at node 0)
	maximum = 0.064 (at node 1)
Accepted flit rate average= 0.05275
	minimum = 0.042 (at node 0)
	maximum = 0.064 (at node 4)
Injected packet length average = 1
Accepted packet length average = 1
Total in-flight flits = 9 (0 measured)
latency change    = 0.0050926
throughput change = 0.0420616
Warmed up ...Time used is 3000 cycles
Class 0:
Packet latency average = 19.3699
	minimum = 7
	maximum = 41
Network latency average = 19.3687
	minimum = 7
	maximum = 41
Slowest packet = 2499
Flit latency average = 19.417
	minimum = 7
	maximum = 41
Slowest flit = 2499
Fragmentation average = 0
	minimum = 0
	maximum = 0
Injected packet rate average = 0.05075
	minimum = 0.041 (at node 6)
	maximum = 0.065 (at node 5)
Accepted packet rate average = 0.0500625
	minimum = 0.037 (at node 9)
	maximum = 0.066 (at node 5)
Injected flit rate average = 0.05075
	minimum = 0.041 (at node 6)
	maximum = 0.065 (at node 5)
Accepted flit rate average= 0.0500625
	minimum = 0.037 (at node 9)
	maximum = 0.066 (at node 5)
Injected packet length average = 1
Accepted packet length average = 1
Total in-flight flits = 20 (20 measured)
latency change    = 0.0144825
throughput change = 0.0536829
Class 0:
Packet latency average = 19.8633
	minimum = 7
	maximum = 41
Network latency average = 19.8627
	minimum = 7
	maximum = 41
Slowest packet = 2499
Flit latency average = 19.8834
	minimum = 7
	maximum = 41
Slowest flit = 2499
Fragmentation average = 0
	minimum = 0
	maximum = 0
Injected packet rate average = 0.0520938
	minimum = 0.0415 (at node 6)
	maximum = 0.0615 (at node 2)
Accepted packet rate average = 0.0517188
	minimum = 0.0405 (at node 9)
	maximum = 0.061 (at node 5)
Injected flit rate average = 0.0520938
	minimum = 0.0415 (at node 6)
	maximum = 0.0615 (at node 2)
Accepted flit rate average= 0.0517188
	minimum = 0.0405 (at node 9)
	maximum = 0.061 (at node 5)
Injected packet length average = 1
Accepted packet length average = 1
Total in-flight flits = 21 (21 measured)
latency change    = 0.0248375
throughput change = 0.0320242
Class 0:
Packet latency average = 19.7351
	minimum = 7
	maximum = 47
Network latency average = 19.7347
	minimum = 7
	maximum = 47
Slowest packet = 4879
Flit latency average = 19.7492
	minimum = 7
	maximum = 47
Slowest flit = 4879
Fragmentation average = 0
	minimum = 0
	maximum = 0
Injected packet rate average = 0.0512708
	minimum = 0.0443333 (at node 11)
	maximum = 0.0606667 (at node 5)
Accepted packet rate average = 0.051
	minimum = 0.0443333 (at node 14)
	maximum = 0.0606667 (at node 5)
Injected flit rate average = 0.0512708
	minimum = 0.0443333 (at node 11)
	maximum = 0.0606667 (at node 5)
Accepted flit rate average= 0.051
	minimum = 0.0443333 (at node 14)
	maximum = 0.0606667 (at node 5)
Injected packet length average = 1
Accepted packet length average = 1
Total in-flight flits = 22 (22 measured)
latency change    = 0.00649439
throughput change = 0.0140931
Class 0:
Packet latency average = 19.661
	minimum = 7
	maximum = 47
Network latency average = 19.6607
	minimum = 7
	maximum = 47
Slowest packet = 4879
Flit latency average = 19.6718
	minimum = 7
	maximum = 47
Slowest flit = 4879
Fragmentation average = 0
	minimum = 0
	maximum = 0
Injected packet rate average = 0.0509844
	minimum = 0.045 (at node 11)
	maximum = 0.06 (at node 2)
Accepted packet rate average = 0.0508906
	minimum = 0.04475 (at node 14)
	maximum = 0.05925 (at node 8)
Injected flit rate average = 0.0509844
	minimum = 0.045 (at node 11)
	maximum = 0.06 (at node 2)
Accepted flit rate average= 0.0508906
	minimum = 0.04475 (at node 14)
	maximum = 0.05925 (at node 8)
Injected packet length average = 1
Accepted packet length average = 1
Total in-flight flits = 15 (15 measured)
latency change    = 0.00376965
throughput change = 0.00214922
Draining all recorded packets ...
Draining remaining packets ...
Time taken is 7064 cycles
Class 0:
Packet latency average = 19.5689
	minimum = 7
	maximum = 38
Network latency average = 19.5689
	minimum = 7
	maximum = 38
Slowest packet = 5807
Flit latency average = 19.5689
	minimum = 7
	maximum = 38
Slowest flit = 5807
Fragmentation average = 0
	minimum = 0
	maximum = 0
Injected packet rate average = 0.049375
	minimum = 0.041 (at node 12)
	maximum = 0.064 (at node 4)
Accepted packet rate average = 0.0485625
	minimum = 0.041 (at node 3)
	maximum = 0.062 (at node 1)
Injected flit rate average = 0.049375
	minimum = 0.041 (at node 12)
	maximum = 0.064 (at node 4)
Accepted flit rate average= 0.0485625
	minimum = 0.041 (at node 3)
	maximum = 0.062 (at node 1)
Injected packet length average = 1
Accepted packet length average = 1
Total in-flight flits = 13 (0 measured)
latency change    = 1
throughput change = 1
Class 0:
Packet latency average = 19.6273
	minimum = 7
	maximum = 43
Network latency average = 19.6273
	minimum = 7
	maximum = 43
Slowest packet = 6774
Flit latency average = 19.6273
	minimum = 7
	maximum = 43
Slowest flit = 6774
Fragmentation average = 0
	minimum = 0
	maximum = 0
Injected packet rate average = 0.0490937
	minimum = 0.0425 (at node 10)
	maximum = 0.054 (at node 14)
Accepted packet rate average = 0.0484687
	minimum = 0.042 (at node 10)
	maximum = 0.053 (at node 1)
Injected flit rate average = 0.0490937
	minimum = 0.0425 (at node 10)
	maximum = 0.054 (at node 14)
Accepted flit rate average= 0.0484687
	minimum = 0.042 (at node 10)
	maximum = 0.053 (at node 1)
Injected packet length average = 1
Accepted packet length average = 1
Total in-flight flits = 20 (0 measured)
latency change    = 0.00297965
throughput change = 0.00193424
Class 0:
Packet latency average = 19.2914
	minimum = 7
	maximum = 43
Network latency average = 19.2914
	minimum = 7
	maximum = 43
Slowest packet = 7314
Flit latency average = 19.2914
	minimum = 7
	maximum = 43
Slowest flit = 7314
Fragmentation average = 0
	minimum = 0
	maximum = 0
Injected packet rate average = 0.0501875
	minimum = 0.033 (at node 3)
	maximum = 0.07 (at node 14)
Accepted packet rate average = 0.0501875
	minimum = 0.035 (at node 12)
	maximum = 0.07 (at node 11)
Injected flit rate average = 0.0501875
	minimum = 0.033 (at node 3)
	maximum = 0.07 (at node 14)
Accepted flit rate average= 0.0501875
	minimum = 0.035 (at node 12)
	maximum = 0.07 (at node 11)
Injected packet length average = 1
Accepted packet length average = 1
Total in-flight flits = 20 (0 measured)
latency change    = 0.0174135
throughput change = 0.0342466
Warmed up ...Time used is 3000 cycles
Class 0:
Packet latency average = 19.3235
	minimum = 7
	maximum = 43
Network latency average = 19.3235
	minimum = 7
	maximum = 43
Slowest packet = 8228
Flit latency average = 19.4219
	minimum = 7
	maximum = 43
Slowest flit = 8228
Fragmentation average = 0
	minimum = 0
	maximum = 0
Injected packet rate average = 0.04775
	minimum = 0.037 (at node 7)
	maximum = 0.056 (at node 6)
Accepted packet rate average = 0.048
	minimum = 0.04 (at node 13)
	maximum = 0.059 (at node 6)
Injected flit rate average = 0.04775
	minimum = 0.037 (at node 7)
	maximum = 0.056 (at node 6)
Accepted flit rate average= 0.048
	minimum = 0.04 (at node 13)
	maximum = 0.059 (at node 6)
Injected packet length average = 1
Accepted packet length average = 1
Total in-flight flits = 16 (16 measured)
latency change    = 0.00166234
throughput change = 0.0455729
Class 0:
Packet latency average = 19.5356
	minimum = 7
	maximum = 43
Network latency average = 19.5356
	minimum = 7
	maximum = 43
Slowest packet = 8228
Flit latency average = 19.5817
	minimum = 7
	maximum = 43
Slowest flit = 8228
Fragmentation average = 0
	minimum = 0
	maximum = 0
Injected packet rate average = 0.0484375
	minimum = 0.0415 (at node 0)
	maximum = 0.0605 (at node 9)
Accepted packet rate average = 0.0484062
	minimum = 0.0415 (at node 0)
	maximum = 0.062 (at node 6)
Injected flit rate average = 0.0484375
	minimum = 0.0415 (at node 0)
	maximum = 0.0605 (at node 9)
Accepted flit rate average= 0.0484062
	minimum = 0.0415 (at node 0)
	maximum = 0.062 (at node 6)
Injected packet length average = 1
Accepted packet length average = 1
Total in-flight flits = 21 (21 measured)
latency change    = 0.0108578
throughput change = 0.00839251
Class 0:
Packet latency average = 19.6023
	minimum = 7
	maximum = 43
Network latency average = 19.6023
	minimum = 7
	maximum = 43
Slowest packet = 8228
Flit latency average = 19.6325
	minimum = 7
	maximum = 43
Slowest flit = 8228
Fragmentation average = 0
	minimum = 0
	maximum = 0
Injected packet rate average = 0.0483542
	minimum = 0.0416667 (at node 0)
	maximum = 0.0573333 (at node 9)
Accepted packet rate average = 0.0483542
	minimum = 0.0413333 (at node 0)
	maximum = 0.0583333 (at node 6)
Injected flit rate average = 0.0483542
	minimum = 0.0416667 (at node 0)
	maximum = 0.0573333 (at node 9)
Accepted flit rate average= 0.0483542
	minimum = 0.0413333 (at node 0)
	maximum = 0.0583333 (at node 6)
Injected packet length average = 1
Accepted packet length average = 1
Total in-flight flits = 20 (20 measured)
latency change    = 0.00340279
throughput change = 0.00107712
Draining all recorded packets ...
Draining remaining packets ...
Time taken is 6064 cycles
Class 0:
Packet latency average = 19.1041
	minimum = 7
	maximum = 39
Network latency average = 19.1041
	minimum = 7
	maximum = 39
Slowest packet = 10605
Flit latency average = 19.1041
	minimum = 7
	maximum = 39
Slowest flit = 10605
Fragmentation average = 0
	minimum = 0
	maximum = 0
Injected packet rate average = 0.04725
	minimum = 0.037 (at node 7)
	maximum = 0.057 (at node 1)
Accepted packet rate average = 0.04625
	minimum = 0.035 (at node 13)
	maximum = 0.057 (at node 4)
Injected flit rate average = 0.04725
	minimum = 0.037 (at node 7)
	maximum = 0.057 (at node 1)
Accepted flit rate average= 0.04625
	minimum = 0.035 (at node 13)
	maximum = 0.057 (at node 4)
Injected packet length average = 1
Accepted packet length average = 1
Total in-flight flits = 16 (0 measured)
latency change    = 1
throughput change = 1
Class 0:
Packet latency average = 19.6474
	minimum = 7
	maximum = 49
Network latency average = 19.6474
	minimum = 7
	maximum = 49
Slowest packet = 11698
Flit latency average = 19.6474
	minimum = 7
	maximum = 49
Slowest flit = 11698
Fragmentation average = 0
	minimum = 0
	maximum = 0
Injected packet rate average = 0.0490312
	minimum = 0.04 (at node 15)
	maximum = 0.0585 (at node 12)
Accepted packet rate average = 0.0486562
	minimum = 0.04 (at node 15)
	maximum = 0.0575 (at node 3)
Injected flit rate average = 0.0490312
	minimum = 0.04 (at node 15)
	maximum = 0.0585 (at node 12)
Accepted flit rate average= 0.0486562
	minimum = 0.04 (at node 15)
	maximum = 0.0575 (at node 3)
Injected packet length average = 1
Accepted packet length average = 1
Total in-flight flits = 12 (0 measured)
latency change    = 0.0276548
throughput change = 0.0494541
Class 0:
Packet latency average = 19.5531
	minimum = 7
	maximum = 39
Network latency average = 19.5531
	minimum = 7
	maximum = 39
Slowest packet = 12784
Flit latency average = 19.5531
	minimum = 7
	maximum = 39
Slowest flit = 12784
Fragmentation average = 0
	minimum = 0
	maximum = 0
Injected packet rate average = 0.0508125
	minimum = 0.039 (at node 9)
	maximum = 0.07 (at node 2)
Accepted packet rate average = 0.050625
	minimum = 0.041 (at node 6)
	maximum = 0.07 (at node 8)
Injected flit rate average = 0.0508125
	minimum = 0.039 (at node 9)
	maximum = 0.07 (at node 2)
Accepted flit rate average= 0.050625
	minimum = 0.041 (at node 6)
	maximum = 0.07 (at node 8)
Injected packet length average = 1
Accepted packet length average = 1
Total in-flight flits = 15 (0 measured)
latency change    = 0.0048234
throughput change = 0.0388889
Warmed up ...Time used is 3000 cycles
Class 0:
Packet latency average = 19.3175
	minimum = 7
	maximum = 39
Network latency average = 19.3175
	minimum = 7
	maximum = 39
Slowest packet = 13434
Flit latency average = 19.3501
	minimum = 7
	maximum = 39
Slowest flit = 13434
Fragmentation average = 0
	minimum = 0
	maximum = 0
Injected packet rate average = 0.0485
	minimum = 0.04 (at node 8)
	maximum = 0.061 (at node 15)
Accepted packet rate average = 0.048375
	minimum = 0.041 (at node 1)
	maximum = 0.06 (at node 15)
Injected flit rate average = 0.0485
	minimum = 0.04 (at node 8)
	maximum = 0.061 (at node 15)
Accepted flit rate average= 0.048375
	minimum = 0.041 (at node 1)
	maximum = 0.06 (at node 15)
Injected packet length average = 1
Accepted packet length average = 1
Total in-flight flits = 17 (17 measured)
latency change    = 0.0121943
throughput change = 0.0465116
Class 0:
Packet latency average = 19.3357
	minimum = 7
	maximum = 46
Network latency average = 19.3357
	minimum = 7
	maximum = 46
Slowest packet = 14345
Flit latency average = 19.3518
	minimum = 7
	maximum = 46
Slowest flit = 14345
Fragmentation average = 0
	minimum = 0
	maximum = 0
Injected packet rate average = 0.0488125
	minimum = 0.0395 (at node 8)
	maximum = 0.0555 (at node 12)
Accepted packet rate average = 0.0485937
	minimum = 0.0395 (at node 2)
	maximum = 0.054 (at node 15)
Injected flit rate average = 0.0488125
	minimum = 0.0395 (at node 8)
	maximum = 0.0555 (at node 12)
Accepted flit rate average= 0.0485937
	minimum = 0.0395 (at node 2)
	maximum = 0.054 (at node 15)
Injected packet length average = 1
Accepted packet length average = 1
Total in-flight flits = 22 (22 measured)
latency change    = 0.00094081
throughput change = 0.00450161
Class 0:
Packet latency average = 19.5496
	minimum = 7
	maximum = 46
Network latency average = 19.5496
	minimum = 7
	maximum = 46
Slowest packet = 14345
Flit latency average = 19.5588
	minimum = 7
	maximum = 46
Slowest flit = 14345
Fragmentation average = 0
	minimum = 0
	maximum = 0
Injected packet rate average = 0.0493333
	minimum = 0.0396667 (at node 8)
	maximum = 0.056 (at node 12)
Accepted packet rate average = 0.0494375
	minimum = 0.0406667 (at node 2)
	maximum = 0.0556667 (at node 3)
Injected flit rate average = 0.0493333
	minimum = 0.0396667 (at node 8)
	maximum = 0.056 (at node 12)
Accepted flit rate average= 0.0494375
	minimum = 0.0406667 (at node 2)
	maximum = 0.0556667 (at node 3)
Injected packet length average = 1
Accepted packet length average = 1
Total in-flight flits = 10 (10 measured)
latency change    = 0.0109416
throughput change = 0.017067
Draining all recorded packets ...
Draining remaining packets ...
Time taken is 6074 cycles
Class 0:
Packet latency average = 19.2718
	minimum = 7
	maximum = 43
Network latency average = 19.2718
	minimum = 7
	maximum = 43
Slowest packet = 15258
Flit latency average = 19.2718
	minimum = 7
	maximum = 43
Slowest flit = 15258
Fragmentation average = 0
	minimum = 0
	maximum = 0
Injected packet rate average = 0.0485625
	minimum = 0.035 (at node 8)
	maximum = 0.064 (at node 9)
Accepted packet rate average = 0.047375
	minimum = 0.033 (at node 2)
	maximum = 0.063 (at node 1)
Injected flit rate average = 0.0485625
	minimum = 0.035 (at node 8)
	maximum = 0.064 (at node 9)
Accepted flit rate average= 0.047375
	minimum = 0.033 (at node 2)
	maximum = 0.063 (at node 1)
Injected packet length average = 1
Accepted packet length average = 1
Total in-flight flits = 19 (0 measured)
latency change    = 1
throughput change = 1
Class 0:
Packet latency average = 19.1544
	minimum = 7
	maximum = 43
Network latency average = 19.1544
	minimum = 7
	maximum = 43
Slowest packet = 15258
Flit latency average = 19.1544
	minimum = 7
	maximum = 43
Slowest flit = 15258
Fragmentation average = 0
	minimum = 0
	maximum = 0
Injected packet rate average = 0.048875
	minimum = 0.036 (at node 3)
	maximum = 0.057 (at node 4)
Accepted packet rate average = 0.048375
	minimum = 0.0355 (at node 12)
	maximum = 0.057 (at node 1)
Injected flit rate average = 0.048875
	minimum = 0.036 (at node 3)
	maximum = 0.057 (at node 4)
Accepted flit rate average= 0.048375
	minimum = 0.0355 (at node 12)
	maximum = 0.057 (at node 1)
Injected packet length average = 1
Accepted packet length average = 1
Total in-flight flits = 16 (0 measured)
latency change    = 0.00612784
throughput change = 0.0206718
Class 0:
Packet latency average = 19.7812
	minimum = 7
	maximum = 46
Network latency average = 19.7812
	minimum = 7
	maximum = 46
Slowest packet = 16921
Flit latency average = 19.7812
	minimum = 7
	maximum = 46
Slowest flit = 16921
Fragmentation average = 0
	minimum = 0
	maximum = 0
Injected packet rate average = 0.052375
	minimum = 0.035 (at node 6)
	maximum = 0.063 (at node 15)
Accepted packet rate average = 0.0525625
	minimum = 0.036 (at node 9)
	maximum = 0.062 (at node 3)
Injected flit rate average = 0.052375
	minimum = 0.035 (at node 6)
	maximum = 0.063 (at node 15)
Accepted flit rate average= 0.0525625
	minimum = 0.036 (at node 9)
	maximum = 0.062 (at node 3)
Injected packet length average = 1
Accepted packet length average = 1
Total in-flight flits = 13 (0 measured)
latency change    = 0.0316876
throughput change = 0.0796671
Warmed up ...Time used is 3000 cycles
Class 0:
Packet latency average = 19.832
	minimum = 7
	maximum = 41
Network latency average = 19.832
	minimum = 7
	maximum = 41
Slowest packet = 17723
Flit latency average = 19.8615
	minimum = 7
	maximum = 41
Slowest flit = 17723
Fragmentation average = 0
	minimum = 0
	maximum = 0
Injected packet rate average = 0.0494375
	minimum = 0.036 (at node 11)
	maximum = 0.061 (at node 2)
Accepted packet rate average = 0.0491875
	minimum = 0.037 (at node 14)
	maximum = 0.06 (at node 6)
Injected flit rate average = 0.0494375
	minimum = 0.036 (at node 11)
	maximum = 0.061 (at node 2)
Accepted flit rate average= 0.0491875
	minimum = 0.037 (at node 14)
	maximum = 0.06 (at node 6)
Injected packet length average = 1
Accepted packet length average = 1
Total in-flight flits = 17 (17 measured)
latency change    = 0.00256295
throughput change = 0.068615
Class 0:
Packet latency average = 19.8016
	minimum = 7
	maximum = 41
Network latency average = 19.8016
	minimum = 7
	maximum = 41
Slowest packet = 17723
Flit latency average = 19.8161
	minimum = 7
	maximum = 41
Slowest flit = 17723
Fragmentation average = 0
	minimum = 0
	maximum = 0
Injected packet rate average = 0.05075
	minimum = 0.0425 (at node 0)
	maximum = 0.062 (at node 2)
Accepted packet rate average = 0.0508125
	minimum = 0.0425 (at node 0)
	maximum = 0.062 (at node 8)
Injected flit rate average = 0.05075
	minimum = 0.0425 (at node 0)
	maximum = 0.062 (at node 2)
Accepted flit rate average= 0.0508125
	minimum = 0.0425 (at node 0)
	maximum = 0.062 (at node 8)
Injected packet length average = 1
Accepted packet length average = 1
Total in-flight flits = 11 (11 measured)
latency change    = 0.00153672
throughput change = 0.0319803
Class 0:
Packet latency average = 19.5311
	minimum = 7
	maximum = 42
Network latency average = 19.5311
	minimum = 7
	maximum = 42
Slowest packet = 19394
Flit latency average = 19.5421
	minimum = 7
	maximum = 42
Slowest flit = 19394
Fragmentation average = 0
	minimum = 0
	maximum = 0
Injected packet rate average = 0.0512292
	minimum = 0.046 (at node 0)
	maximum = 0.0586667 (at node 5)
Accepted packet rate average = 0.0511875
	minimum = 0.0456667 (at node 0)
	maximum = 0.0586667 (at node 5)
Injected flit rate average = 0.0512292
	minimum = 0.046 (at node 0)
	maximum = 0.0586667 (at node 5)
Accepted flit rate average= 0.0511875
	minimum = 0.0456667 (at node 0)
	maximum = 0.0586667 (at node 5)
Injected packet length average = 1
Accepted packet length average = 1
Total in-flight flits = 15 (15 measured)
latency change    = 0.0138505
throughput change = 0.00732601
Class 0:
Packet latency average = 19.4168
	minimum = 7
	maximum = 43
Network latency average = 19.4168
	minimum = 7
	maximum = 43
Slowest packet = 20824
Flit latency average = 19.4256
	minimum = 7
	maximum = 43
Slowest flit = 20824
Fragmentation average = 0
	minimum = 0
	maximum = 0
Injected packet rate average = 0.0506094
	minimum = 0.046 (at node 14)
	maximum = 0.05825 (at node 5)
Accepted packet rate average = 0.050625
	minimum = 0.046 (at node 11)
	maximum = 0.05775 (at node 5)
Injected flit rate average = 0.0506094
	minimum = 0.046 (at node 14)
	maximum = 0.05825 (at node 5)
Accepted flit rate average= 0.050625
	minimum = 0.046 (at node 11)
	maximum = 0.05775 (at node 5)
Injected packet length average = 1
Accepted packet length average = 1
Total in-flight flits = 12 (12 measured)
latency change    = 0.0058867
throughput change = 0.0111111
Draining all recorded packets ...
Draining remaining packets ...
Time taken is 7071 cycles
Class 0:
Packet latency average = 20.1467
	minimum = 7
	maximum = 40
Network latency average = 20.1467
	minimum = 7
	maximum = 40
Slowest packet = 21241
Flit latency average = 20.1467
	minimum = 7
	maximum = 40
Slowest flit = 21241
Fragmentation average = 0
	minimum = 0
	maximum = 0
Injected packet rate average = 0.05175
	minimum = 0.037 (at node 15)
	maximum = 0.068 (at node 7)
Accepted packet rate average = 0.0506875
	minimum = 0.036 (at node 15)
	maximum = 0.064 (at node 13)
Injected flit rate average = 0.05175
	minimum = 0.037 (at node 15)
	maximum = 0.068 (at node 7)
Accepted flit rate average= 0.0506875
	minimum = 0.036 (at node 15)
	maximum = 0.064 (at node 13)
Injected packet length average = 1
Accepted packet length average = 1
Total in-flight flits = 17 (0 measured)
latency change    = 1
throughput change = 1
Class 0:
Packet latency average = 19.8012
	minimum = 7
	maximum = 43
Network latency average = 19.8012
	minimum = 7
	maximum = 43
Slowest packet = 22263
Flit latency average = 19.8012
	minimum = 7
	maximum = 43
Slowest flit = 22263
Fragmentation average = 0
	minimum = 0
	maximum = 0
Injected packet rate average = 0.0512813
	minimum = 0.0445 (at node 12)
	maximum = 0.062 (at node 11)
Accepted packet rate average = 0.0507812
	minimum = 0.0445 (at node 3)
	maximum = 0.0615 (at node 14)
Injected flit rate average = 0.0512813
	minimum = 0.0445 (at node 12)
	maximum = 0.062 (at node 11)
Accepted flit rate average= 0.0507812
	minimum = 0.0445 (at node 3)
	maximum = 0.0615 (at node 14)
Injected packet length average = 1
Accepted packet length average = 1
Total in-flight flits = 16 (0 measured)
latency change    = 0.0174485
throughput change = 0.00184615
Class 0:
Packet latency average = 19.8544
	minimum = 7
	maximum = 42
Network latency average = 19.8544
	minimum = 7
	maximum = 42
Slowest packet = 23260
Flit latency average = 19.8544
	minimum = 7
	maximum = 42
Slowest flit = 23260
Fragmentation average = 0
	minimum = 0
	maximum = 0
Injected packet rate average = 0.0490625
	minimum = 0.04 (at node 5)
	maximum = 0.06 (at node 14)
Accepted packet rate average = 0.049375
	minimum = 0.04 (at node 5)
	maximum = 0.059 (at node 11)
Injected flit rate average = 0.0490625
	minimum = 0.04 (at node 5)
	maximum = 0.06 (at node 14)
Accepted flit rate average= 0.049375
	minimum = 0.04 (at node 5)
	maximum = 0.059 (at node 11)
Injected packet length average = 1
Accepted packet length average = 1
Total in-flight flits = 11 (0 measured)
latency change    = 0.00267948
throughput change = 0.028481
Warmed up ...Time used is 3000 cycles
Class 0:
Packet latency average = 19.5909
	minimum = 7
	maximum = 42
Network latency average = 19.5909
	minimum = 7
	maximum = 42
Slowest packet = 23456
Flit latency average = 19.6398
	minimum = 7
	maximum = 42
Slowest flit = 23456
Fragmentation average = 0
	minimum = 0
	maximum = 0
Injected packet rate average = 0.0543125
	minimum = 0.045 (at node 1)
	maximum = 0.07 (at node 8)
Accepted packet rate average = 0.0543125
	minimum = 0.044 (at node 10)
	maximum = 0.068 (at node 2)
Injected flit rate average = 0.0543125
	minimum = 0.045 (at node 1)
	maximum = 0.07 (at node 8)
Accepted flit rate average= 0.0543125
	minimum = 0.044 (at node 10)
	maximum = 0.068 (at node 2)
Injected packet length average = 1
Accepted packet length average = 1
Total in-flight flits = 11 (11 measured)
latency change    = 0.0134512
throughput change = 0.0909091
Class 0:
Packet latency average = 19.6281
	minimum = 7
	maximum = 47
Network latency average = 19.6281
	minimum = 7
	maximum = 47
Slowest packet = 24413
Flit latency average = 19.6524
	minimum = 7
	maximum = 47
Slowest flit = 24413
Fragmentation average = 0
	minimum = 0
	maximum = 0
Injected packet rate average = 0.0541563
	minimum = 0.0445 (at node 5)
	maximum = 0.0615 (at node 14)
Accepted packet rate average = 0.0540313
	minimum = 0.0445 (at node 5)
	maximum = 0.0615 (at node 11)
Injected flit rate average = 0.0541563
	minimum = 0.0445 (at node 5)
	maximum = 0.0615 (at node 14)
Accepted flit rate average= 0.0540313
	minimum = 0.0445 (at node 5)
	maximum = 0.0615 (at node 11)
Injected packet length average = 1
Accepted packet length average = 1
Total in-flight flits = 15 (15 measured)
latency change    = 0.00189254
throughput change = 0.00520532
Class 0:
Packet latency average = 19.6023
	minimum = 7
	maximum = 47
Network latency average = 19.6023
	minimum = 7
	maximum = 47
Slowest packet = 24413
Flit latency average = 19.6191
	minimum = 7
	maximum = 47
Slowest flit = 24413
Fragmentation average = 0
	minimum = 0
	maximum = 0
Injected packet rate average = 0.0526875
	minimum = 0.0433333 (at node 5)
	maximum = 0.0593333 (at node 13)
Accepted packet rate average = 0.0525625
	minimum = 0.0433333 (at node 5)
	maximum = 0.0586667 (at node 7)
Injected flit rate average = 0.0526875
	minimum = 0.0433333 (at node 5)
	maximum = 0.0593333 (at node 13)
Accepted flit rate average= 0.0525625
	minimum = 0.0433333 (at node 5)
	maximum = 0.0586667 (at node 7)
Injected packet length average = 1
Accepted packet length average = 1
Total in-flight flits = 17 (17 measured)
latency change    = 0.00131347
throughput change = 0.0279429
Class 0:
Packet latency average = 19.6851
	minimum = 7
	maximum = 47
Network latency average = 19.6851
	minimum = 7
	maximum = 47
Slowest packet = 24413
Flit latency average = 19.6976
	minimum = 7
	maximum = 47
Slowest flit = 24413
Fragmentation average = 0
	minimum = 0
	maximum = 0
Injected packet rate average = 0.0519531
	minimum = 0.043 (at node 5)
	maximum = 0.05625 (at node 13)
Accepted packet rate average = 0.051875
	minimum = 0.043 (at node 5)
	maximum = 0.05625 (at node 11)
Injected flit rate average = 0.0519531
	minimum = 0.043 (at node 5)
	maximum = 0.05625 (at node 13)
Accepted flit rate average= 0.051875
	minimum = 0.043 (at node 5)
	maximum = 0.05625 (at node 11)
Injected packet length average = 1
Accepted packet length average = 1
Total in-flight flits = 16 (16 measured)
latency change    = 0.00420584
throughput change = 0.013253
Draining all recorded packets ...
Draining remaining packets ...
Time taken is 7061 cycles
Class 0:
Packet latency average = 19.0507
	minimum = 7
	maximum = 44
Network latency average = 19.0507
	minimum = 7
	maximum = 44
Slowest packet = 27031
Flit latency average = 19.0507
	minimum = 7
	maximum = 44
Slowest flit = 27031
Fragmentation average = 0
	minimum = 0
	maximum = 0
Injected packet rate average = 0.0511875
	minimum = 0.038 (at node 13)
	maximum = 0.065 (at node 15)
Accepted packet rate average = 0.0505
	minimum = 0.038 (at node 7)
	maximum = 0.065 (at node 15)
Injected flit rate average = 0.0511875
	minimum = 0.038 (at node 13)
	maximum = 0.065 (at node 15)
Accepted flit rate average= 0.0505
	minimum = 0.038 (at node 7)
	maximum = 0.065 (at node 15)
Injected packet length average = 1
Accepted packet length average = 1
Total in-flight flits = 11 (0 measured)
latency change    = 1
throughput change = 1
Class 0:
Packet latency average = 19.6373
	minimum = 7
	maximum = 44
Network latency average = 19.6373
	minimum = 7
	maximum = 44
Slowest packet = 27031
Flit latency average = 19.6373
	minimum = 7
	maximum = 44
Slowest flit = 27031
Fragmentation average = 0
	minimum = 0
	maximum = 0
Injected packet rate average = 0.050875
	minimum = 0.0435 (at node 9)
	maximum = 0.064 (at node 8)
Accepted packet rate average = 0.0504062
	minimum = 0.043 (at node 6)
	maximum = 0.064 (at node 2)
Injected flit rate average = 0.050875
	minimum = 0.0435 (at node 9)
	maximum = 0.064 (at node 8)
Accepted flit rate average= 0.0504062
	minimum = 0.043 (at node 6)
	maximum = 0.064 (at node 2)
Injected packet length average = 1
Accepted packet length average = 1
Total in-flight flits = 15 (0 measured)
latency change    = 0.0298706
throughput change = 0.00185989
Class 0:
Packet latency average = 19.9913
	minimum = 7
	maximum = 43
Network latency average = 19.9913
	minimum = 7
	maximum = 43
Slowest packet = 28572
Flit latency average = 19.9913
	minimum = 7
	maximum = 43
Slowest flit = 28572
Fragmentation average = 0
	minimum = 0
	maximum = 0
Injected packet rate average = 0.0506875
	minimum = 0.038 (at node 11)
	maximum = 0.066 (at node 10)
Accepted packet rate average = 0.050375
	minimum = 0.038 (at node 14)
	maximum = 0.063 (at node 10)
Injected flit rate average = 0.0506875
	minimum = 0.038 (at node 11)
	maximum = 0.066 (at node 10)
Accepted flit rate average= 0.050375
	minimum = 0.038 (at node 14)
	maximum = 0.063 (at node 10)
Injected packet length average = 1
Accepted packet length average = 1
Total in-flight flits = 20 (0 measured)
latency change    = 0.0177074
throughput change = 0.000620347
Warmed up ...Time used is 3000 cycles
Class 0:
Packet latency average = 18.8816
	minimum = 7
	maximum = 47
Network latency average = 18.8802
	minimum = 7
	maximum = 47
Slowest packet = 29660
Flit latency average = 18.9633
	minimum = 7
	maximum = 47
Slowest flit = 29660
Fragmentation average = 0
	minimum = 0
	maximum = 0
Injected packet rate average = 0.0475625
	minimum = 0.038 (at node 12)
	maximum = 0.058 (at node 0)
Accepted packet rate average = 0.0476875
	minimum = 0.038 (at node 3)
	maximum = 0.057 (at node 0)
Injected flit rate average = 0.0475625
	minimum = 0.038 (at node 12)
	maximum = 0.058 (at node 0)
Accepted flit rate average= 0.0476875
	minimum = 0.038 (at node 3)
	maximum = 0.057 (at node 0)
Injected packet length average = 1
Accepted packet length average = 1
Total in-flight flits = 18 (18 measured)
latency change    = 0.0587745
throughput change = 0.0563565
Class 0:
Packet latency average = 19.1528
	minimum = 7
	maximum = 47
Network latency average = 19.1521
	minimum = 7
	maximum = 47
Slowest packet = 29660
Flit latency average = 19.1896
	minimum = 7
	maximum = 47
Slowest flit = 29660
Fragmentation average = 0
	minimum = 0
	maximum = 0
Injected packet rate average = 0.0481562
	minimum = 0.043 (at node 6)
	maximum = 0.0555 (at node 0)
Accepted packet rate average = 0.0482812
	minimum = 0.043 (at node 9)
	maximum = 0.0555 (at node 0)
Injected flit rate average = 0.0481562
	minimum = 0.043 (at node 6)
	maximum = 0.0555 (at node 0)
Accepted flit rate average= 0.0482812
	minimum = 0.043 (at node 9)
	maximum = 0.0555 (at node 0)
Injected packet length average = 1
Accepted packet length average = 1
Total in-flight flits = 16 (16 measured)
latency change    = 0.0141612
throughput change = 0.0122977
Class 0:
Packet latency average = 19.0912
	minimum = 7
	maximum = 47
Network latency average = 19.0908
	minimum = 7
	maximum = 47
Slowest packet = 29660
Flit latency average = 19.116
	minimum = 7
	maximum = 47
Slowest flit = 29660
Fragmentation average = 0
	minimum = 0
	maximum = 0
Injected packet rate average = 0.0486875
	minimum = 0.039 (at node 2)
	maximum = 0.0563333 (at node 0)
Accepted packet rate average = 0.0488542
	minimum = 0.0403333 (at node 8)
	maximum = 0.056 (at node 0)
Injected flit rate average = 0.0486875
	minimum = 0.039 (at node 2)
	maximum = 0.0563333 (at node 0)
Accepted flit rate average= 0.0488542
	minimum = 0.0403333 (at node 8)
	maximum = 0.056 (at node 0)
Injected packet length average = 1
Accepted packet length average = 1
Total in-flight flits = 12 (12 measured)
latency change    = 0.00322683
throughput change = 0.0117271
Class 0:
Packet latency average = 19.099
	minimum = 7
	maximum = 47
Network latency average = 19.0986
	minimum = 7
	maximum = 47
Slowest packet = 29660
Flit latency average = 19.1177
	minimum = 7
	maximum = 47
Slowest flit = 29660
Fragmentation average = 0
	minimum = 0
	maximum = 0
Injected packet rate average = 0.0481719
	minimum = 0.04075 (at node 2)
	maximum = 0.0555 (at node 0)
Accepted packet rate average = 0.0483125
	minimum = 0.0415 (at node 3)
	maximum = 0.0555 (at node 0)
Injected flit rate average = 0.0481719
	minimum = 0.04075 (at node 2)
	maximum = 0.0555 (at node 0)
Accepted flit rate average= 0.0483125
	minimum = 0.0415 (at node 3)
	maximum = 0.0555 (at node 0)
Injected packet length average = 1
Accepted packet length average = 1
Total in-flight flits = 11 (11 measured)
latency change    = 0.000407118
throughput change = 0.0112117
Draining all recorded packets ...
Draining remaining packets ...
Time taken is 7068 cycles
Class 0:
Packet latency average = 19.4409
	minimum = 7
	maximum = 47
Network latency average = 19.4409
	minimum = 7
	maximum = 47
Slowest packet = 32629
Flit latency average = 19.4409
	minimum = 7
	maximum = 47
Slowest flit = 32629
Fragmentation average = 0
	minimum = 0
	maximum = 0
Injected packet rate average = 0.049625
	minimum = 0.036 (at node 6)
	maximum = 0.059 (at node 5)
Accepted packet rate average = 0.048625
	minimum = 0.035 (at node 9)
	maximum = 0.058 (at node 8)
Injected flit rate average = 0.049625
	minimum = 0.036 (at node 6)
	maximum = 0.059 (at node 5)
Accepted flit rate average= 0.048625
	minimum = 0.035 (at node 9)
	maximum = 0.058 (at node 8)
Injected packet length average = 1
Accepted packet length average = 1
Total in-flight flits = 16 (0 measured)
latency change    = 1
throughput change = 1
Class 0:
Packet latency average = 19.5047
	minimum = 7
	maximum = 50
Network latency average = 19.5047
	minimum = 7
	maximum = 50
Slowest packet = 33439
Flit latency average = 19.5047
	minimum = 7
	maximum = 50
Slowest flit = 33439
Fragmentation average = 0
	minimum = 0
	maximum = 0
Injected packet rate average = 0.0504375
	minimum = 0.037 (at node 6)
	maximum = 0.0585 (at node 4)
Accepted packet rate average = 0.0499062
	minimum = 0.036 (at node 9)
	maximum = 0.0585 (at node 1)
Injected flit rate average = 0.0504375
	minimum = 0.037 (at node 6)
	maximum = 0.0585 (at node 4)
Accepted flit rate average= 0.0499062
	minimum = 0.036 (at node 9)
	maximum = 0.0585 (at node 1)
Injected packet length average = 1
Accepted packet length average = 1
Total in-flight flits = 17 (0 measured)
latency change    = 0.00327215
throughput change = 0.0256731
Class 0:
Packet latency average = 19.5619
	minimum = 7
	maximum = 43
Network latency average = 19.5619
	minimum = 7
	maximum = 43
Slowest packet = 34427
Flit latency average = 19.5619
	minimum = 7
	maximum = 43
Slowest flit = 34427
Fragmentation average = 0
	minimum = 0
	maximum = 0
Injected packet rate average = 0.047625
	minimum = 0.04 (at node 0)
	maximum = 0.057 (at node 12)
Accepted packet rate average = 0.0479375
	minimum = 0.039 (at node 4)
	maximum = 0.056 (at node 3)
Injected flit rate average = 0.047625
	minimum = 0.04 (at node 0)
	maximum = 0.057 (at node 12)
Accepted flit rate average= 0.0479375
	minimum = 0.039 (at node 4)
	maximum = 0.056 (at node 3)
Injected packet length average = 1
Accepted packet length average = 1
Total in-flight flits = 12 (0 measured)
latency change    = 0.00292575
throughput change = 0.0410691
Warmed up ...Time used is 3000 cycles
Class 0:
Packet latency average = 19.4166
	minimum = 7
	maximum = 41
Network latency average = 19.4166
	minimum = 7
	maximum = 41
Slowest packet = 34615
Flit latency average = 19.5258
	minimum = 7
	maximum = 41
Slowest flit = 34615
Fragmentation average = 0
	minimum = 0
	maximum = 0
Injected packet rate average = 0.0516875
	minimum = 0.042 (at node 13)
	maximum = 0.064 (at node 7)
Accepted packet rate average = 0.0520625
	minimum = 0.044 (at node 7)
	maximum = 0.063 (at node 13)
Injected flit rate average = 0.0516875
	minimum = 0.042 (at node 13)
	maximum = 0.064 (at node 7)
Accepted flit rate average= 0.0520625
	minimum = 0.044 (at node 7)
	maximum = 0.063 (at node 13)
Injected packet length average = 1
Accepted packet length average = 1
Total in-flight flits = 6 (6 measured)
latency change    = 0.00748662
throughput change = 0.0792317
Class 0:
Packet latency average = 19.4991
	minimum = 7
	maximum = 45
Network latency average = 19.4991
	minimum = 7
	maximum = 45
Slowest packet = 35939
Flit latency average = 19.5539
	minimum = 7
	maximum = 45
Slowest flit = 35939
Fragmentation average = 0
	minimum = 0
	maximum = 0
Injected packet rate average = 0.0513125
	minimum = 0.041 (at node 13)
	maximum = 0.057 (at node 7)
Accepted packet rate average = 0.0512813
	minimum = 0.0415 (at node 7)
	maximum = 0.0575 (at node 13)
Injected flit rate average = 0.0513125
	minimum = 0.041 (at node 13)
	maximum = 0.057 (at node 7)
Accepted flit rate average= 0.0512813
	minimum = 0.0415 (at node 7)
	maximum = 0.0575 (at node 13)
Injected packet length average = 1
Accepted packet length average = 1
Total in-flight flits = 13 (13 measured)
latency change    = 0.00423169
throughput change = 0.0152346
Class 0:
Packet latency average = 19.699
	minimum = 7
	maximum = 45
Network latency average = 19.699
	minimum = 7
	maximum = 45
Slowest packet = 35939
Flit latency average = 19.7351
	minimum = 7
	maximum = 45
Slowest flit = 35939
Fragmentation average = 0
	minimum = 0
	maximum = 0
Injected packet rate average = 0.0507083
	minimum = 0.046 (at node 5)
	maximum = 0.0553333 (at node 0)
Accepted packet rate average = 0.0506458
	minimum = 0.046 (at node 5)
	maximum = 0.0553333 (at node 0)
Injected flit rate average = 0.0507083
	minimum = 0.046 (at node 5)
	maximum = 0.0553333 (at node 0)
Accepted flit rate average= 0.0506458
	minimum = 0.046 (at node 5)
	maximum = 0.0553333 (at node 0)
Injected packet length average = 1
Accepted packet length average = 1
Total in-flight flits = 15 (15 measured)
latency change    = 0.0101513
throughput change = 0.0125463
Class 0:
Packet latency average = 19.7638
	minimum = 7
	maximum = 45
Network latency average = 19.7638
	minimum = 7
	maximum = 45
Slowest packet = 35939
Flit latency average = 19.7906
	minimum = 7
	maximum = 45
Slowest flit = 35939
Fragmentation average = 0
	minimum = 0
	maximum = 0
Injected packet rate average = 0.0505
	minimum = 0.047 (at node 4)
	maximum = 0.05425 (at node 12)
Accepted packet rate average = 0.0504531
	minimum = 0.04675 (at node 1)
	maximum = 0.05425 (at node 3)
Injected flit rate average = 0.0505
	minimum = 0.047 (at node 4)
	maximum = 0.05425 (at node 12)
Accepted flit rate average= 0.0504531
	minimum = 0.04675 (at node 1)
	maximum = 0.05425 (at node 3)
Injected packet length average = 1
Accepted packet length average = 1
Total in-flight flits = 15 (15 measured)
latency change    = 0.00327397
throughput change = 0.00381955
Draining all recorded packets ...
Draining remaining packets ...
Time taken is 7068 cycles
Class 0:
Packet latency average = 19.7987
	minimum = 7
	maximum = 40
Network latency average = 19.7987
	minimum = 7
	maximum = 40
Slowest packet = 37930
Flit latency average = 19.7987
	minimum = 7
	maximum = 40
Slowest flit = 37930
Fragmentation average = 0
	minimum = 0
	maximum = 0
Injected packet rate average = 0.0509375
	minimum = 0.042 (at node 10)
	maximum = 0.059 (at node 3)
Accepted packet rate average = 0.049375
	minimum = 0.042 (at node 10)
	maximum = 0.056 (at node 0)
Injected flit rate average = 0.0509375
	minimum = 0.042 (at node 10)
	maximum = 0.059 (at node 3)
Accepted flit rate average= 0.049375
	minimum = 0.042 (at node 10)
	maximum = 0.056 (at node 0)
Injected packet length average = 1
Accepted packet length average = 1
Total in-flight flits = 25 (0 measured)
latency change    = 1
throughput change = 1
Class 0:
Packet latency average = 19.6084
	minimum = 7
	maximum = 41
Network latency average = 19.6084
	minimum = 7
	maximum = 41
Slowest packet = 39280
Flit latency average = 19.6084
	minimum = 7
	maximum = 41
Slowest flit = 39280
Fragmentation average = 0
	minimum = 0
	maximum = 0
Injected packet rate average = 0.04925
	minimum = 0.0415 (at node 10)
	maximum = 0.057 (at node 5)
Accepted packet rate average = 0.0488437
	minimum = 0.0415 (at node 10)
	maximum = 0.057 (at node 5)
Injected flit rate average = 0.04925
	minimum = 0.0415 (at node 10)
	maximum = 0.057 (at node 5)
Accepted flit rate average= 0.0488437
	minimum = 0.0415 (at node 10)
	maximum = 0.057 (at node 5)
Injected packet length average = 1
Accepted packet length average = 1
Total in-flight flits = 13 (0 measured)
latency change    = 0.00970443
throughput change = 0.0108765
Class 0:
Packet latency average = 18.987
	minimum = 7
	maximum = 42
Network latency average = 18.987
	minimum = 7
	maximum = 42
Slowest packet = 39549
Flit latency average = 18.987
	minimum = 7
	maximum = 42
Slowest flit = 39549
Fragmentation average = 0
	minimum = 0
	maximum = 0
Injected packet rate average = 0.053
	minimum = 0.036 (at node 14)
	maximum = 0.078 (at node 10)
Accepted packet rate average = 0.05275
	minimum = 0.035 (at node 11)
	maximum = 0.078 (at node 10)
Injected flit rate average = 0.053
	minimum = 0.036 (at node 14)
	maximum = 0.078 (at node 10)
Accepted flit rate average= 0.05275
	minimum = 0.035 (at node 11)
	maximum = 0.078 (at node 10)
Injected packet length average = 1
Accepted packet length average = 1
Total in-flight flits = 17 (0 measured)
latency change    = 0.0327318
throughput change = 0.0740521
Warmed up ...Time used is 3000 cycles
Class 0:
Packet latency average = 19.3842
	minimum = 7
	maximum = 43
Network latency average = 19.3842
	minimum = 7
	maximum = 43
Slowest packet = 40311
Flit latency average = 19.5283
	minimum = 7
	maximum = 43
Slowest flit = 40311
Fragmentation average = 0
	minimum = 0
	maximum = 0
Injected packet rate average = 0.0520625
	minimum = 0.038 (at node 10)
	maximum = 0.063 (at node 4)
Accepted packet rate average = 0.0518125
	minimum = 0.036 (at node 10)
	maximum = 0.062 (at node 1)
Injected flit rate average = 0.0520625
	minimum = 0.038 (at node 10)
	maximum = 0.063 (at node 4)
Accepted flit rate average= 0.0518125
	minimum = 0.036 (at node 10)
	maximum = 0.062 (at node 1)
Injected packet length average = 1
Accepted packet length average = 1
Total in-flight flits = 21 (21 measured)
latency change    = 0.0204945
throughput change = 0.0180941
Class 0:
Packet latency average = 19.5336
	minimum = 7
	maximum = 43
Network latency average = 19.5336
	minimum = 7
	maximum = 43
Slowest packet = 40311
Flit latency average = 19.6055
	minimum = 7
	maximum = 43
Slowest flit = 40311
Fragmentation average = 0
	minimum = 0
	maximum = 0
Injected packet rate average = 0.0506875
	minimum = 0.043 (at node 10)
	maximum = 0.056 (at node 4)
Accepted packet rate average = 0.0507812
	minimum = 0.0425 (at node 10)
	maximum = 0.0565 (at node 5)
Injected flit rate average = 0.0506875
	minimum = 0.043 (at node 10)
	maximum = 0.056 (at node 4)
Accepted flit rate average= 0.0507812
	minimum = 0.0425 (at node 10)
	maximum = 0.0565 (at node 5)
Injected packet length average = 1
Accepted packet length average = 1
Total in-flight flits = 14 (14 measured)
latency change    = 0.00764558
throughput change = 0.0203077
Class 0:
Packet latency average = 19.5558
	minimum = 7
	maximum = 43
Network latency average = 19.5558
	minimum = 7
	maximum = 43
Slowest packet = 40311
Flit latency average = 19.6041
	minimum = 7
	maximum = 43
Slowest flit = 40311
Fragmentation average = 0
	minimum = 0
	maximum = 0
Injected packet rate average = 0.05025
	minimum = 0.0436667 (at node 10)
	maximum = 0.0553333 (at node 8)
Accepted packet rate average = 0.0502083
	minimum = 0.0436667 (at node 10)
	maximum = 0.0553333 (at node 2)
Injected flit rate average = 0.05025
	minimum = 0.0436667 (at node 10)
	maximum = 0.0553333 (at node 8)
Accepted flit rate average= 0.0502083
	minimum = 0.0436667 (at node 10)
	maximum = 0.0553333 (at node 2)
Injected packet length average = 1
Accepted packet length average = 1
Total in-flight flits = 19 (19 measured)
latency change    = 0.0011355
throughput change = 0.0114108
Draining all recorded packets ...
Draining remaining packets ...
Time taken is 6062 cycles
Class 0:
Packet latency average = 19.5255
	minimum = 7
	maximum = 44
Network latency average = 19.5255
	minimum = 7
	maximum = 44
Slowest packet = 43104
Flit latency average = 19.5255
	minimum = 7
	maximum = 44
Slowest flit = 43104
Fragmentation average = 0
	minimum = 0
	maximum = 0
Injected packet rate average = 0.0498125
	minimum = 0.037 (at node 10)
	maximum = 0.057 (at node 1)
Accepted packet rate average = 0.049
	minimum = 0.037 (at node 10)
	maximum = 0.057 (at node 2)
Injected flit rate average = 0.0498125
	minimum = 0.037 (at node 10)
	maximum = 0.057 (at node 1)
Accepted flit rate average= 0.049
	minimum = 0.037 (at node 10)
	maximum = 0.057 (at node 2)
Injected packet length average = 1
Accepted packet length average = 1
Total in-flight flits = 13 (0 measured)
latency change    = 1
throughput change = 1
Class 0:
Packet latency average = 19.1968
	minimum = 7
	maximum = 44
Network latency average = 19.1968
	minimum = 7
	maximum = 44
Slowest packet = 43104
Flit latency average = 19.1968
	minimum = 7
	maximum = 44
Slowest flit = 43104
Fragmentation average = 0
	minimum = 0
	maximum = 0
Injected packet rate average = 0.0499687
	minimum = 0.041 (at node 12)
	maximum = 0.058 (at node 15)
Accepted packet rate average = 0.049375
	minimum = 0.0405 (at node 3)
	maximum = 0.058 (at node 15)
Injected flit rate average = 0.0499687
	minimum = 0.041 (at node 12)
	maximum = 0.058 (at node 15)
Accepted flit rate average= 0.049375
	minimum = 0.0405 (at node 3)
	maximum = 0.058 (at node 15)
Injected packet length average = 1
Accepted packet length average = 1
Total in-flight flits = 19 (0 measured)
latency change    = 0.0171213
throughput change = 0.00759494
Class 0:
Packet latency average = 19.9927
	minimum = 7
	maximum = 43
Network latency average = 19.9927
	minimum = 7
	maximum = 43
Slowest packet = 44874
Flit latency average = 19.9927
	minimum = 7
	maximum = 43
Slowest flit = 44874
Fragmentation average = 0
	minimum = 0
	maximum = 0
Injected packet rate average = 0.0513125
	minimum = 0.042 (at node 15)
	maximum = 0.062 (at node 4)
Accepted packet rate average = 0.051375
	minimum = 0.042 (at node 15)
	maximum = 0.063 (at node 1)
Injected flit rate average = 0.0513125
	minimum = 0.042 (at node 15)
	maximum = 0.062 (at node 4)
Accepted flit rate average= 0.051375
	minimum = 0.042 (at node 15)
	maximum = 0.063 (at node 1)
Injected packet length average = 1
Accepted packet length average = 1
Total in-flight flits = 18 (0 measured)
latency change    = 0.0398078
throughput change = 0.0389294
Warmed up ...Time used is 3000 cycles
Class 0:
Packet latency average = 19.3079
	minimum = 7
	maximum = 41
Network latency average = 19.3079
	minimum = 7
	maximum = 41
Slowest packet = 45682
Flit latency average = 19.4627
	minimum = 7
	maximum = 41
Slowest flit = 45682
Fragmentation average = 0
	minimum = 0
	maximum = 0
Injected packet rate average = 0.0520625
	minimum = 0.043 (at node 12)
	maximum = 0.061 (at node 13)
Accepted packet rate average = 0.051875
	minimum = 0.042 (at node 3)
	maximum = 0.063 (at node 7)
Injected flit rate average = 0.0520625
	minimum = 0.043 (at node 12)
	maximum = 0.061 (at node 13)
Accepted flit rate average= 0.051875
	minimum = 0.042 (at node 3)
	maximum = 0.063 (at node 7)
Injected packet length average = 1
Accepted packet length average = 1
Total in-flight flits = 21 (21 measured)
latency change    = 0.0354684
throughput change = 0.00963855
Class 0:
Packet latency average = 19.5216
	minimum = 7
	maximum = 41
Network latency average = 19.5216
	minimum = 7
	maximum = 41
Slowest packet = 45682
Flit latency average = 19.5999
	minimum = 7
	maximum = 41
Slowest flit = 45682
Fragmentation average = 0
	minimum = 0
	maximum = 0
Injected packet rate average = 0.0497187
	minimum = 0.0435 (at node 7)
	maximum = 0.055 (at node 10)
Accepted packet rate average = 0.04975
	minimum = 0.0435 (at node 13)
	maximum = 0.0555 (at node 7)
Injected flit rate average = 0.0497187
	minimum = 0.0435 (at node 7)
	maximum = 0.055 (at node 10)
Accepted flit rate average= 0.04975
	minimum = 0.0435 (at node 13)
	maximum = 0.0555 (at node 7)
Injected packet length average = 1
Accepted packet length average = 1
Total in-flight flits = 17 (17 measured)
latency change    = 0.0109478
throughput change = 0.0427136
Class 0:
Packet latency average = 19.6248
	minimum = 7
	maximum = 41
Network latency average = 19.6248
	minimum = 7
	maximum = 41
Slowest packet = 45682
Flit latency average = 19.6763
	minimum = 7
	maximum = 41
Slowest flit = 45682
Fragmentation average = 0
	minimum = 0
	maximum = 0
Injected packet rate average = 0.0495833
	minimum = 0.0426667 (at node 8)
	maximum = 0.0563333 (at node 3)
Accepted packet rate average = 0.0496875
	minimum = 0.0436667 (at node 2)
	maximum = 0.0553333 (at node 12)
Injected flit rate average = 0.0495833
	minimum = 0.0426667 (at node 8)
	maximum = 0.0563333 (at node 3)
Accepted flit rate average= 0.0496875
	minimum = 0.0436667 (at node 2)
	maximum = 0.0553333 (at node 12)
Injected packet length average = 1
Accepted packet length average = 1
Total in-flight flits = 13 (13 measured)
latency change    = 0.00526071
throughput change = 0.00125786
Draining all recorded packets ...
Draining remaining packets ...
Time taken is 6062 cycles
Class 0:
Packet latency average = 19.3443
	minimum = 7
	maximum = 39
Network latency average = 19.3443
	minimum = 7
	maximum = 39
Slowest packet = 47559
Flit latency average = 19.3443
	minimum = 7
	maximum = 39
Slowest flit = 47559
Fragmentation average = 0
	minimum = 0
	maximum = 0
Injected packet rate average = 0.04675
	minimum = 0.036 (at node 10)
	maximum = 0.059 (at node 9)
Accepted packet rate average = 0.04575
	minimum = 0.036 (at node 10)
	maximum = 0.058 (at node 4)
Injected flit rate average = 0.04675
	minimum = 0.036 (at node 10)
	maximum = 0.059 (at node 9)
Accepted flit rate average= 0.04575
	minimum = 0.036 (at node 10)
	maximum = 0.058 (at node 4)
Injected packet length average = 1
Accepted packet length average = 1
Total in-flight flits = 16 (0 measured)
latency change    = 1
throughput change = 1
Class 0:
Packet latency average = 19.2761
	minimum = 7
	maximum = 42
Network latency average = 19.2761
	minimum = 7
	maximum = 42
Slowest packet = 48470
Flit latency average = 19.2761
	minimum = 7
	maximum = 42
Slowest flit = 48470
Fragmentation average = 0
	minimum = 0
	maximum = 0
Injected packet rate average = 0.0491875
	minimum = 0.038 (at node 13)
	maximum = 0.0615 (at node 1)
Accepted packet rate average = 0.0487812
	minimum = 0.037 (at node 7)
	maximum = 0.0615 (at node 4)
Injected flit rate average = 0.0491875
	minimum = 0.038 (at node 13)
	maximum = 0.0615 (at node 1)
Accepted flit rate average= 0.0487812
	minimum = 0.037 (at node 7)
	maximum = 0.0615 (at node 4)
Injected packet length average = 1
Accepted packet length average = 1
Total in-flight flits = 13 (0 measured)
latency change    = 0.00353584
throughput change = 0.0621397
Class 0:
Packet latency average = 19.8005
	minimum = 7
	maximum = 43
Network latency average = 19.8005
	minimum = 7
	maximum = 43
Slowest packet = 49828
Flit latency average = 19.8005
	minimum = 7
	maximum = 43
Slowest flit = 49828
Fragmentation average = 0
	minimum = 0
	maximum = 0
Injected packet rate average = 0.0490625
	minimum = 0.039 (at node 9)
	maximum = 0.06 (at node 2)
Accepted packet rate average = 0.048875
	minimum = 0.041 (at node 6)
	maximum = 0.058 (at node 2)
Injected flit rate average = 0.0490625
	minimum = 0.039 (at node 9)
	maximum = 0.06 (at node 2)
Accepted flit rate average= 0.048875
	minimum = 0.041 (at node 6)
	maximum = 0.058 (at node 2)
Injected packet length average = 1
Accepted packet length average = 1
Total in-flight flits = 16 (0 measured)
latency change    = 0.0264845
throughput change = 0.00191816
Warmed up ...Time used is 3000 cycles
Class 0:
Packet latency average = 19.7918
	minimum = 7
	maximum = 41
Network latency average = 19.7918
	minimum = 7
	maximum = 41
Slowest packet = 50259
Flit latency average = 19.8736
	minimum = 7
	maximum = 41
Slowest flit = 50259
Fragmentation average = 0
	minimum = 0
	maximum = 0
Injected packet rate average = 0.05125
	minimum = 0.041 (at node 6)
	maximum = 0.071 (at node 2)
Accepted packet rate average = 0.0514375
	minimum = 0.04 (at node 9)
	maximum = 0.072 (at node 8)
Injected flit rate average = 0.05125
	minimum = 0.041 (at node 6)
	maximum = 0.071 (at node 2)
Accepted flit rate average= 0.0514375
	minimum = 0.04 (at node 9)
	maximum = 0.072 (at node 8)
Injected packet length average = 1
Accepted packet length average = 1
Total in-flight flits = 13 (13 measured)
latency change    = 0.000439068
throughput change = 0.0498177
Class 0:
Packet latency average = 19.7187
	minimum = 7
	maximum = 41
Network latency average = 19.7187
	minimum = 7
	maximum = 41
Slowest packet = 50259
Flit latency average = 19.7609
	minimum = 7
	maximum = 41
Slowest flit = 50259
Fragmentation average = 0
	minimum = 0
	maximum = 0
Injected packet rate average = 0.0510313
	minimum = 0.046 (at node 7)
	maximum = 0.059 (at node 2)
Accepted packet rate average = 0.0507187
	minimum = 0.0455 (at node 13)
	maximum = 0.06 (at node 8)
Injected flit rate average = 0.0510313
	minimum = 0.046 (at node 7)
	maximum = 0.059 (at node 2)
Accepted flit rate average= 0.0507187
	minimum = 0.0455 (at node 13)
	maximum = 0.06 (at node 8)
Injected packet length average = 1
Accepted packet length average = 1
Total in-flight flits = 26 (26 measured)
latency change    = 0.00370668
throughput change = 0.0141713
Class 0:
Packet latency average = 19.7345
	minimum = 7
	maximum = 44
Network latency average = 19.7341
	minimum = 7
	maximum = 44
Slowest packet = 51680
Flit latency average = 19.7621
	minimum = 7
	maximum = 44
Slowest flit = 51680
Fragmentation average = 0
	minimum = 0
	maximum = 0
Injected packet rate average = 0.050875
	minimum = 0.047 (at node 0)
	maximum = 0.055 (at node 4)
Accepted packet rate average = 0.0507917
	minimum = 0.0473333 (at node 0)
	maximum = 0.055 (at node 1)
Injected flit rate average = 0.050875
	minimum = 0.047 (at node 0)
	maximum = 0.055 (at node 4)
Accepted flit rate average= 0.0507917
	minimum = 0.0473333 (at node 0)
	maximum = 0.055 (at node 1)
Injected packet length average = 1
Accepted packet length average = 1
Total in-flight flits = 20 (20 measured)
latency change    = 0.000799937
throughput change = 0.0014356
Draining all recorded packets ...
Draining remaining packets ...
Time taken is 6067 cycles
Class 0:
Packet latency average = 19.8218
	minimum = 7
	maximum = 42
Network latency average = 19.8218
	minimum = 7
	maximum = 42
Slowest packet = 52753
Flit latency average = 19.8218
	minimum = 7
	maximum = 42
Slowest flit = 52753
Fragmentation average = 0
	minimum = 0
	maximum = 0
Injected packet rate average = 0.0520625
	minimum = 0.034 (at node 5)
	maximum = 0.065 (at node 1)
Accepted packet rate average = 0.0505
	minimum = 0.034 (at node 5)
	maximum = 0.062 (at node 6)
Injected flit rate average = 0.0520625
	minimum = 0.034 (at node 5)
	maximum = 0.065 (at node 1)
Accepted flit rate average= 0.0505
	minimum = 0.034 (at node 5)
	maximum = 0.062 (at node 6)
Injected packet length average = 1
Accepted packet length average = 1
Total in-flight flits = 25 (0 measured)
latency change    = 1
throughput change = 1
Class 0:
Packet latency average = 19.7719
	minimum = 7
	maximum = 44
Network latency average = 19.7719
	minimum = 7
	maximum = 44
Slowest packet = 53170
Flit latency average = 19.7719
	minimum = 7
	maximum = 44
Slowest flit = 53170
Fragmentation average = 0
	minimum = 0
	maximum = 0
Injected packet rate average = 0.051
	minimum = 0.04 (at node 5)
	maximum = 0.058 (at node 8)
Accepted packet rate average = 0.0505625
	minimum = 0.04 (at node 5)
	maximum = 0.0575 (at node 6)
Injected flit rate average = 0.051
	minimum = 0.04 (at node 5)
	maximum = 0.058 (at node 8)
Accepted flit rate average= 0.0505625
	minimum = 0.04 (at node 5)
	maximum = 0.0575 (at node 6)
Injected packet length average = 1
Accepted packet length average = 1
Total in-flight flits = 14 (0 measured)
latency change    = 0.00252082
throughput change = 0.00123609
Class 0:
Packet latency average = 19.4363
	minimum = 7
	maximum = 42
Network latency average = 19.4363
	minimum = 7
	maximum = 42
Slowest packet = 54034
Flit latency average = 19.4363
	minimum = 7
	maximum = 42
Slowest flit = 54034
Fragmentation average = 0
	minimum = 0
	maximum = 0
Injected packet rate average = 0.050125
	minimum = 0.04 (at node 13)
	maximum = 0.063 (at node 8)
Accepted packet rate average = 0.05
	minimum = 0.039 (at node 7)
	maximum = 0.065 (at node 2)
Injected flit rate average = 0.050125
	minimum = 0.04 (at node 13)
	maximum = 0.063 (at node 8)
Accepted flit rate average= 0.05
	minimum = 0.039 (at node 7)
	maximum = 0.065 (at node 2)
Injected packet length average = 1
Accepted packet length average = 1
Total in-flight flits = 16 (0 measured)
latency change    = 0.0172714
throughput change = 0.01125
Warmed up ...Time used is 3000 cycles
Class 0:
Packet latency average = 19.2178
	minimum = 7
	maximum = 44
Network latency average = 19.2178
	minimum = 7
	maximum = 44
Slowest packet = 55132
Flit latency average = 19.3233
	minimum = 7
	maximum = 44
Slowest flit = 55132
Fragmentation average = 0
	minimum = 0
	maximum = 0
Injected packet rate average = 0.0501875
	minimum = 0.034 (at node 8)
	maximum = 0.067 (at node 4)
Accepted packet rate average = 0.0500625
	minimum = 0.034 (at node 2)
	maximum = 0.067 (at node 1)
Injected flit rate average = 0.0501875
	minimum = 0.034 (at node 8)
	maximum = 0.067 (at node 4)
Accepted flit rate average= 0.0500625
	minimum = 0.034 (at node 2)
	maximum = 0.067 (at node 1)
Injected packet length average = 1
Accepted packet length average = 1
Total in-flight flits = 18 (18 measured)
latency change    = 0.0113653
throughput change = 0.00124844
Class 0:
Packet latency average = 19.5025
	minimum = 7
	maximum = 44
Network latency average = 19.5025
	minimum = 7
	maximum = 44
Slowest packet = 55132
Flit latency average = 19.5528
	minimum = 7
	maximum = 44
Slowest flit = 55132
Fragmentation average = 0
	minimum = 0
	maximum = 0
Injected packet rate average = 0.0498437
	minimum = 0.034 (at node 8)
	maximum = 0.065 (at node 4)
Accepted packet rate average = 0.04975
	minimum = 0.034 (at node 2)
	maximum = 0.0645 (at node 1)
Injected flit rate average = 0.0498437
	minimum = 0.034 (at node 8)
	maximum = 0.065 (at node 4)
Accepted flit rate average= 0.04975
	minimum = 0.034 (at node 2)
	maximum = 0.0645 (at node 1)
Injected packet length average = 1
Accepted packet length average = 1
Total in-flight flits = 19 (19 measured)
latency change    = 0.0145983
throughput change = 0.00628141
Class 0:
Packet latency average = 19.3581
	minimum = 7
	maximum = 45
Network latency average = 19.3581
	minimum = 7
	maximum = 45
Slowest packet = 56374
Flit latency average = 19.3925
	minimum = 7
	maximum = 45
Slowest flit = 56374
Fragmentation average = 0
	minimum = 0
	maximum = 0
Injected packet rate average = 0.0496667
	minimum = 0.0386667 (at node 13)
	maximum = 0.0603333 (at node 4)
Accepted packet rate average = 0.0497292
	minimum = 0.039 (at node 7)
	maximum = 0.061 (at node 1)
Injected flit rate average = 0.0496667
	minimum = 0.0386667 (at node 13)
	maximum = 0.0603333 (at node 4)
Accepted flit rate average= 0.0497292
	minimum = 0.039 (at node 7)
	maximum = 0.061 (at node 1)
Injected packet length average = 1
Accepted packet length average = 1
Total in-flight flits = 13 (13 measured)
latency change    = 0.00746259
throughput change = 0.000418936
Draining all recorded packets ...
Draining remaining packets ...
Time taken is 6073 cycles
Class 0:
Packet latency average = 19.8099
	minimum = 7
	maximum = 45
Network latency average = 19.8099
	minimum = 7
	maximum = 45
Slowest packet = 57512
Flit latency average = 19.8099
	minimum = 7
	maximum = 45
Slowest flit = 57512
Fragmentation average = 0
	minimum = 0
	maximum = 0
Injected packet rate average = 0.0515
	minimum = 0.039 (at node 1)
	maximum = 0.068 (at node 3)
Accepted packet rate average = 0.050625
	minimum = 0.038 (at node 11)
	maximum = 0.066 (at node 12)
Injected flit rate average = 0.0515
	minimum = 0.039 (at node 1)
	maximum = 0.068 (at node 3)
Accepted flit rate average= 0.050625
	minimum = 0.038 (at node 11)
	maximum = 0.066 (at node 12)
Injected packet length average = 1
Accepted packet length average = 1
Total in-flight flits = 14 (0 measured)
latency change    = 1
throughput change = 1
Class 0:
Packet latency average = 19.4651
	minimum = 7
	maximum = 45
Network latency average = 19.4651
	minimum = 7
	maximum = 45
Slowest packet = 57512
Flit latency average = 19.4651
	minimum = 7
	maximum = 45
Slowest flit = 57512
Fragmentation average = 0
	minimum = 0
	maximum = 0
Injected packet rate average = 0.05
	minimum = 0.042 (at node 1)
	maximum = 0.0645 (at node 15)
Accepted packet rate average = 0.0493125
	minimum = 0.042 (at node 4)
	maximum = 0.0635 (at node 15)
Injected flit rate average = 0.05
	minimum = 0.042 (at node 1)
	maximum = 0.0645 (at node 15)
Accepted flit rate average= 0.0493125
	minimum = 0.042 (at node 4)
	maximum = 0.0635 (at node 15)
Injected packet length average = 1
Accepted packet length average = 1
Total in-flight flits = 22 (0 measured)
latency change    = 0.0177102
throughput change = 0.026616
Class 0:
Packet latency average = 19.4365
	minimum = 7
	maximum = 43
Network latency average = 19.4365
	minimum = 7
	maximum = 43
Slowest packet = 59519
Flit latency average = 19.4365
	minimum = 7
	maximum = 43
Slowest flit = 59519
Fragmentation average = 0
	minimum = 0
	maximum = 0
Injected packet rate average = 0.0504375
	minimum = 0.036 (at node 6)
	maximum = 0.06 (at node 11)
Accepted packet rate average = 0.0506875
	minimum = 0.037 (at node 1)
	maximum = 0.061 (at node 14)
Injected flit rate average = 0.0504375
	minimum = 0.036 (at node 6)
	maximum = 0.06 (at node 11)
Accepted flit rate average= 0.0506875
	minimum = 0.037 (at node 1)
	maximum = 0.061 (at node 14)
Injected packet length average = 1
Accepted packet length average = 1
Total in-flight flits = 18 (0 measured)
latency change    = 0.00147391
throughput change = 0.027127
Warmed up ...Time used is 3000 cycles
Class 0:
Packet latency average = 20.352
	minimum = 7
	maximum = 42
Network latency average = 20.352
	minimum = 7
	maximum = 42
Slowest packet = 59751
Flit latency average = 20.5411
	minimum = 7
	maximum = 48
Slowest flit = 59606
Fragmentation average = 0
	minimum = 0
	maximum = 0
Injected packet rate average = 0.0524375
	minimum = 0.035 (at node 2)
	maximum = 0.07 (at node 12)
Accepted packet rate average = 0.0524375
	minimum = 0.038 (at node 8)
	maximum = 0.069 (at node 12)
Injected flit rate average = 0.0524375
	minimum = 0.035 (at node 2)
	maximum = 0.07 (at node 12)
Accepted flit rate average= 0.0524375
	minimum = 0.038 (at node 8)
	maximum = 0.069 (at node 12)
Injected packet length average = 1
Accepted packet length average = 1
Total in-flight flits = 18 (18 measured)
latency change    = 0.0449838
throughput change = 0.0333731
Class 0:
Packet latency average = 19.8422
	minimum = 7
	maximum = 43
Network latency average = 19.8422
	minimum = 7
	maximum = 43
Slowest packet = 60990
Flit latency average = 19.9441
	minimum = 7
	maximum = 48
Slowest flit = 59606
Fragmentation average = 0
	minimum = 0
	maximum = 0
Injected packet rate average = 0.051375
	minimum = 0.0425 (at node 2)
	maximum = 0.0605 (at node 12)
Accepted packet rate average = 0.0514688
	minimum = 0.0425 (at node 10)
	maximum = 0.06 (at node 3)
Injected flit rate average = 0.051375
	minimum = 0.0425 (at node 2)
	maximum = 0.0605 (at node 12)
Accepted flit rate average= 0.0514688
	minimum = 0.0425 (at node 10)
	maximum = 0.06 (at node 3)
Injected packet length average = 1
Accepted packet length average = 1
Total in-flight flits = 15 (15 measured)
latency change    = 0.0256914
throughput change = 0.0188221
Class 0:
Packet latency average = 19.7252
	minimum = 7
	maximum = 43
Network latency average = 19.7252
	minimum = 7
	maximum = 43
Slowest packet = 60990
Flit latency average = 19.7944
	minimum = 7
	maximum = 48
Slowest flit = 59606
Fragmentation average = 0
	minimum = 0
	maximum = 0
Injected packet rate average = 0.0511042
	minimum = 0.044 (at node 15)
	maximum = 0.0566667 (at node 0)
Accepted packet rate average = 0.0511667
	minimum = 0.044 (at node 15)
	maximum = 0.0573333 (at node 9)
Injected flit rate average = 0.0511042
	minimum = 0.044 (at node 15)
	maximum = 0.0566667 (at node 0)
Accepted flit rate average= 0.0511667
	minimum = 0.044 (at node 15)
	maximum = 0.0573333 (at node 9)
Injected packet length average = 1
Accepted packet length average = 1
Total in-flight flits = 15 (15 measured)
latency change    = 0.00593403
throughput change = 0.00590391
Draining all recorded packets ...
Draining remaining packets ...
Time taken is 6068 cycles
Class 0:
Packet latency average = 19.7182
	minimum = 7
	maximum = 42
Network latency average = 19.7182
	minimum = 7
	maximum = 42
Slowest packet = 62587
Flit latency average = 19.7182
	minimum = 7
	maximum = 42
Slowest flit = 62587
Fragmentation average = 0
	minimum = 0
	maximum = 0
Injected packet rate average = 0.0511875
	minimum = 0.045 (at node 10)
	maximum = 0.065 (at node 1)
Accepted packet rate average = 0.050125
	minimum = 0.045 (at node 10)
	maximum = 0.063 (at node 4)
Injected flit rate average = 0.0511875
	minimum = 0.045 (at node 10)
	maximum = 0.065 (at node 1)
Accepted flit rate average= 0.050125
	minimum = 0.045 (at node 10)
	maximum = 0.063 (at node 4)
Injected packet length average = 1
Accepted packet length average = 1
Total in-flight flits = 17 (0 measured)
latency change    = 1
throughput change = 1
Class 0:
Packet latency average = 19.7562
	minimum = 7
	maximum = 42
Network latency average = 19.7562
	minimum = 7
	maximum = 42
Slowest packet = 62587
Flit latency average = 19.7562
	minimum = 7
	maximum = 42
Slowest flit = 62587
Fragmentation average = 0
	minimum = 0
	maximum = 0
Injected packet rate average = 0.0493125
	minimum = 0.0435 (at node 7)
	maximum = 0.058 (at node 12)
Accepted packet rate average = 0.0488437
	minimum = 0.043 (at node 13)
	maximum = 0.057 (at node 3)
Injected flit rate average = 0.0493125
	minimum = 0.0435 (at node 7)
	maximum = 0.058 (at node 12)
Accepted flit rate average= 0.0488437
	minimum = 0.043 (at node 13)
	maximum = 0.057 (at node 3)
Injected packet length average = 1
Accepted packet length average = 1
Total in-flight flits = 15 (0 measured)
latency change    = 0.00192514
throughput change = 0.0262316
Class 0:
Packet latency average = 20.1327
	minimum = 7
	maximum = 44
Network latency average = 20.1327
	minimum = 7
	maximum = 44
Slowest packet = 64284
Flit latency average = 20.1327
	minimum = 7
	maximum = 44
Slowest flit = 64284
Fragmentation average = 0
	minimum = 0
	maximum = 0
Injected packet rate average = 0.049
	minimum = 0.03 (at node 4)
	maximum = 0.059 (at node 6)
Accepted packet rate average = 0.049
	minimum = 0.03 (at node 1)
	maximum = 0.061 (at node 3)
Injected flit rate average = 0.049
	minimum = 0.03 (at node 4)
	maximum = 0.059 (at node 6)
Accepted flit rate average= 0.049
	minimum = 0.03 (at node 1)
	maximum = 0.061 (at node 3)
Injected packet length average = 1
Accepted packet length average = 1
Total in-flight flits = 15 (0 measured)
latency change    = 0.0186967
throughput change = 0.00318878
Warmed up ...Time used is 3000 cycles
Class 0:
Packet latency average = 20.0299
	minimum = 7
	maximum = 48
Network latency average = 20.0299
	minimum = 7
	maximum = 48
Slowest packet = 64725
Flit latency average = 20.0477
	minimum = 7
	maximum = 48
Slowest flit = 64725
Fragmentation average = 0
	minimum = 0
	maximum = 0
Injected packet rate average = 0.0510625
	minimum = 0.037 (at node 5)
	maximum = 0.065 (at node 12)
Accepted packet rate average = 0.0510625
	minimum = 0.038 (at node 5)
	maximum = 0.064 (at node 3)
Injected flit rate average = 0.0510625
	minimum = 0.037 (at node 5)
	maximum = 0.065 (at node 12)
Accepted flit rate average= 0.0510625
	minimum = 0.038 (at node 5)
	maximum = 0.064 (at node 3)
Injected packet length average = 1
Accepted packet length average = 1
Total in-flight flits = 15 (15 measured)
latency change    = 0.00512872
throughput change = 0.0403917
Class 0:
Packet latency average = 19.7595
	minimum = 7
	maximum = 48
Network latency average = 19.7595
	minimum = 7
	maximum = 48
Slowest packet = 64725
Flit latency average = 19.7708
	minimum = 7
	maximum = 48
Slowest flit = 64725
Fragmentation average = 0
	minimum = 0
	maximum = 0
Injected packet rate average = 0.0514375
	minimum = 0.042 (at node 10)
	maximum = 0.059 (at node 1)
Accepted packet rate average = 0.0514063
	minimum = 0.0425 (at node 10)
	maximum = 0.0595 (at node 4)
Injected flit rate average = 0.0514375
	minimum = 0.042 (at node 10)
	maximum = 0.059 (at node 1)
Accepted flit rate average= 0.0514063
	minimum = 0.0425 (at node 10)
	maximum = 0.0595 (at node 4)
Injected packet length average = 1
Accepted packet length average = 1
Total in-flight flits = 16 (16 measured)
latency change    = 0.0136854
throughput change = 0.00668693
Class 0:
Packet latency average = 19.7206
	minimum = 7
	maximum = 48
Network latency average = 19.7206
	minimum = 7
	maximum = 48
Slowest packet = 64725
Flit latency average = 19.7284
	minimum = 7
	maximum = 48
Slowest flit = 64725
Fragmentation average = 0
	minimum = 0
	maximum = 0
Injected packet rate average = 0.051
	minimum = 0.045 (at node 10)
	maximum = 0.057 (at node 1)
Accepted packet rate average = 0.0509375
	minimum = 0.0453333 (at node 10)
	maximum = 0.0573333 (at node 4)
Injected flit rate average = 0.051
	minimum = 0.045 (at node 10)
	maximum = 0.057 (at node 1)
Accepted flit rate average= 0.0509375
	minimum = 0.0453333 (at node 10)
	maximum = 0.0573333 (at node 4)
Injected packet length average = 1
Accepted packet length average = 1
Total in-flight flits = 18 (18 measured)
latency change    = 0.00197424
throughput change = 0.00920245
Draining all recorded packets ...
Draining remaining packets ...
Time taken is 6075 cycles
Class 0:
Packet latency average = 19.6444
	minimum = 7
	maximum = 39
Network latency average = 19.6444
	minimum = 7
	maximum = 39
Slowest packet = 67323
Flit latency average = 19.6444
	minimum = 7
	maximum = 39
Slowest flit = 67323
Fragmentation average = 0
	minimum = 0
	maximum = 0
Injected packet rate average = 0.051625
	minimum = 0.038 (at node 12)
	maximum = 0.063 (at node 2)
Accepted packet rate average = 0.050625
	minimum = 0.038 (at node 3)
	maximum = 0.063 (at node 1)
Injected flit rate average = 0.051625
	minimum = 0.038 (at node 12)
	maximum = 0.063 (at node 2)
Accepted flit rate average= 0.050625
	minimum = 0.038 (at node 3)
	maximum = 0.063 (at node 1)
Injected packet length average = 1
Accepted packet length average = 1
Total in-flight flits = 16 (0 measured)
latency change    = 1
throughput change = 1
Class 0:
Packet latency average = 19.303
	minimum = 7
	maximum = 39
Network latency average = 19.303
	minimum = 7
	maximum = 39
Slowest packet = 67323
Flit latency average = 19.303
	minimum = 7
	maximum = 39
Slowest flit = 67323
Fragmentation average = 0
	minimum = 0
	maximum = 0
Injected packet rate average = 0.0523438
	minimum = 0.042 (at node 12)
	maximum = 0.058 (at node 2)
Accepted packet rate average = 0.051875
	minimum = 0.042 (at node 3)
	maximum = 0.0575 (at node 8)
Injected flit rate average = 0.0523438
	minimum = 0.042 (at node 12)
	maximum = 0.058 (at node 2)
Accepted flit rate average= 0.051875
	minimum = 0.042 (at node 3)
	maximum = 0.0575 (at node 8)
Injected packet length average = 1
Accepted packet length average = 1
Total in-flight flits = 15 (0 measured)
latency change    = 0.017688
throughput change = 0.0240964
Class 0:
Packet latency average = 19.8904
	minimum = 7
	maximum = 41
Network latency average = 19.8904
	minimum = 7
	maximum = 41
Slowest packet = 68877
Flit latency average = 19.8904
	minimum = 7
	maximum = 41
Slowest flit = 68877
Fragmentation average = 0
	minimum = 0
	maximum = 0
Injected packet rate average = 0.049
	minimum = 0.04 (at node 1)
	maximum = 0.061 (at node 3)
Accepted packet rate average = 0.0490625
	minimum = 0.042 (at node 4)
	maximum = 0.059 (at node 12)
Injected flit rate average = 0.049
	minimum = 0.04 (at node 1)
	maximum = 0.061 (at node 3)
Accepted flit rate average= 0.0490625
	minimum = 0.042 (at node 4)
	maximum = 0.059 (at node 12)
Injected packet length average = 1
Accepted packet length average = 1
Total in-flight flits = 14 (0 measured)
latency change    = 0.0295335
throughput change = 0.0573248
Warmed up ...Time used is 3000 cycles
Class 0:
Packet latency average = 19.0155
	minimum = 7
	maximum = 42
Network latency average = 19.0155
	minimum = 7
	maximum = 42
Slowest packet = 69627
Flit latency average = 19.1711
	minimum = 7
	maximum = 42
Slowest flit = 69627
Fragmentation average = 0
	minimum = 0
	maximum = 0
Injected packet rate average = 0.049375
	minimum = 0.036 (at node 2)
	maximum = 0.06 (at node 14)
Accepted packet rate average = 0.0493125
	minimum = 0.036 (at node 8)
	maximum = 0.059 (at node 10)
Injected flit rate average = 0.049375
	minimum = 0.036 (at node 2)
	maximum = 0.06 (at node 14)
Accepted flit rate average= 0.0493125
	minimum = 0.036 (at node 8)
	maximum = 0.059 (at node 10)
Injected packet length average = 1
Accepted packet length average = 1
Total in-flight flits = 15 (15 measured)
latency change    = 0.0460131
throughput change = 0.00506971
Class 0:
Packet latency average = 19.3295
	minimum = 7
	maximum = 42
Network latency average = 19.3295
	minimum = 7
	maximum = 42
Slowest packet = 69627
Flit latency average = 19.4044
	minimum = 7
	maximum = 42
Slowest flit = 69627
Fragmentation average = 0
	minimum = 0
	maximum = 0
Injected packet rate average = 0.0492812
	minimum = 0.041 (at node 2)
	maximum = 0.0615 (at node 1)
Accepted packet rate average = 0.049375
	minimum = 0.041 (at node 8)
	maximum = 0.0615 (at node 4)
Injected flit rate average = 0.0492812
	minimum = 0.041 (at node 2)
	maximum = 0.0615 (at node 1)
Accepted flit rate average= 0.049375
	minimum = 0.041 (at node 8)
	maximum = 0.0615 (at node 4)
Injected packet length average = 1
Accepted packet length average = 1
Total in-flight flits = 11 (11 measured)
latency change    = 0.0162455
throughput change = 0.00126582
Class 0:
Packet latency average = 19.5314
	minimum = 7
	maximum = 42
Network latency average = 19.5314
	minimum = 7
	maximum = 42
Slowest packet = 69627
Flit latency average = 19.5797
	minimum = 7
	maximum = 42
Slowest flit = 69627
Fragmentation average = 0
	minimum = 0
	maximum = 0
Injected packet rate average = 0.0498333
	minimum = 0.0443333 (at node 9)
	maximum = 0.0586667 (at node 1)
Accepted packet rate average = 0.0497708
	minimum = 0.044 (at node 6)
	maximum = 0.0583333 (at node 4)
Injected flit rate average = 0.0498333
	minimum = 0.0443333 (at node 9)
	maximum = 0.0586667 (at node 1)
Accepted flit rate average= 0.0497708
	minimum = 0.044 (at node 6)
	maximum = 0.0583333 (at node 4)
Injected packet length average = 1
Accepted packet length average = 1
Total in-flight flits = 17 (17 measured)
latency change    = 0.0103355
throughput change = 0.00795312
Draining all recorded packets ...
Draining remaining packets ...
Time taken is 6058 cycles
Class 0:
Packet latency average = 19.5089
	minimum = 7
	maximum = 44
Network latency average = 19.5089
	minimum = 7
	maximum = 44
Slowest packet = 72045
Flit latency average = 19.5089
	minimum = 7
	maximum = 44
Slowest flit = 72045
Fragmentation average = 0
	minimum = 0
	maximum = 0
Injected packet rate average = 0.050375
	minimum = 0.041 (at node 7)
	maximum = 0.065 (at node 15)
Accepted packet rate average = 0.049375
	minimum = 0.04 (at node 13)
	maximum = 0.065 (at node 15)
Injected flit rate average = 0.050375
	minimum = 0.041 (at node 7)
	maximum = 0.065 (at node 15)
Accepted flit rate average= 0.049375
	minimum = 0.04 (at node 13)
	maximum = 0.065 (at node 15)
Injected packet length average = 1
Accepted packet length average = 1
Total in-flight flits = 16 (0 measured)
latency change    = 1
throughput change = 1
Class 0:
Packet latency average = 19.4356
	minimum = 7
	maximum = 44
Network latency average = 19.4356
	minimum = 7
	maximum = 44
Slowest packet = 72045
Flit latency average = 19.4356
	minimum = 7
	maximum = 44
Slowest flit = 72045
Fragmentation average = 0
	minimum = 0
	maximum = 0
Injected packet rate average = 0.0487812
	minimum = 0.0415 (at node 14)
	maximum = 0.0585 (at node 15)
Accepted packet rate average = 0.0482812
	minimum = 0.041 (at node 11)
	maximum = 0.0585 (at node 15)
Injected flit rate average = 0.0487812
	minimum = 0.0415 (at node 14)
	maximum = 0.0585 (at node 15)
Accepted flit rate average= 0.0482812
	minimum = 0.041 (at node 11)
	maximum = 0.0585 (at node 15)
Injected packet length average = 1
Accepted packet length average = 1
Total in-flight flits = 16 (0 measured)
latency change    = 0.00376948
throughput change = 0.0226537
Class 0:
Packet latency average = 19.7401
	minimum = 7
	maximum = 44
Network latency average = 19.7401
	minimum = 7
	maximum = 44
Slowest packet = 74122
Flit latency average = 19.7401
	minimum = 7
	maximum = 44
Slowest flit = 74122
Fragmentation average = 0
	minimum = 0
	maximum = 0
Injected packet rate average = 0.051625
	minimum = 0.044 (at node 8)
	maximum = 0.058 (at node 7)
Accepted packet rate average = 0.0519375
	minimum = 0.042 (at node 2)
	maximum = 0.059 (at node 3)
Injected flit rate average = 0.051625
[...]
	minimum = 0.042 (at node 5)
	maximum = 0.064 (at node 13)
Accepted packet rate average = 0.0528125
	minimum = 0.042 (at node 5)
	maximum = 0.063 (at node 7)
Injected flit rate average = 0.05275
	minimum = 0.042 (at node 5)
	maximum = 0.064 (at node 13)
Accepted flit rate average= 0.0528125
	minimum = 0.042 (at node 5)
	maximum = 0.063 (at node 7)
Injected packet length average = 1
Accepted packet length average = 1
Total in-flight flits = 13 (0 measured)
latency change    = 0.0340178
throughput change = 0.0591716
Warmed up ...Time used is 3000 cycles
Class 0:
Packet latency average = 19.2719
	minimum = 7
	maximum = 41
Network latency average = 19.2719
	minimum = 7
	maximum = 41
Slowest packet = 491332
Flit latency average = 19.3354
	minimum = 7
	maximum = 41
Slowest flit = 491332
Fragmentation average = 0
	minimum = 0
	maximum = 0
Injected packet rate average = 0.0505625
	minimum = 0.036 (at node 13)
	maximum = 0.073 (at node 4)
Accepted packet rate average = 0.0506875
	minimum = 0.037 (at node 7)
	maximum = 0.073 (at node 1)
Injected flit rate average = 0.0505625
	minimum = 0.036 (at node 13)
	maximum = 0.073 (at node 4)
Accepted flit rate average= 0.0506875
	minimum = 0.037 (at node 7)
	maximum = 0.073 (at node 1)
Injected packet length average = 1
Accepted packet length average = 1
Total in-flight flits = 11 (11 measured)
latency change    = 0.0439195
throughput change = 0.0419236
Class 0:
Packet latency average = 19.4248
	minimum = 7
	maximum = 41
Network latency average = 19.4248
	minimum = 7
	maximum = 41
Slowest packet = 491332
Flit latency average = 19.4565
	minimum = 7
	maximum = 41
Slowest flit = 491332
Fragmentation average = 0
	minimum = 0
	maximum = 0
Injected packet rate average = 0.048875
	minimum = 0.04 (at node 7)
	maximum = 0.0635 (at node 4)
Accepted packet rate average = 0.0488125
	minimum = 0.0395 (at node 13)
	maximum = 0.0645 (at node 1)
Injected flit rate average = 0.048875
	minimum = 0.04 (at node 7)
	maximum = 0.0635 (at node 4)
Accepted flit rate average= 0.0488125
	minimum = 0.0395 (at node 13)
	maximum = 0.0645 (at node 1)
Injected packet length average = 1
Accepted packet length average = 1
Total in-flight flits = 15 (15 measured)
latency change    = 0.00786934
throughput change = 0.0384123
Class 0:
Packet latency average = 19.2283
	minimum = 7
	maximum = 41
Network latency average = 19.2283
	minimum = 7
	maximum = 41
Slowest packet = 491332
Flit latency average = 19.25
	minimum = 7
	maximum = 41
Slowest flit = 491332
Fragmentation average = 0
	minimum = 0
	maximum = 0
Injected packet rate average = 0.0499792
	minimum = 0.0443333 (at node 12)
	maximum = 0.0603333 (at node 4)
Accepted packet rate average = 0.05
	minimum = 0.044 (at node 3)
	maximum = 0.061 (at node 1)
Injected flit rate average = 0.0499792
	minimum = 0.0443333 (at node 12)
	maximum = 0.0603333 (at node 4)
Accepted flit rate average= 0.05
	minimum = 0.044 (at node 3)
	maximum = 0.061 (at node 1)
Injected packet length average = 1
Accepted packet length average = 1
Total in-flight flits = 12 (12 measured)
latency change    = 0.0102177
throughput change = 0.02375
Draining all recorded packets ...
Draining remaining packets ...
Time taken is 6069 cycles
Class 0:
Packet latency average = 18.9545
	minimum = 7
	maximum = 44
Network latency average = 18.9545
	minimum = 7
	maximum = 44
Slowest packet = 493445
Flit latency average = 18.9545
	minimum = 7
	maximum = 44
Slowest flit = 493445
Fragmentation average = 0
	minimum = 0
	maximum = 0
Injected packet rate average = 0.050625
	minimum = 0.037 (at node 11)
	maximum = 0.065 (at node 6)
Accepted packet rate average = 0.0495
	minimum = 0.037 (at node 14)
	maximum = 0.064 (at node 9)
Injected flit rate average = 0.050625
	minimum = 0.037 (at node 11)
	maximum = 0.065 (at node 6)
Accepted flit rate average= 0.0495
	minimum = 0.037 (at node 14)
	maximum = 0.064 (at node 9)
Injected packet length average = 1
Accepted packet length average = 1
Total in-flight flits = 18 (0 measured)
latency change    = 1
throughput change = 1
Class 0:
Packet latency average = 19.3385
	minimum = 7
	maximum = 44
Network latency average = 19.3385
	minimum = 7
	maximum = 44
Slowest packet = 493445
Flit latency average = 19.3385
	minimum = 7
	maximum = 44
Slowest flit = 493445
Fragmentation average = 0
	minimum = 0
	maximum = 0
Injected packet rate average = 0.0505312
	minimum = 0.04 (at node 11)
	maximum = 0.0595 (at node 0)
Accepted packet rate average = 0.0502187
	minimum = 0.039 (at node 14)
	maximum = 0.0595 (at node 0)
Injected flit rate average = 0.0505312
	minimum = 0.04 (at node 11)
	maximum = 0.0595 (at node 0)
Accepted flit rate average= 0.0502187
	minimum = 0.039 (at node 14)
	maximum = 0.0595 (at node 0)
Injected packet length average = 1
Accepted packet length average = 1
Total in-flight flits = 10 (0 measured)
latency change    = 0.0198554
throughput change = 0.0143124
Class 0:
Packet latency average = 19.155
	minimum = 7
	maximum = 39
Network latency average = 19.155
	minimum = 7
	maximum = 39
Slowest packet = 495223
Flit latency average = 19.155
	minimum = 7
	maximum = 39
Slowest flit = 495223
Fragmentation average = 0
	minimum = 0
	maximum = 0
Injected packet rate average = 0.0515
	minimum = 0.041 (at node 0)
	maximum = 0.065 (at node 6)
Accepted packet rate average = 0.0508125
	minimum = 0.04 (at node 0)
	maximum = 0.066 (at node 9)
Injected flit rate average = 0.0515
	minimum = 0.041 (at node 0)
	maximum = 0.065 (at node 6)
Accepted flit rate average= 0.0508125
	minimum = 0.04 (at node 0)
	maximum = 0.066 (at node 9)
Injected packet length average = 1
Accepted packet length average = 1
Total in-flight flits = 21 (0 measured)
latency change    = 0.00958171
throughput change = 0.0116851
Warmed up ...Time used is 3000 cycles
Class 0:
Packet latency average = 19.9653
	minimum = 7
	maximum = 45
Network latency average = 19.9653
	minimum = 7
	maximum = 45
Slowest packet = 495708
Flit latency average = 20.1491
	minimum = 7
	maximum = 45
Slowest flit = 495708
Fragmentation average = 0
	minimum = 0
	maximum = 0
Injected packet rate average = 0.0496875
	minimum = 0.035 (at node 15)
	maximum = 0.058 (at node 7)
Accepted packet rate average = 0.049875
	minimum = 0.035 (at node 15)
	maximum = 0.057 (at node 13)
Injected flit rate average = 0.0496875
	minimum = 0.035 (at node 15)
	maximum = 0.058 (at node 7)
Accepted flit rate average= 0.049875
	minimum = 0.035 (at node 15)
	maximum = 0.057 (at node 13)
Injected packet length average = 1
Accepted packet length average = 1
Total in-flight flits = 18 (18 measured)
latency change    = 0.040584
throughput change = 0.018797
Class 0:
Packet latency average = 20.0836
	minimum = 7
	maximum = 45
Network latency average = 20.0836
	minimum = 7
	maximum = 45
Slowest packet = 495708
Flit latency average = 20.1758
	minimum = 7
	maximum = 45
Slowest flit = 495708
Fragmentation average = 0
	minimum = 0
	maximum = 0
Injected packet rate average = 0.0486562
	minimum = 0.0415 (at node 10)
	maximum = 0.057 (at node 12)
Accepted packet rate average = 0.048875
	minimum = 0.0415 (at node 10)
	maximum = 0.058 (at node 3)
Injected flit rate average = 0.0486562
	minimum = 0.0415 (at node 10)
	maximum = 0.057 (at node 12)
Accepted flit rate average= 0.048875
	minimum = 0.0415 (at node 10)
	maximum = 0.058 (at node 3)
Injected packet length average = 1
Accepted packet length average = 1
Total in-flight flits = 14 (14 measured)
latency change    = 0.00589299
throughput change = 0.0204604
Class 0:
Packet latency average = 20.0419
	minimum = 7
	maximum = 45
Network latency average = 20.0419
	minimum = 7
	maximum = 45
Slowest packet = 495708
Flit latency average = 20.1022
	minimum = 7
	maximum = 45
Slowest flit = 495708
Fragmentation average = 0
	minimum = 0
	maximum = 0
Injected packet rate average = 0.0498333
	minimum = 0.0426667 (at node 10)
	maximum = 0.0606667 (at node 12)
Accepted packet rate average = 0.050125
	minimum = 0.0426667 (at node 10)
	maximum = 0.061 (at node 3)
Injected flit rate average = 0.0498333
	minimum = 0.0426667 (at node 10)
	maximum = 0.0606667 (at node 12)
Accepted flit rate average= 0.050125
	minimum = 0.0426667 (at node 10)
	maximum = 0.061 (at node 3)
Injected packet length average = 1
Accepted packet length average = 1
Total in-flight flits = 7 (7 measured)
latency change    = 0.00207937
throughput change = 0.0249377
Draining all recorded packets ...
Draining remaining packets ...
Time taken is 6053 cycles
Class 0:
Packet latency average = 19.3107
	minimum = 7
	maximum = 42
Network latency average = 19.3107
	minimum = 7
	maximum = 42
Slowest packet = 498479
Flit latency average = 19.3107
	minimum = 7
	maximum = 42
Slowest flit = 498479
Fragmentation average = 0
	minimum = 0
	maximum = 0
Injected packet rate average = 0.049875
	minimum = 0.04 (at node 12)
	maximum = 0.06 (at node 6)
Accepted packet rate average = 0.048875
	minimum = 0.038 (at node 3)
	maximum = 0.06 (at node 9)
Injected flit rate average = 0.049875
	minimum = 0.04 (at node 12)
	maximum = 0.06 (at node 6)
Accepted flit rate average= 0.048875
	minimum = 0.038 (at node 3)
	maximum = 0.06 (at node 9)
Injected packet length average = 1
Accepted packet length average = 1
Total in-flight flits = 16 (0 measured)
latency change    = 1
throughput change = 1
Class 0:
Packet latency average = 19.5695
	minimum = 7
	maximum = 42
Network latency average = 19.5695
	minimum = 7
	maximum = 42
Slowest packet = 498479
Flit latency average = 19.5695
	minimum = 7
	maximum = 42
Slowest flit = 498479
Fragmentation average = 0
	minimum = 0
	maximum = 0
Injected packet rate average = 0.049375
	minimum = 0.044 (at node 12)
	maximum = 0.0595 (at node 7)
Accepted packet rate average = 0.0487812
	minimum = 0.043 (at node 3)
	maximum = 0.059 (at node 13)
Injected flit rate average = 0.049375
	minimum = 0.044 (at node 12)
	maximum = 0.0595 (at node 7)
Accepted flit rate average= 0.0487812
	minimum = 0.043 (at node 3)
	maximum = 0.059 (at node 13)
Injected packet length average = 1
Accepted packet length average = 1
Total in-flight flits = 19 (0 measured)
latency change    = 0.0132229
throughput change = 0.00192184
Class 0:
Packet latency average = 19.5193
	minimum = 7
	maximum = 53
Network latency average = 19.5193
	minimum = 7
	maximum = 53
Slowest packet = 499813
Flit latency average = 19.5193
	minimum = 7
	maximum = 53
Slowest flit = 499813
Fragmentation average = 0
	minimum = 0
	maximum = 0
Injected packet rate average = 0.0500625
	minimum = 0.034 (at node 15)
	maximum = 0.067 (at node 6)
Accepted packet rate average = 0.0501875
	minimum = 0.034 (at node 15)
	maximum = 0.069 (at node 9)
Injected flit rate average = 0.0500625
	minimum = 0.034 (at node 15)
	maximum = 0.067 (at node 6)
Accepted flit rate average= 0.0501875
	minimum = 0.034 (at node 15)
	maximum = 0.069 (at node 9)
Injected packet length average = 1
Accepted packet length average = 1
Total in-flight flits = 17 (0 measured)
latency change    = 0.00257202
throughput change = 0.0280199
Warmed up ...Time used is 3000 cycles
Class 0:
Packet latency average = 19.9004
	minimum = 7
	maximum = 47
Network latency average = 19.9004
	minimum = 7
	maximum = 47
Slowest packet = 500280
Flit latency average = 19.9866
	minimum = 7
	maximum = 47
Slowest flit = 500280
Fragmentation average = 0
	minimum = 0
	maximum = 0
Injected packet rate average = 0.051375
	minimum = 0.043 (at node 15)
	maximum = 0.062 (at node 3)
Accepted packet rate average = 0.05125
	minimum = 0.043 (at node 15)
	maximum = 0.062 (at node 12)
Injected flit rate average = 0.051375
	minimum = 0.043 (at node 15)
	maximum = 0.062 (at node 3)
Accepted flit rate average= 0.05125
	minimum = 0.043 (at node 15)
	maximum = 0.062 (at node 12)
Injected packet length average = 1
Accepted packet length average = 1
Total in-flight flits = 19 (19 measured)
latency change    = 0.0191489
throughput change = 0.0207317
Class 0:
Packet latency average = 19.6737
	minimum = 7
	maximum = 47
Network latency average = 19.6737
	minimum = 7
	maximum = 47
Slowest packet = 500280
Flit latency average = 19.7205
	minimum = 7
	maximum = 47
Slowest flit = 500280
Fragmentation average = 0
	minimum = 0
	maximum = 0
Injected packet rate average = 0.049625
	minimum = 0.044 (at node 9)
	maximum = 0.0565 (at node 3)
Accepted packet rate average = 0.04975
	minimum = 0.044 (at node 6)
	maximum = 0.0555 (at node 11)
Injected flit rate average = 0.049625
	minimum = 0.044 (at node 9)
	maximum = 0.0565 (at node 3)
Accepted flit rate average= 0.04975
	minimum = 0.044 (at node 6)
	maximum = 0.0555 (at node 11)
Injected packet length average = 1
Accepted packet length average = 1
Total in-flight flits = 13 (13 measured)
latency change    = 0.0115242
throughput change = 0.0301508
Class 0:
Packet latency average = 19.5544
	minimum = 7
	maximum = 47
Network latency average = 19.554
	minimum = 7
	maximum = 47
Slowest packet = 500280
Flit latency average = 19.586
	minimum = 7
	maximum = 47
Slowest flit = 500280
Fragmentation average = 0
	minimum = 0
	maximum = 0
Injected packet rate average = 0.0499375
	minimum = 0.045 (at node 11)
	maximum = 0.0556667 (at node 0)
Accepted packet rate average = 0.0499167
	minimum = 0.045 (at node 14)
	maximum = 0.0556667 (at node 0)
Injected flit rate average = 0.0499375
	minimum = 0.045 (at node 11)
	maximum = 0.0556667 (at node 0)
Accepted flit rate average= 0.0499167
	minimum = 0.045 (at node 14)
	maximum = 0.0556667 (at node 0)
Injected packet length average = 1
Accepted packet length average = 1
Total in-flight flits = 18 (18 measured)
latency change    = 0.00609663
throughput change = 0.0033389
Draining all recorded packets ...
Draining remaining packets ...
Time taken is 6063 cycles
Class 0:
Packet latency average = 20.0628
	minimum = 7
	maximum = 55
Network latency average = 20.0628
	minimum = 7
	maximum = 55
Slowest packet = 503142
Flit latency average = 20.0628
	minimum = 7
	maximum = 55
Slowest flit = 503142
Fragmentation average = 0
	minimum = 0
	maximum = 0
Injected packet rate average = 0.0479375
	minimum = 0.042 (at node 13)
	maximum = 0.059 (at node 1)
Accepted packet rate average = 0.04675
	minimum = 0.041 (at node 7)
	maximum = 0.057 (at node 4)
Injected flit rate average = 0.0479375
	minimum = 0.042 (at node 13)
	maximum = 0.059 (at node 1)
Accepted flit rate average= 0.04675
	minimum = 0.041 (at node 7)
	maximum = 0.057 (at node 4)
Injected packet length average = 1
Accepted packet length average = 1
Total in-flight flits = 19 (0 measured)
latency change    = 1
throughput change = 1
Class 0:
Packet latency average = 20.0326
	minimum = 7
	maximum = 55
Network latency average = 20.0326
	minimum = 7
	maximum = 55
Slowest packet = 503142
Flit latency average = 20.0326
	minimum = 7
	maximum = 55
Slowest flit = 503142
Fragmentation average = 0
	minimum = 0
	maximum = 0
Injected packet rate average = 0.0485937
	minimum = 0.0415 (at node 6)
	maximum = 0.0585 (at node 3)
Accepted packet rate average = 0.048
	minimum = 0.04 (at node 9)
	maximum = 0.058 (at node 12)
Injected flit rate average = 0.0485937
	minimum = 0.0415 (at node 6)
	maximum = 0.0585 (at node 3)
Accepted flit rate average= 0.048
	minimum = 0.04 (at node 9)
	maximum = 0.058 (at node 12)
Injected packet length average = 1
Accepted packet length average = 1
Total in-flight flits = 19 (0 measured)
latency change    = 0.00151165
throughput change = 0.0260417
Class 0:
Packet latency average = 18.8443
	minimum = 7
	maximum = 39
Network latency average = 18.8443
	minimum = 7
	maximum = 39
Slowest packet = 504610
Flit latency average = 18.8443
	minimum = 7
	maximum = 39
Slowest flit = 504610
Fragmentation average = 0
	minimum = 0
	maximum = 0
Injected packet rate average = 0.0484375
	minimum = 0.036 (at node 7)
	maximum = 0.059 (at node 15)
Accepted packet rate average = 0.0485625
	minimum = 0.037 (at node 13)
	maximum = 0.059 (at node 15)
Injected flit rate average = 0.0484375
	minimum = 0.036 (at node 7)
	maximum = 0.059 (at node 15)
Accepted flit rate average= 0.0485625
	minimum = 0.037 (at node 13)
	maximum = 0.059 (at node 15)
Injected packet length average = 1
Accepted packet length average = 1
Total in-flight flits = 17 (0 measured)
latency change    = 0.0630578
throughput change = 0.011583
Warmed up ...Time used is 3000 cycles
Class 0:
Packet latency average = 19.2382
	minimum = 7
	maximum = 39
Network latency average = 19.2382
	minimum = 7
	maximum = 39
Slowest packet = 505106
Flit latency average = 19.3404
	minimum = 7
	maximum = 39
Slowest flit = 505106
Fragmentation average = 0
	minimum = 0
	maximum = 0
Injected packet rate average = 0.0501875
	minimum = 0.039 (at node 13)
	maximum = 0.061 (at node 11)
Accepted packet rate average = 0.050125
	minimum = 0.037 (at node 7)
	maximum = 0.06 (at node 2)
Injected flit rate average = 0.0501875
	minimum = 0.039 (at node 13)
	maximum = 0.061 (at node 11)
Accepted flit rate average= 0.050125
	minimum = 0.037 (at node 7)
	maximum = 0.06 (at node 2)
Injected packet length average = 1
Accepted packet length average = 1
Total in-flight flits = 18 (18 measured)
latency change    = 0.0204771
throughput change = 0.0311721
Class 0:
Packet latency average = 19.1388
	minimum = 7
	maximum = 39
Network latency average = 19.1388
	minimum = 7
	maximum = 39
Slowest packet = 505106
Flit latency average = 19.1905
	minimum = 7
	maximum = 39
Slowest flit = 505106
Fragmentation average = 0
	minimum = 0
	maximum = 0
Injected packet rate average = 0.0504687
	minimum = 0.039 (at node 13)
	maximum = 0.0605 (at node 5)
Accepted packet rate average = 0.0505312
	minimum = 0.0395 (at node 7)
	maximum = 0.06 (at node 5)
Injected flit rate average = 0.0504687
	minimum = 0.039 (at node 13)
	maximum = 0.0605 (at node 5)
Accepted flit rate average= 0.0505312
	minimum = 0.0395 (at node 7)
	maximum = 0.06 (at node 5)
Injected packet length average = 1
Accepted packet length average = 1
Total in-flight flits = 15 (15 measured)
latency change    = 0.00519713
throughput change = 0.00803958
Class 0:
Packet latency average = 19.2075
	minimum = 7
	maximum = 39
Network latency average = 19.2075
	minimum = 7
	maximum = 39
Slowest packet = 505106
Flit latency average = 19.2415
	minimum = 7
	maximum = 39
Slowest flit = 505106
Fragmentation average = 0
	minimum = 0
	maximum = 0
Injected packet rate average = 0.0505
	minimum = 0.04 (at node 13)
	maximum = 0.0596667 (at node 5)
Accepted packet rate average = 0.0505625
	minimum = 0.0403333 (at node 7)
	maximum = 0.06 (at node 5)
Injected flit rate average = 0.0505
	minimum = 0.04 (at node 13)
	maximum = 0.0596667 (at node 5)
Accepted flit rate average= 0.0505625
	minimum = 0.0403333 (at node 7)
	maximum = 0.06 (at node 5)
Injected packet length average = 1
Accepted packet length average = 1
Total in-flight flits = 14 (14 measured)
latency change    = 0.00357772
throughput change = 0.000618047
Draining all recorded packets ...
Draining remaining packets ...
Time taken is 6068 cycles
====== Overall Traffic Statistics ======
====== Traffic class 0 ======
Packet latency average = 19.5833 (100 samples)
	minimum = 7 (100 samples)
	maximum = 44.47 (100 samples)
Network latency average = 19.5833 (100 samples)
	minimum = 7 (100 samples)
	maximum = 44.46 (100 samples)
Flit latency average = 19.6124 (100 samples)
	minimum = 7 (100 samples)
	maximum = 44.62 (100 samples)
Fragmentation average = 0 (100 samples)
	minimum = 0 (100 samples)
	maximum = 0 (100 samples)
Injected packet rate average = 0.0501576 (100 samples)
	minimum = 0.0431958 (100 samples)
	maximum = 0.0566952 (100 samples)
Accepted packet rate average = 0.0501739 (100 samples)
	minimum = 0.0432905 (100 samples)
	maximum = 0.056712 (100 samples)
Injected flit rate average = 0.0501576 (100 samples)
	minimum = 0.0431958 (100 samples)
	maximum = 0.0566952 (100 samples)
Accepted flit rate average = 0.0501739 (100 samples)
	minimum = 0.0432905 (100 samples)
	maximum = 0.056712 (100 samples)
Injected packet size average = 1 (100 samples)
Accepted packet size average = 1 (100 samples)
Hops average = 3.49891 (100 samples)
Total run time 7.36714
