BEGIN Configuration File: /tmp/tmprur9q9iq.cfg
topology = mesh;
k = 4;
n = 2;
routing_function = dor;
num_vcs = 4;
vc_buf_size = 4;
wait_for_tail_credit = 1;
vc_allocator = islip;
sw_allocator = islip;
alloc_iters = 1;
credit_delay = 2;
routing_delay = 1;
vc_alloc_delay = 1;
sw_alloc_delay = 1;
input_speedup = 2;
output_speedup = 1;
internal_speedup = 1.0;
traffic = transpose;
packet_size = 1;
sim_type = latency;
injection_rate = 0.01;
warmup_periods = 3;
sample_period = 1000;
sim_count = 100;
seed = 1;

END Configuration File: /tmp/tmprur9q9iq.cfg
Class 0:
Packet latency average = 18.494
	minimum = 7
	maximum = 37
Network latency average = 18.494
	minimum = 7
	maximum = 37
Slowest packet = 5
Flit latency average = 18.494
	minimum = 7
	maximum = 37
Slowest flit = 5
Fragmentation average = 0
	minimum = 0
	maximum = 0
Injected packet rate average = 0.0108125
	minimum = 0.006 (at node 2)
	maximum = 0.019 (at node 7)
Accepted packet rate average = 0.0105
	minimum = 0.006 (at node 8)
	maximum = 0.019 (at node 13)
Injected flit rate average = 0.0108125
	minimum = 0.006 (at node 2)
	maximum = 0.019 (at node 7)
Accepted flit rate average= 0.0105
	minimum = 0.006 (at node 8)
	maximum = 0.019 (at node 13)
Injected packet length average = 1
Accepted packet length average = 1
Total in-flight flits = 5 (0 measured)
latency change    = 1
throughput change = 1
Class 0:
Packet latency average = 19.8247
	minimum = 7
	maximum = 38
Network latency average = 19.8247
	minimum = 7
	maximum = 38
Slowest packet = 172
Flit latency average = 19.8247
	minimum = 7
	maximum = 38
Slowest flit = 172
Fragmentation average = 0
	minimum = 0
	maximum = 0
Injected packet rate average = 0.0110312
	minimum = 0.0065 (at node 2)
	maximum = 0.014 (at node 7)
Accepted packet rate average = 0.010875
	minimum = 0.0065 (at node 8)
	maximum = 0.014 (at node 3)
Injected flit rate average = 0.0110312
	minimum = 0.0065 (at node 2)
	maximum = 0.014 (at node 7)
Accepted flit rate average= 0.010875
	minimum = 0.0065 (at node 8)
	maximum = 0.014 (at node 3)
Injected packet length average = 1
Accepted packet length average = 1
Total in-flight flits = 5 (0 measured)
latency change    = 0.0671215
throughput change = 0.0344828
Class 0:
Packet latency average = 19.6829
	minimum = 7
	maximum = 37
Network latency average = 19.6829
	minimum = 7
	maximum = 37
Slowest packet = 358
Flit latency average = 19.6829
	minimum = 7
	maximum = 37
Slowest flit = 358
Fragmentation average = 0
	minimum = 0
	maximum = 0
Injected packet rate average = 0.0100625
	minimum = 0.004 (at node 7)
	maximum = 0.018 (at node 14)
Accepted packet rate average = 0.01025
	minimum = 0.004 (at node 13)
	maximum = 0.019 (at node 11)
Injected flit rate average = 0.0100625
	minimum = 0.004 (at node 7)
	maximum = 0.018 (at node 14)
Accepted flit rate average= 0.01025
	minimum = 0.004 (at node 13)
	maximum = 0.019 (at node 11)
Injected packet length average = 1
Accepted packet length average = 1
Total in-flight flits = 2 (0 measured)
latency change    = 0.00720349
throughput change = 0.0609756
Warmed up ...Time used is 3000 cycles
Class 0:
Packet latency average = 19.2148
	minimum = 7
	maximum = 37
Network latency average = 19.2148
	minimum = 7
	maximum = 37
Slowest packet = 517
Flit latency average = 19.3179
	minimum = 7
	maximum = 37
Slowest flit = 517
Fragmentation average = 0
	minimum = 0
	maximum = 0
Injected packet rate average = 0.009375
	minimum = 0.006 (at node 0)
	maximum = 0.012 (at node 2)
Accepted packet rate average = 0.0094375
	minimum = 0.006 (at node 0)
	maximum = 0.012 (at node 8)
Injected flit rate average = 0.009375
	minimum = 0.006 (at node 0)
	maximum = 0.012 (at node 2)
Accepted flit rate average= 0.0094375
	minimum = 0.006 (at node 0)
	maximum = 0.012 (at node 8)
Injected packet length average = 1
Accepted packet length average = 1
Total in-flight flits = 1 (1 measured)
latency change    = 0.0243647
throughput change = 0.0860927
Class 0:
Packet latency average = 20.3153
	minimum = 7
	maximum = 37
Network latency average = 20.3153
	minimum = 7
	maximum = 37
Slowest packet = 517
Flit latency average = 20.3576
	minimum = 7
	maximum = 37
Slowest flit = 517
Fragmentation average = 0
	minimum = 0
	maximum = 0
Injected packet rate average = 0.00996875
	minimum = 0.007 (at node 10)
	maximum = 0.013 (at node 1)
Accepted packet rate average = 0.009875
	minimum = 0.007 (at node 10)
	maximum = 0.013 (at node 13)
Injected flit rate average = 0.00996875
	minimum = 0.007 (at node 10)
	maximum = 0.013 (at node 1)
Accepted flit rate average= 0.009875
	minimum = 0.007 (at node 10)
	maximum = 0.013 (at node 13)
Injected packet length average = 1
Accepted packet length average = 1
Total in-flight flits = 5 (5 measured)
latency change    = 0.0541721
throughput change = 0.0443038
Class 0:
Packet latency average = 19.9469
	minimum = 7
	maximum = 37
Network latency average = 19.9469
	minimum = 7
	maximum = 37
Slowest packet = 517
Flit latency average = 19.978
	minimum = 7
	maximum = 37
Slowest flit = 517
Fragmentation average = 0
	minimum = 0
	maximum = 0
Injected packet rate average = 0.0095625
	minimum = 0.006 (at node 13)
	maximum = 0.0123333 (at node 2)
Accepted packet rate average = 0.00945833
	minimum = 0.00666667 (at node 7)
	maximum = 0.0113333 (at node 8)
Injected flit rate average = 0.0095625
	minimum = 0.006 (at node 13)
	maximum = 0.0123333 (at node 2)
Accepted flit rate average= 0.00945833
	minimum = 0.00666667 (at node 7)
	maximum = 0.0113333 (at node 8)
Injected packet length average = 1
Accepted packet length average = 1
Total in-flight flits = 7 (7 measured)
latency change    = 0.0184682
throughput change = 0.0440529
Class 0:
Packet latency average = 19.6689
	minimum = 7
	maximum = 37
Network latency average = 19.6689
	minimum = 7
	maximum = 37
Slowest packet = 517
Flit latency average = 19.6931
	minimum = 7
	maximum = 37
Slowest flit = 517
Fragmentation average = 0
	minimum = 0
	maximum = 0
Injected packet rate average = 0.00948437
	minimum = 0.00725 (at node 13)
	maximum = 0.01175 (at node 2)
Accepted packet rate average = 0.00946875
	minimum = 0.0075 (at node 5)
	maximum = 0.0115 (at node 8)
Injected flit rate average = 0.00948437
	minimum = 0.00725 (at node 13)
	maximum = 0.01175 (at node 2)
Accepted flit rate average= 0.00946875
	minimum = 0.0075 (at node 5)
	maximum = 0.0115 (at node 8)
Injected packet length average = 1
Accepted packet length average = 1
Total in-flight flits = 3 (3 measured)
latency change    = 0.0141355
throughput change = 0.00110011
Class 0:
Packet latency average = 19.577
	minimum = 7
	maximum = 37
Network latency average = 19.577
	minimum = 7
	maximum = 37
Slowest packet = 517
Flit latency average = 19.5961
	minimum = 7
	maximum = 37
Slowest flit = 517
Fragmentation average = 0
	minimum = 0
	maximum = 0
Injected packet rate average = 0.0097
	minimum = 0.0084 (at node 1)
	maximum = 0.0118 (at node 4)
Accepted packet rate average = 0.0096875
	minimum = 0.0084 (at node 2)
	maximum = 0.0114 (at node 1)
Injected flit rate average = 0.0097
	minimum = 0.0084 (at node 1)
	maximum = 0.0118 (at node 4)
Accepted flit rate average= 0.0096875
	minimum = 0.0084 (at node 2)
	maximum = 0.0114 (at node 1)
Injected packet length average = 1
Accepted packet length average = 1
Total in-flight flits = 3 (3 measured)
latency change    = 0.00469436
throughput change = 0.0225806
Draining all recorded packets ...
Draining remaining packets ...
Time taken is 8035 cycles
Class 0:
Packet latency average = 19.5625
	minimum = 7
	maximum = 37
Network latency average = 19.5625
	minimum = 7
	maximum = 37
Slowest packet = 1301
Flit latency average = 19.5625
	minimum = 7
	maximum = 37
Slowest flit = 1301
Fragmentation average = 0
	minimum = 0
	maximum = 0
Injected packet rate average = 0.01025
	minimum = 0.007 (at node 5)
	maximum = 0.013 (at node 7)
Accepted packet rate average = 0.01
	minimum = 0.007 (at node 5)
	maximum = 0.013 (at node 10)
Injected flit rate average = 0.01025
	minimum = 0.007 (at node 5)
	maximum = 0.013 (at node 7)
Accepted flit rate average= 0.01
	minimum = 0.007 (at node 5)
	maximum = 0.013 (at node 10)
Injected packet length average = 1
Accepted packet length average = 1
Total in-flight flits = 4 (0 measured)
latency change    = 1
throughput change = 1
Class 0:
Packet latency average = 19.8483
	minimum = 7
	maximum = 37
Network latency average = 19.8483
	minimum = 7
	maximum = 37
Slowest packet = 1301
Flit latency average = 19.8483
	minimum = 7
	maximum = 37
Slowest flit = 1301
Fragmentation average = 0
	minimum = 0
	maximum = 0
Injected packet rate average = 0.0101875
	minimum = 0.0085 (at node 5)
	maximum = 0.013 (at node 2)
Accepted packet rate average = 0.0100938
	minimum = 0.0085 (at node 5)
	maximum = 0.013 (at node 8)
Injected flit rate average = 0.0101875
	minimum = 0.0085 (at node 5)
	maximum = 0.013 (at node 2)
Accepted flit rate average= 0.0100938
	minimum = 0.0085 (at node 5)
	maximum = 0.013 (at node 8)
Injected packet length average = 1
Accepted packet length average = 1
Total in-flight flits = 3 (0 measured)
latency change    = 0.0143991
throughput change = 0.00928793
Class 0:
Packet latency average = 19.0065
	minimum = 7
	maximum = 38
Network latency average = 19.0065
	minimum = 7
	maximum = 38
Slowest packet = 1641
Flit latency average = 19.0065
	minimum = 7
	maximum = 38
Slowest flit = 1641
Fragmentation average = 0
	minimum = 0
	maximum = 0
Injected packet rate average = 0.0095
	minimum = 0.003 (at node 8)
	maximum = 0.015 (at node 6)
Accepted packet rate average = 0.0096875
	minimum = 0.003 (at node 2)
	maximum = 0.015 (at node 6)
Injected flit rate average = 0.0095
	minimum = 0.003 (at node 8)
	maximum = 0.015 (at node 6)
Accepted flit rate average= 0.0096875
	minimum = 0.003 (at node 2)
	maximum = 0.015 (at node 6)
Injected packet length average = 1
Accepted packet length average = 1
Total in-flight flits = 0 (0 measured)
latency change    = 0.0442926
throughput change = 0.0419355
Warmed up ...Time used is 3000 cycles
Class 0:
Packet latency average = 19.6154
	minimum = 7
	maximum = 37
Network latency average = 19.6154
	minimum = 7
	maximum = 37
Slowest packet = 1772
Flit latency average = 19.6154
	minimum = 7
	maximum = 37
Slowest flit = 1772
Fragmentation average = 0
	minimum = 0
	maximum = 0
Injected packet rate average = 0.0085
	minimum = 0.005 (at node 3)
	maximum = 0.017 (at node 9)
Accepted packet rate average = 0.008125
	minimum = 0.004 (at node 12)
	maximum = 0.016 (at node 6)
Injected flit rate average = 0.0085
	minimum = 0.005 (at node 3)
	maximum = 0.017 (at node 9)
Accepted flit rate average= 0.008125
	minimum = 0.004 (at node 12)
	maximum = 0.016 (at node 6)
Injected packet length average = 1
Accepted packet length average = 1
Total in-flight flits = 6 (6 measured)
latency change    = 0.0310436
throughput change = 0.192308
Class 0:
Packet latency average = 20.0479
	minimum = 7
	maximum = 37
Network latency average = 20.0479
	minimum = 7
	maximum = 37
Slowest packet = 1772
Flit latency average = 20.0479
	minimum = 7
	maximum = 37
Slowest flit = 1772
Fragmentation average = 0
	minimum = 0
	maximum = 0
Injected packet rate average = 0.00925
	minimum = 0.0055 (at node 0)
	maximum = 0.013 (at node 8)
Accepted packet rate average = 0.009125
	minimum = 0.0055 (at node 0)
	maximum = 0.0125 (at node 2)
Injected flit rate average = 0.00925
	minimum = 0.0055 (at node 0)
	maximum = 0.013 (at node 8)
Accepted flit rate average= 0.009125
	minimum = 0.0055 (at node 0)
	maximum = 0.0125 (at node 2)
Injected packet length average = 1
Accepted packet length average = 1
Total in-flight flits = 4 (4 measured)
latency change    = 0.0215763
throughput change = 0.109589
Class 0:
Packet latency average = 19.9882
	minimum = 7
	maximum = 37
Network latency average = 19.9882
	minimum = 7
	maximum = 37
Slowest packet = 1772
Flit latency average = 19.9882
	minimum = 7
	maximum = 37
Slowest flit = 1772
Fragmentation average = 0
	minimum = 0
	maximum = 0
Injected packet rate average = 0.0089375
	minimum = 0.00633333 (at node 0)
	maximum = 0.011 (at node 4)
Accepted packet rate average = 0.00885417
	minimum = 0.00633333 (at node 0)
	maximum = 0.011 (at node 1)
Injected flit rate average = 0.0089375
	minimum = 0.00633333 (at node 0)
	maximum = 0.011 (at node 4)
Accepted flit rate average= 0.00885417
	minimum = 0.00633333 (at node 0)
	maximum = 0.011 (at node 1)
Injected packet length average = 1
Accepted packet length average = 1
Total in-flight flits = 4 (4 measured)
latency change    = 0.00298725
throughput change = 0.0305882
Class 0:
Packet latency average = 19.617
	minimum = 7
	maximum = 37
Network latency average = 19.617
	minimum = 7
	maximum = 37
Slowest packet = 1772
Flit latency average = 19.617
	minimum = 7
	maximum = 37
Slowest flit = 1772
Fragmentation average = 0
	minimum = 0
	maximum = 0
Injected packet rate average = 0.00909375
	minimum = 0.00725 (at node 0)
	maximum = 0.0115 (at node 8)
Accepted packet rate average = 0.00901562
	minimum = 0.00725 (at node 0)
	maximum = 0.01125 (at node 2)
Injected flit rate average = 0.00909375
	minimum = 0.00725 (at node 0)
	maximum = 0.0115 (at node 8)
Accepted flit rate average= 0.00901562
	minimum = 0.00725 (at node 0)
	maximum = 0.01125 (at node 2)
Injected packet length average = 1
Accepted packet length average = 1
Total in-flight flits = 5 (5 measured)
latency change    = 0.018925
throughput change = 0.0179087
Class 0:
Packet latency average = 19.6949
	minimum = 7
	maximum = 37
Network latency average = 19.6949
	minimum = 7
	maximum = 37
Slowest packet = 1772
Flit latency average = 19.6949
	minimum = 7
	maximum = 37
Slowest flit = 1772
Fragmentation average = 0
	minimum = 0
	maximum = 0
Injected packet rate average = 0.0091875
	minimum = 0.008 (at node 0)
	maximum = 0.011 (at node 8)
Accepted packet rate average = 0.0091375
	minimum = 0.0078 (at node 8)
	maximum = 0.011 (at node 2)
Injected flit rate average = 0.0091875
	minimum = 0.008 (at node 0)
	maximum = 0.011 (at node 8)
Accepted flit rate average= 0.0091375
	minimum = 0.0078 (at node 8)
	maximum = 0.011 (at node 2)
Injected packet length average = 1
Accepted packet length average = 1
Total in-flight flits = 4 (4 measured)
latency change    = 0.00395807
throughput change = 0.0133379
Draining all recorded packets ...
Draining remaining packets ...
Time taken is 8045 cycles
Class 0:
Packet latency average = 19.0063
	minimum = 7
	maximum = 37
Network latency average = 19.0063
	minimum = 7
	maximum = 37
Slowest packet = 2523
Flit latency average = 19.0063
	minimum = 7
	maximum = 37
Slowest flit = 2523
Fragmentation average = 0
	minimum = 0
	maximum = 0
Injected packet rate average = 0.0104375
	minimum = 0.006 (at node 0)
	maximum = 0.016 (at node 15)
Accepted packet rate average = 0.01
	minimum = 0.005 (at node 0)
	maximum = 0.016 (at node 15)
Injected flit rate average = 0.0104375
	minimum = 0.006 (at node 0)
	maximum = 0.016 (at node 15)
Accepted flit rate average= 0.01
	minimum = 0.005 (at node 0)
	maximum = 0.016 (at node 15)
Injected packet length average = 1
Accepted packet length average = 1
Total in-flight flits = 7 (0 measured)
latency change    = 1
throughput change = 1
Class 0:
Packet latency average = 18.5818
	minimum = 7
	maximum = 38
Network latency average = 18.5818
	minimum = 7
	maximum = 38
Slowest packet = 2745
Flit latency average = 18.5818
	minimum = 7
	maximum = 38
Slowest flit = 2745
Fragmentation average = 0
	minimum = 0
	maximum = 0
Injected packet rate average = 0.0100938
	minimum = 0.006 (at node 8)
	maximum = 0.014 (at node 10)
Accepted packet rate average = 0.0099375
	minimum = 0.006 (at node 2)
	maximum = 0.014 (at node 10)
Injected flit rate average = 0.0100938
	minimum = 0.006 (at node 8)
	maximum = 0.014 (at node 10)
Accepted flit rate average= 0.0099375
	minimum = 0.006 (at node 2)
	maximum = 0.014 (at node 10)
Injected packet length average = 1
Accepted packet length average = 1
Total in-flight flits = 5 (0 measured)
latency change    = 0.0228444
throughput change = 0.00628931
Class 0:
Packet latency average = 19.881
	minimum = 7
	maximum = 38
Network latency average = 19.881
	minimum = 7
	maximum = 38
Slowest packet = 2896
Flit latency average = 19.881
	minimum = 7
	maximum = 38
Slowest flit = 2896
Fragmentation average = 0
	minimum = 0
	maximum = 0
Injected packet rate average = 0.0104375
	minimum = 0.006 (at node 1)
	maximum = 0.016 (at node 7)
Accepted packet rate average = 0.0105
	minimum = 0.006 (at node 4)
	maximum = 0.016 (at node 11)
Injected flit rate average = 0.0104375
	minimum = 0.006 (at node 1)
	maximum = 0.016 (at node 7)
Accepted flit rate average= 0.0105
	minimum = 0.006 (at node 4)
	maximum = 0.016 (at node 11)
Injected packet length average = 1
Accepted packet length average = 1
Total in-flight flits = 4 (0 measured)
latency change    = 0.0653485
throughput change = 0.0535714
Warmed up ...Time used is 3000 cycles
Class 0:
Packet latency average = 18.2963
	minimum = 7
	maximum = 37
Network latency average = 18.2963
	minimum = 7
	maximum = 37
Slowest packet = 3006
Flit latency average = 18.4458
	minimum = 7
	maximum = 37
Slowest flit = 3006
Fragmentation average = 0
	minimum = 0
	maximum = 0
Injected packet rate average = 0.0101875
	minimum = 0.003 (at node 3)
	maximum = 0.018 (at node 4)
Accepted packet rate average = 0.010375
	minimum = 0.003 (at node 12)
	maximum = 0.017 (at node 1)
Injected flit rate average = 0.0101875
	minimum = 0.003 (at node 3)
	maximum = 0.018 (at node 4)
Accepted flit rate average= 0.010375
	minimum = 0.003 (at node 12)
	maximum = 0.017 (at node 1)
Injected packet length average = 1
Accepted packet length average = 1
Total in-flight flits = 1 (1 measured)
latency change    = 0.0866108
throughput change = 0.0120482
Class 0:
Packet latency average = 18.5961
	minimum = 7
	maximum = 37
Network latency average = 18.5961
	minimum = 7
	maximum = 37
Slowest packet = 3006
Flit latency average = 18.672
	minimum = 7
	maximum = 37
Slowest flit = 3006
Fragmentation average = 0
	minimum = 0
	maximum = 0
Injected packet rate average = 0.0096875
	minimum = 0.004 (at node 0)
	maximum = 0.0145 (at node 4)
Accepted packet rate average = 0.00971875
	minimum = 0.004 (at node 0)
	maximum = 0.0145 (at node 1)
Injected flit rate average = 0.0096875
	minimum = 0.004 (at node 0)
	maximum = 0.0145 (at node 4)
Accepted flit rate average= 0.00971875
	minimum = 0.004 (at node 0)
	maximum = 0.0145 (at node 1)
Injected packet length average = 1
Accepted packet length average = 1
Total in-flight flits = 3 (3 measured)
latency change    = 0.0161214
throughput change = 0.0675241
Class 0:
Packet latency average = 19.4587
	minimum = 7
	maximum = 37
Network latency average = 19.4587
	minimum = 7
	maximum = 37
Slowest packet = 3006
Flit latency average = 19.5
	minimum = 7
	maximum = 37
Slowest flit = 3006
Fragmentation average = 0
	minimum = 0
	maximum = 0
Injected packet rate average = 0.0101458
	minimum = 0.005 (at node 0)
	maximum = 0.0126667 (at node 4)
Accepted packet rate average = 0.0101667
	minimum = 0.005 (at node 0)
	maximum = 0.0126667 (at node 1)
Injected flit rate average = 0.0101458
	minimum = 0.005 (at node 0)
	maximum = 0.0126667 (at node 4)
Accepted flit rate average= 0.0101667
	minimum = 0.005 (at node 0)
	maximum = 0.0126667 (at node 1)
Injected packet length average = 1
Accepted packet length average = 1
Total in-flight flits = 3 (3 measured)
latency change    = 0.0443291
throughput change = 0.0440574
Class 0:
Packet latency average = 19.3588
	minimum = 7
	maximum = 37
Network latency average = 19.3588
	minimum = 7
	maximum = 37
Slowest packet = 3006
Flit latency average = 19.3907
	minimum = 7
	maximum = 37
Slowest flit = 3006
Fragmentation average = 0
	minimum = 0
	maximum = 0
Injected packet rate average = 0.0100625
	minimum = 0.0065 (at node 14)
	maximum = 0.0115 (at node 5)
Accepted packet rate average = 0.0100781
	minimum = 0.0065 (at node 11)
	maximum = 0.0115 (at node 10)
Injected flit rate average = 0.0100625
	minimum = 0.0065 (at node 14)
	maximum = 0.0115 (at node 5)
Accepted flit rate average= 0.0100781
	minimum = 0.0065 (at node 11)
	maximum = 0.0115 (at node 10)
Injected packet length average = 1
Accepted packet length average = 1
Total in-flight flits = 3 (3 measured)
latency change    = 0.00515855
throughput change = 0.00878553
Class 0:
Packet latency average = 19.49
	minimum = 7
	maximum = 37
Network latency average = 19.49
	minimum = 7
	maximum = 37
Slowest packet = 3006
Flit latency average = 19.5149
	minimum = 7
	maximum = 37
Slowest flit = 3006
Fragmentation average = 0
	minimum = 0
	maximum = 0
Injected packet rate average = 0.0101125
	minimum = 0.0072 (at node 0)
	maximum = 0.012 (at node 15)
Accepted packet rate average = 0.0101
	minimum = 0.007 (at node 0)
	maximum = 0.012 (at node 15)
Injected flit rate average = 0.0101125
	minimum = 0.0072 (at node 0)
	maximum = 0.012 (at node 15)
Accepted flit rate average= 0.0101
	minimum = 0.007 (at node 0)
	maximum = 0.012 (at node 15)
Injected packet length average = 1
Accepted packet length average = 1
Total in-flight flits = 5 (5 measured)
latency change    = 0.00673346
throughput change = 0.00216584
Draining all recorded packets ...
Draining remaining packets ...
Time taken is 8046 cycles
Class 0:
Packet latency average = 18.931
	minimum = 7
	maximum = 37
Network latency average = 18.931
	minimum = 7
	maximum = 37
Slowest packet = 3816
Flit latency average = 18.931
	minimum = 7
	maximum = 37
Slowest flit = 3816
Fragmentation average = 0
	minimum = 0
	maximum = 0
Injected packet rate average = 0.0090625
	minimum = 0.006 (at node 8)
	maximum = 0.014 (at node 5)
Accepted packet rate average = 0.0090625
	minimum = 0.006 (at node 2)
	maximum = 0.014 (at node 5)
Injected flit rate average = 0.0090625
	minimum = 0.006 (at node 8)
	maximum = 0.014 (at node 5)
Accepted flit rate average= 0.0090625
	minimum = 0.006 (at node 2)
	maximum = 0.014 (at node 5)
Injected packet length average = 1
Accepted packet length average = 1
Total in-flight flits = 0 (0 measured)
latency change    = 1
throughput change = 1
Class 0:
Packet latency average = 19.1649
	minimum = 7
	maximum = 37
Network latency average = 19.1649
	minimum = 7
	maximum = 37
Slowest packet = 3816
Flit latency average = 19.1649
	minimum = 7
	maximum = 37
Slowest flit = 3816
Fragmentation average = 0
	minimum = 0
	maximum = 0
Injected packet rate average = 0.00925
	minimum = 0.007 (at node 0)
	maximum = 0.014 (at node 10)
Accepted packet rate average = 0.00909375
	minimum = 0.006 (at node 8)
	maximum = 0.014 (at node 10)
Injected flit rate average = 0.00925
	minimum = 0.007 (at node 0)
	maximum = 0.014 (at node 10)
Accepted flit rate average= 0.00909375
	minimum = 0.006 (at node 8)
	maximum = 0.014 (at node 10)
Injected packet length average = 1
Accepted packet length average = 1
Total in-flight flits = 5 (0 measured)
latency change    = 0.0122053
throughput change = 0.00343643
Class 0:
Packet latency average = 21.0642
	minimum = 7
	maximum = 37
Network latency average = 21.0642
	minimum = 7
	maximum = 37
Slowest packet = 4108
Flit latency average = 21.0642
	minimum = 7
	maximum = 37
Slowest flit = 4108
Fragmentation average = 0
	minimum = 0
	maximum = 0
Injected packet rate average = 0.0115625
	minimum = 0.006 (at node 8)
	maximum = 0.022 (at node 7)
Accepted packet rate average = 0.0116875
	minimum = 0.006 (at node 2)
	maximum = 0.022 (at node 13)
Injected flit rate average = 0.0115625
	minimum = 0.006 (at node 8)
	maximum = 0.022 (at node 7)
Accepted flit rate average= 0.0116875
	minimum = 0.006 (at node 2)
	maximum = 0.022 (at node 13)
Injected packet length average = 1
Accepted packet length average = 1
Total in-flight flits = 3 (0 measured)
latency change    = 0.0901637
throughput change = 0.221925
Warmed up ...Time used is 3000 cycles
Class 0:
Packet latency average = 20.0233
	minimum = 7
	maximum = 37
Network latency average = 20.0233
	minimum = 7
	maximum = 37
Slowest packet = 4300
Flit latency average = 20.1429
	minimum = 7
	maximum = 37
Slowest flit = 4288
Fragmentation average = 0
	minimum = 0
	maximum = 0
Injected packet rate average = 0.010875
	minimum = 0.007 (at node 0)
	maximum = 0.016 (at node 13)
Accepted packet rate average = 0.0109375
	minimum = 0.007 (at node 0)
	maximum = 0.017 (at node 7)
Injected flit rate average = 0.010875
	minimum = 0.007 (at node 0)
	maximum = 0.016 (at node 13)
Accepted flit rate average= 0.0109375
	minimum = 0.007 (at node 0)
	maximum = 0.017 (at node 7)
Injected packet length average = 1
Accepted packet length average = 1
Total in-flight flits = 2 (2 measured)
latency change    = 0.0519853
throughput change = 0.0685714
Class 0:
Packet latency average = 19.9814
	minimum = 7
	maximum = 38
Network latency average = 19.9814
	minimum = 7
	maximum = 38
Slowest packet = 4531
Flit latency average = 20.046
	minimum = 7
	maximum = 38
Slowest flit = 4531
Fragmentation average = 0
	minimum = 0
	maximum = 0
Injected packet rate average = 0.0101563
	minimum = 0.006 (at node 5)
	maximum = 0.014 (at node 14)
Accepted packet rate average = 0.0101875
	minimum = 0.006 (at node 5)
	maximum = 0.0145 (at node 11)
Injected flit rate average = 0.0101563
	minimum = 0.006 (at node 5)
	maximum = 0.014 (at node 14)
Accepted flit rate average= 0.0101875
	minimum = 0.006 (at node 5)
	maximum = 0.0145 (at node 11)
Injected packet length average = 1
Accepted packet length average = 1
Total in-flight flits = 2 (2 measured)
latency change    = 0.00209353
throughput change = 0.0736196
Class 0:
Packet latency average = 19.7248
	minimum = 7
	maximum = 38
Network latency average = 19.7248
	minimum = 7
	maximum = 38
Slowest packet = 4531
Flit latency average = 19.7694
	minimum = 7
	maximum = 38
Slowest flit = 4531
Fragmentation average = 0
	minimum = 0
	maximum = 0
Injected packet rate average = 0.0103125
	minimum = 0.006 (at node 5)
	maximum = 0.014 (at node 14)
Accepted packet rate average = 0.0102083
	minimum = 0.006 (at node 5)
	maximum = 0.0143333 (at node 11)
Injected flit rate average = 0.0103125
	minimum = 0.006 (at node 5)
	maximum = 0.014 (at node 14)
Accepted flit rate average= 0.0102083
	minimum = 0.006 (at node 5)
	maximum = 0.0143333 (at node 11)
Injected packet length average = 1
Accepted packet length average = 1
Total in-flight flits = 8 (8 measured)
latency change    = 0.0130079
throughput change = 0.00204082
Class 0:
Packet latency average = 19.815
	minimum = 7
	maximum = 38
Network latency average = 19.815
	minimum = 7
	maximum = 38
Slowest packet = 4531
Flit latency average = 19.846
	minimum = 7
	maximum = 38
Slowest flit = 4531
Fragmentation average = 0
	minimum = 0
	maximum = 0
Injected packet rate average = 0.0109062
	minimum = 0.00725 (at node 5)
	maximum = 0.014 (at node 14)
Accepted packet rate average = 0.0108594
	minimum = 0.00725 (at node 5)
	maximum = 0.01425 (at node 11)
Injected flit rate average = 0.0109062
	minimum = 0.00725 (at node 5)
	maximum = 0.014 (at node 14)
Accepted flit rate average= 0.0108594
	minimum = 0.00725 (at node 5)
	maximum = 0.01425 (at node 11)
Injected packet length average = 1
Accepted packet length average = 1
Total in-flight flits = 6 (6 measured)
latency change    = 0.00455124
throughput change = 0.059952
Class 0:
Packet latency average = 19.5701
	minimum = 7
	maximum = 38
Network latency average = 19.5701
	minimum = 7
	maximum = 38
Slowest packet = 4531
Flit latency average = 19.5958
	minimum = 7
	maximum = 38
Slowest flit = 4531
Fragmentation average = 0
	minimum = 0
	maximum = 0
Injected packet rate average = 0.0108375
	minimum = 0.0076 (at node 5)
	maximum = 0.013 (at node 14)
Accepted packet rate average = 0.010825
	minimum = 0.0074 (at node 5)
	maximum = 0.0132 (at node 11)
Injected flit rate average = 0.0108375
	minimum = 0.0076 (at node 5)
	maximum = 0.013 (at node 14)
Accepted flit rate average= 0.010825
	minimum = 0.0074 (at node 5)
	maximum = 0.0132 (at node 11)
Injected packet length average = 1
Accepted packet length average = 1
Total in-flight flits = 4 (4 measured)
latency change    = 0.0125152
throughput change = 0.00317552
Class 0:
Packet latency average = 19.8033
	minimum = 7
	maximum = 38
Network latency average = 19.8033
	minimum = 7
	maximum = 38
Slowest packet = 4531
Flit latency average = 19.8243
	minimum = 7
	maximum = 38
Slowest flit = 4531
Fragmentation average = 0
	minimum = 0
	maximum = 0
Injected packet rate average = 0.01075
	minimum = 0.00733333 (at node 5)
	maximum = 0.0125 (at node 14)
Accepted packet rate average = 0.0107292
	minimum = 0.00733333 (at node 5)
	maximum = 0.0126667 (at node 11)
Injected flit rate average = 0.01075
	minimum = 0.00733333 (at node 5)
	maximum = 0.0125 (at node 14)
Accepted flit rate average= 0.0107292
	minimum = 0.00733333 (at node 5)
	maximum = 0.0126667 (at node 11)
Injected packet length average = 1
Accepted packet length average = 1
Total in-flight flits = 5 (5 measured)
latency change    = 0.0117761
throughput change = 0.00893204
Class 0:
Packet latency average = 20.0008
	minimum = 7
	maximum = 38
Network latency average = 20.0008
	minimum = 7
	maximum = 38
Slowest packet = 4531
Flit latency average = 20.0182
	minimum = 7
	maximum = 38
Slowest flit = 4531
Fragmentation average = 0
	minimum = 0
	maximum = 0
Injected packet rate average = 0.0107768
	minimum = 0.00814286 (at node 5)
	maximum = 0.0121429 (at node 14)
Accepted packet rate average = 0.0107679
	minimum = 0.00814286 (at node 5)
	maximum = 0.0121429 (at node 11)
Injected flit rate average = 0.0107768
	minimum = 0.00814286 (at node 5)
	maximum = 0.0121429 (at node 14)
Accepted flit rate average= 0.0107679
	minimum = 0.00814286 (at node 5)
	maximum = 0.0121429 (at node 11)
Injected packet length average = 1
Accepted packet length average = 1
Total in-flight flits = 4 (4 measured)
latency change    = 0.00987562
throughput change = 0.00359315
Draining all recorded packets ...
Draining remaining packets ...
Time taken is 10019 cycles
Class 0:
Packet latency average = 20.6025
	minimum = 7
	maximum = 37
Network latency average = 20.6025
	minimum = 7
	maximum = 37
Slowest packet = 5505
Flit latency average = 20.6025
	minimum = 7
	maximum = 37
Slowest flit = 5505
Fragmentation average = 0
	minimum = 0
	maximum = 0
Injected packet rate average = 0.0103125
	minimum = 0.005 (at node 10)
	maximum = 0.015 (at node 7)
Accepted packet rate average = 0.0100625
	minimum = 0.005 (at node 10)
	maximum = 0.014 (at node 13)
Injected flit rate average = 0.0103125
	minimum = 0.005 (at node 10)
	maximum = 0.015 (at node 7)
Accepted flit rate average= 0.0100625
	minimum = 0.005 (at node 10)
	maximum = 0.014 (at node 13)
Injected packet length average = 1
Accepted packet length average = 1
Total in-flight flits = 4 (0 measured)
latency change    = 1
throughput change = 1
Class 0:
Packet latency average = 20.3887
	minimum = 7
	maximum = 37
Network latency average = 20.3887
	minimum = 7
	maximum = 37
Slowest packet = 5505
Flit latency average = 20.3887
	minimum = 7
	maximum = 37
Slowest flit = 5505
Fragmentation average = 0
	minimum = 0
	maximum = 0
Injected packet rate average = 0.0100313
	minimum = 0.006 (at node 15)
	maximum = 0.015 (at node 8)
Accepted packet rate average = 0.00996875
	minimum = 0.006 (at node 15)
	maximum = 0.0145 (at node 2)
Injected flit rate average = 0.0100313
	minimum = 0.006 (at node 15)
	maximum = 0.015 (at node 8)
Accepted flit rate average= 0.00996875
	minimum = 0.006 (at node 15)
	maximum = 0.0145 (at node 2)
Injected packet length average = 1
Accepted packet length average = 1
Total in-flight flits = 2 (0 measured)
latency change    = 0.0104847
throughput change = 0.00940439
Class 0:
Packet latency average = 18.0828
	minimum = 7
	maximum = 37
Network latency average = 18.0828
	minimum = 7
	maximum = 37
Slowest packet = 5826
Flit latency average = 18.0828
	minimum = 7
	maximum = 37
Slowest flit = 5826
Fragmentation average = 0
	minimum = 0
	maximum = 0
Injected packet rate average = 0.009875
	minimum = 0.005 (at node 3)
	maximum = 0.017 (at node 14)
Accepted packet rate average = 0.0098125
	minimum = 0.005 (at node 9)
	maximum = 0.016 (at node 11)
Injected flit rate average = 0.009875
	minimum = 0.005 (at node 3)
	maximum = 0.017 (at node 14)
Accepted flit rate average= 0.0098125
	minimum = 0.005 (at node 9)
	maximum = 0.016 (at node 11)
Injected packet length average = 1
Accepted packet length average = 1
Total in-flight flits = 3 (0 measured)
latency change    = 0.12752
throughput change = 0.0159236
Warmed up ...Time used is 3000 cycles
Class 0:
Packet latency average = 18.8
	minimum = 7
	maximum = 37
Network latency average = 18.8
	minimum = 7
	maximum = 37
Slowest packet = 6006
Flit latency average = 18.6923
	minimum = 7
	maximum = 37
Slowest flit = 6006
Fragmentation average = 0
	minimum = 0
	maximum = 0
Injected packet rate average = 0.0089375
	minimum = 0.004 (at node 4)
	maximum = 0.017 (at node 1)
Accepted packet rate average = 0.0089375
	minimum = 0.003 (at node 2)
	maximum = 0.016 (at node 4)
Injected flit rate average = 0.0089375
	minimum = 0.004 (at node 4)
	maximum = 0.017 (at node 1)
Accepted flit rate average= 0.0089375
	minimum = 0.003 (at node 2)
	maximum = 0.016 (at node 4)
Injected packet length average = 1
Accepted packet length average = 1
Total in-flight flits = 3 (3 measured)
latency change    = 0.0381488
throughput change = 0.0979021
Class 0:
Packet latency average = 18.9673
	minimum = 7
	maximum = 37
Network latency average = 18.9673
	minimum = 7
	maximum = 37
Slowest packet = 6006
Flit latency average = 18.9159
	minimum = 7
	maximum = 37
Slowest flit = 6006
Fragmentation average = 0
	minimum = 0
	maximum = 0
Injected packet rate average = 0.00959375
	minimum = 0.007 (at node 4)
	maximum = 0.013 (at node 1)
Accepted packet rate average = 0.00965625
	minimum = 0.007 (at node 1)
	maximum = 0.013 (at node 4)
Injected flit rate average = 0.00959375
	minimum = 0.007 (at node 4)
	maximum = 0.013 (at node 1)
Accepted flit rate average= 0.00965625
	minimum = 0.007 (at node 1)
	maximum = 0.013 (at node 4)
Injected packet length average = 1
Accepted packet length average = 1
Total in-flight flits = 1 (1 measured)
latency change    = 0.0088215
throughput change = 0.0744337
Class 0:
Packet latency average = 19.1027
	minimum = 7
	maximum = 37
Network latency average = 19.1027
	minimum = 7
	maximum = 37
Slowest packet = 6006
Flit latency average = 19.0665
	minimum = 7
	maximum = 37
Slowest flit = 6006
Fragmentation average = 0
	minimum = 0
	maximum = 0
Injected packet rate average = 0.009375
	minimum = 0.00666667 (at node 13)
	maximum = 0.012 (at node 1)
Accepted packet rate average = 0.00939583
	minimum = 0.00666667 (at node 7)
	maximum = 0.012 (at node 4)
Injected flit rate average = 0.009375
	minimum = 0.00666667 (at node 13)
	maximum = 0.012 (at node 1)
Accepted flit rate average= 0.00939583
	minimum = 0.00666667 (at node 7)
	maximum = 0.012 (at node 4)
Injected packet length average = 1
Accepted packet length average = 1
Total in-flight flits = 2 (2 measured)
latency change    = 0.00708583
throughput change = 0.0277162
Class 0:
Packet latency average = 18.9583
	minimum = 7
	maximum = 37
Network latency average = 18.9583
	minimum = 7
	maximum = 37
Slowest packet = 6006
Flit latency average = 18.9319
	minimum = 7
	maximum = 37
Slowest flit = 6006
Fragmentation average = 0
	minimum = 0
	maximum = 0
Injected packet rate average = 0.0094375
	minimum = 0.00725 (at node 13)
	maximum = 0.0125 (at node 1)
Accepted packet rate average = 0.00940625
	minimum = 0.00725 (at node 7)
	maximum = 0.0125 (at node 4)
Injected flit rate average = 0.0094375
	minimum = 0.00725 (at node 13)
	maximum = 0.0125 (at node 1)
Accepted flit rate average= 0.00940625
	minimum = 0.00725 (at node 7)
	maximum = 0.0125 (at node 4)
Injected packet length average = 1
Accepted packet length average = 1
Total in-flight flits = 5 (5 measured)
latency change    = 0.00761751
throughput change = 0.00110742
Class 0:
Packet latency average = 18.9224
	minimum = 7
	maximum = 38
Network latency average = 18.9224
	minimum = 7
	maximum = 38
Slowest packet = 6681
Flit latency average = 18.9021
	minimum = 7
	maximum = 38
Slowest flit = 6681
Fragmentation average = 0
	minimum = 0
	maximum = 0
Injected packet rate average = 0.009675
	minimum = 0.0074 (at node 13)
	maximum = 0.0124 (at node 0)
Accepted packet rate average = 0.0097
	minimum = 0.0074 (at node 7)
	maximum = 0.0124 (at node 0)
Injected flit rate average = 0.009675
	minimum = 0.0074 (at node 13)
	maximum = 0.0124 (at node 0)
Accepted flit rate average= 0.0097
	minimum = 0.0074 (at node 7)
	maximum = 0.0124 (at node 0)
Injected packet length average = 1
Accepted packet length average = 1
Total in-flight flits = 1 (1 measured)
latency change    = 0.00189635
throughput change = 0.0302835
Draining all recorded packets ...
Draining remaining packets ...
Time taken is 8046 cycles
Class 0:
Packet latency average = 19.5949
	minimum = 7
	maximum = 37
Network latency average = 19.5949
	minimum = 7
	maximum = 37
Slowest packet = 6763
Flit latency average = 19.5949
	minimum = 7
	maximum = 37
Slowest flit = 6763
Fragmentation average = 0
	minimum = 0
	maximum = 0
Injected packet rate average = 0.0100625
	minimum = 0.004 (at node 0)
	maximum = 0.016 (at node 8)
Accepted packet rate average = 0.009875
	minimum = 0.004 (at node 0)
	maximum = 0.016 (at node 2)
Injected flit rate average = 0.0100625
	minimum = 0.004 (at node 0)
	maximum = 0.016 (at node 8)
Accepted flit rate average= 0.009875
	minimum = 0.004 (at node 0)
	maximum = 0.016 (at node 2)
Injected packet length average = 1
Accepted packet length average = 1
Total in-flight flits = 3 (0 measured)
latency change    = 1
throughput change = 1
Class 0:
Packet latency average = 19.5485
	minimum = 7
	maximum = 37
Network latency average = 19.5485
	minimum = 7
	maximum = 37
Slowest packet = 6763
Flit latency average = 19.5485
	minimum = 7
	maximum = 37
Slowest flit = 6763
Fragmentation average = 0
	minimum = 0
	maximum = 0
Injected packet rate average = 0.0104375
	minimum = 0.0065 (at node 0)
	maximum = 0.0155 (at node 8)
Accepted packet rate average = 0.0103125
	minimum = 0.0065 (at node 0)
	maximum = 0.0155 (at node 2)
Injected flit rate average = 0.0104375
	minimum = 0.0065 (at node 0)
	maximum = 0.0155 (at node 8)
Accepted flit rate average= 0.0103125
	minimum = 0.0065 (at node 0)
	maximum = 0.0155 (at node 2)
Injected packet length average = 1
Accepted packet length average = 1
Total in-flight flits = 4 (0 measured)
latency change    = 0.00237624
throughput change = 0.0424242
Class 0:
Packet latency average = 18.5862
	minimum = 7
	maximum = 37
Network latency average = 18.5862
	minimum = 7
	maximum = 37
Slowest packet = 7090
Flit latency average = 18.5862
	minimum = 7
	maximum = 37
Slowest flit = 7090
Fragmentation average = 0
	minimum = 0
	maximum = 0
Injected packet rate average = 0.009125
	minimum = 0.004 (at node 2)
	maximum = 0.017 (at node 4)
Accepted packet rate average = 0.0090625
	minimum = 0.004 (at node 2)
	maximum = 0.016 (at node 1)
Injected flit rate average = 0.009125
	minimum = 0.004 (at node 2)
	maximum = 0.017 (at node 4)
Accepted flit rate average= 0.0090625
	minimum = 0.004 (at node 2)
	maximum = 0.016 (at node 1)
Injected packet length average = 1
Accepted packet length average = 1
Total in-flight flits = 5 (0 measured)
latency change    = 0.0517738
throughput change = 0.137931
Warmed up ...Time used is 3000 cycles
Class 0:
Packet latency average = 19.3333
	minimum = 7
	maximum = 37
Network latency average = 19.3333
	minimum = 7
	maximum = 37
Slowest packet = 7243
Flit latency average = 19.4516
	minimum = 7
	maximum = 37
Slowest flit = 7230
Fragmentation average = 0
	minimum = 0
	maximum = 0
Injected packet rate average = 0.0095
	minimum = 0.004 (at node 7)
	maximum = 0.016 (at node 13)
Accepted packet rate average = 0.0096875
	minimum = 0.004 (at node 13)
	maximum = 0.016 (at node 7)
Injected flit rate average = 0.0095
	minimum = 0.004 (at node 7)
	maximum = 0.016 (at node 13)
Accepted flit rate average= 0.0096875
	minimum = 0.004 (at node 13)
	maximum = 0.016 (at node 7)
Injected packet length average = 1
Accepted packet length average = 1
Total in-flight flits = 2 (2 measured)
latency change    = 0.0386445
throughput change = 0.0645161
Class 0:
Packet latency average = 19.5084
	minimum = 7
	maximum = 37
Network latency average = 19.5084
	minimum = 7
	maximum = 37
Slowest packet = 7243
Flit latency average = 19.5658
	minimum = 7
	maximum = 37
Slowest flit = 7230
Fragmentation average = 0
	minimum = 0
	maximum = 0
Injected packet rate average = 0.0094375
	minimum = 0.006 (at node 11)
	maximum = 0.012 (at node 0)
Accepted packet rate average = 0.0095
	minimum = 0.0065 (at node 14)
	maximum = 0.0125 (at node 3)
Injected flit rate average = 0.0094375
	minimum = 0.006 (at node 11)
	maximum = 0.012 (at node 0)
Accepted flit rate average= 0.0095
	minimum = 0.0065 (at node 14)
	maximum = 0.0125 (at node 3)
Injected packet length average = 1
Accepted packet length average = 1
Total in-flight flits = 3 (3 measured)
latency change    = 0.00897194
throughput change = 0.0197368
Class 0:
Packet latency average = 19.7521
	minimum = 7
	maximum = 37
Network latency average = 19.7521
	minimum = 7
	maximum = 37
Slowest packet = 7243
Flit latency average = 19.7856
	minimum = 7
	maximum = 37
Slowest flit = 7230
Fragmentation average = 0
	minimum = 0
	maximum = 0
Injected packet rate average = 0.0100833
	minimum = 0.007 (at node 11)
	maximum = 0.0133333 (at node 12)
Accepted packet rate average = 0.0101042
	minimum = 0.007 (at node 14)
	maximum = 0.0136667 (at node 3)
Injected flit rate average = 0.0100833
	minimum = 0.007 (at node 11)
	maximum = 0.0133333 (at node 12)
Accepted flit rate average= 0.0101042
	minimum = 0.007 (at node 14)
	maximum = 0.0136667 (at node 3)
Injected packet length average = 1
Accepted packet length average = 1
Total in-flight flits = 4 (4 measured)
latency change    = 0.0123391
throughput change = 0.0597938
Class 0:
Packet latency average = 19.5136
	minimum = 7
	maximum = 37
Network latency average = 19.5136
	minimum = 7
	maximum = 37
Slowest packet = 7243
Flit latency average = 19.5413
	minimum = 7
	maximum = 37
Slowest flit = 7230
Fragmentation average = 0
	minimum = 0
	maximum = 0
Injected packet rate average = 0.00978125
	minimum = 0.00725 (at node 8)
	maximum = 0.0125 (at node 12)
Accepted packet rate average = 0.00984375
	minimum = 0.00725 (at node 2)
	maximum = 0.01275 (at node 3)
Injected flit rate average = 0.00978125
	minimum = 0.00725 (at node 8)
	maximum = 0.0125 (at node 12)
Accepted flit rate average= 0.00984375
	minimum = 0.00725 (at node 2)
	maximum = 0.01275 (at node 3)
Injected packet length average = 1
Accepted packet length average = 1
Total in-flight flits = 1 (1 measured)
latency change    = 0.0122214
throughput change = 0.026455
Class 0:
Packet latency average = 19.4336
	minimum = 7
	maximum = 37
Network latency average = 19.4336
	minimum = 7
	maximum = 37
Slowest packet = 7243
Flit latency average = 19.4558
	minimum = 7
	maximum = 37
Slowest flit = 7230
Fragmentation average = 0
	minimum = 0
	maximum = 0
Injected packet rate average = 0.0100125
	minimum = 0.0074 (at node 8)
	maximum = 0.0122 (at node 4)
Accepted packet rate average = 0.0100375
	minimum = 0.0074 (at node 2)
	maximum = 0.0124 (at node 1)
Injected flit rate average = 0.0100125
	minimum = 0.0074 (at node 8)
	maximum = 0.0122 (at node 4)
Accepted flit rate average= 0.0100375
	minimum = 0.0074 (at node 2)
	maximum = 0.0124 (at node 1)
Injected packet length average = 1
Accepted packet length average = 1
Total in-flight flits = 3 (3 measured)
latency change    = 0.00411741
throughput change = 0.0193026
Class 0:
Packet latency average = 19.3302
	minimum = 7
	maximum = 37
Network latency average = 19.3302
	minimum = 7
	maximum = 37
Slowest packet = 7243
Flit latency average = 19.3492
	minimum = 7
	maximum = 37
Slowest flit = 7230
Fragmentation average = 0
	minimum = 0
	maximum = 0
Injected packet rate average = 0.0100417
	minimum = 0.0075 (at node 8)
	maximum = 0.0128333 (at node 4)
Accepted packet rate average = 0.0100833
	minimum = 0.0075 (at node 2)
	maximum = 0.013 (at node 1)
Injected flit rate average = 0.0100417
	minimum = 0.0075 (at node 8)
	maximum = 0.0128333 (at node 4)
Accepted flit rate average= 0.0100833
	minimum = 0.0075 (at node 2)
	maximum = 0.013 (at node 1)
Injected packet length average = 1
Accepted packet length average = 1
Total in-flight flits = 1 (1 measured)
latency change    = 0.00534737
throughput change = 0.00454545
Draining all recorded packets ...
Draining remaining packets ...
Time taken is 9010 cycles
Class 0:
Packet latency average = 18.9595
	minimum = 7
	maximum = 37
Network latency average = 18.9595
	minimum = 7
	maximum = 37
Slowest packet = 8209
Flit latency average = 18.9595
	minimum = 7
	maximum = 37
Slowest flit = 8209
Fragmentation average = 0
	minimum = 0
	maximum = 0
Injected packet rate average = 0.0095
	minimum = 0.003 (at node 11)
	maximum = 0.015 (at node 4)
Accepted packet rate average = 0.00925
	minimum = 0.003 (at node 14)
	maximum = 0.015 (at node 1)
Injected flit rate average = 0.0095
	minimum = 0.003 (at node 11)
	maximum = 0.015 (at node 4)
Accepted flit rate average= 0.00925
	minimum = 0.003 (at node 14)
	maximum = 0.015 (at node 1)
Injected packet length average = 1
Accepted packet length average = 1
Total in-flight flits = 4 (0 measured)
latency change    = 1
throughput change = 1
Class 0:
Packet latency average = 19.3922
	minimum = 7
	maximum = 38
Network latency average = 19.3922
	minimum = 7
	maximum = 38
Slowest packet = 8385
Flit latency average = 19.3922
	minimum = 7
	maximum = 38
Slowest flit = 8385
Fragmentation average = 0
	minimum = 0
	maximum = 0
Injected packet rate average = 0.00965625
	minimum = 0.005 (at node 11)
	maximum = 0.0135 (at node 8)
Accepted packet rate average = 0.0095625
	minimum = 0.005 (at node 14)
	maximum = 0.013 (at node 2)
Injected flit rate average = 0.00965625
	minimum = 0.005 (at node 11)
	maximum = 0.0135 (at node 8)
Accepted flit rate average= 0.0095625
	minimum = 0.005 (at node 14)
	maximum = 0.013 (at node 2)
Injected packet length average = 1
Accepted packet length average = 1
Total in-flight flits = 3 (0 measured)
latency change    = 0.022313
throughput change = 0.0326797
Class 0:
Packet latency average = 21.4295
	minimum = 7
	maximum = 37
Network latency average = 21.4295
	minimum = 7
	maximum = 37
Slowest packet = 8507
Flit latency average = 21.4295
	minimum = 7
	maximum = 37
Slowest flit = 8507
Fragmentation average = 0
	minimum = 0
	maximum = 0
Injected packet rate average = 0.00925
	minimum = 0.003 (at node 10)
	maximum = 0.02 (at node 12)
Accepted packet rate average = 0.0093125
	minimum = 0.003 (at node 10)
	maximum = 0.021 (at node 3)
Injected flit rate average = 0.00925
	minimum = 0.003 (at node 10)
	maximum = 0.02 (at node 12)
Accepted flit rate average= 0.0093125
	minimum = 0.003 (at node 10)
	maximum = 0.021 (at node 3)
Injected packet length average = 1
Accepted packet length average = 1
Total in-flight flits = 2 (0 measured)
latency change    = 0.0950732
throughput change = 0.0268456
Warmed up ...Time used is 3000 cycles
Class 0:
Packet latency average = 20.2695
	minimum = 7
	maximum = 37
Network latency average = 20.2695
	minimum = 7
	maximum = 37
Slowest packet = 8662
Flit latency average = 20.3007
	minimum = 7
	maximum = 37
Slowest flit = 8662
Fragmentation average = 0
	minimum = 0
	maximum = 0
Injected packet rate average = 0.0090625
	minimum = 0.005 (at node 1)
	maximum = 0.013 (at node 0)
Accepted packet rate average = 0.0089375
	minimum = 0.005 (at node 1)
	maximum = 0.013 (at node 0)
Injected flit rate average = 0.0090625
	minimum = 0.005 (at node 1)
	maximum = 0.013 (at node 0)
Accepted flit rate average= 0.0089375
	minimum = 0.005 (at node 1)
	maximum = 0.013 (at node 0)
Injected packet length average = 1
Accepted packet length average = 1
Total in-flight flits = 4 (4 measured)
latency change    = 0.0572301
throughput change = 0.041958
Class 0:
Packet latency average = 20.6926
	minimum = 7
	maximum = 37
Network latency average = 20.6926
	minimum = 7
	maximum = 37
Slowest packet = 8662
Flit latency average = 20.7042
	minimum = 7
	maximum = 37
Slowest flit = 8662
Fragmentation average = 0
	minimum = 0
	maximum = 0
Injected packet rate average = 0.00978125
	minimum = 0.007 (at node 15)
	maximum = 0.014 (at node 13)
Accepted packet rate average = 0.00971875
	minimum = 0.007 (at node 15)
	maximum = 0.0135 (at node 7)
Injected flit rate average = 0.00978125
	minimum = 0.007 (at node 15)
	maximum = 0.014 (at node 13)
Accepted flit rate average= 0.00971875
	minimum = 0.007 (at node 15)
	maximum = 0.0135 (at node 7)
Injected packet length average = 1
Accepted packet length average = 1
Total in-flight flits = 4 (4 measured)
latency change    = 0.0204447
throughput change = 0.0803859
Class 0:
Packet latency average = 20.6445
	minimum = 7
	maximum = 38
Network latency average = 20.6445
	minimum = 7
	maximum = 38
Slowest packet = 9036
Flit latency average = 20.6525
	minimum = 7
	maximum = 38
Slowest flit = 9036
Fragmentation average = 0
	minimum = 0
	maximum = 0
Injected packet rate average = 0.0098125
	minimum = 0.00666667 (at node 1)
	maximum = 0.015 (at node 13)
Accepted packet rate average = 0.00977083
	minimum = 0.00666667 (at node 4)
	maximum = 0.0146667 (at node 7)
Injected flit rate average = 0.0098125
	minimum = 0.00666667 (at node 1)
	maximum = 0.015 (at node 13)
Accepted flit rate average= 0.00977083
	minimum = 0.00666667 (at node 4)
	maximum = 0.0146667 (at node 7)
Injected packet length average = 1
Accepted packet length average = 1
Total in-flight flits = 4 (4 measured)
latency change    = 0.00232589
throughput change = 0.00533049
Class 0:
Packet latency average = 20.3069
	minimum = 7
	maximum = 38
Network latency average = 20.3069
	minimum = 7
	maximum = 38
Slowest packet = 9036
Flit latency average = 20.3137
	minimum = 7
	maximum = 38
Slowest flit = 9036
Fragmentation average = 0
	minimum = 0
	maximum = 0
Injected packet rate average = 0.0100781
	minimum = 0.0075 (at node 1)
	maximum = 0.0135 (at node 13)
Accepted packet rate average = 0.0100625
	minimum = 0.0075 (at node 4)
	maximum = 0.01325 (at node 7)
Injected flit rate average = 0.0100781
	minimum = 0.0075 (at node 1)
	maximum = 0.0135 (at node 13)
Accepted flit rate average= 0.0100625
	minimum = 0.0075 (at node 4)
	maximum = 0.01325 (at node 7)
Injected packet length average = 1
Accepted packet length average = 1
Total in-flight flits = 3 (3 measured)
latency change    = 0.0166292
throughput change = 0.0289855
Class 0:
Packet latency average = 20.1015
	minimum = 7
	maximum = 38
Network latency average = 20.1015
	minimum = 7
	maximum = 38
Slowest packet = 9036
Flit latency average = 20.1076
	minimum = 7
	maximum = 38
Slowest flit = 9036
Fragmentation average = 0
	minimum = 0
	maximum = 0
Injected packet rate average = 0.009875
	minimum = 0.007 (at node 1)
	maximum = 0.013 (at node 13)
Accepted packet rate average = 0.009875
	minimum = 0.007 (at node 4)
	maximum = 0.013 (at node 7)
Injected flit rate average = 0.009875
	minimum = 0.007 (at node 1)
	maximum = 0.013 (at node 13)
Accepted flit rate average= 0.009875
	minimum = 0.007 (at node 4)
	maximum = 0.013 (at node 7)
Injected packet length average = 1
Accepted packet length average = 1
Total in-flight flits = 2 (2 measured)
latency change    = 0.0102147
throughput change = 0.0189873
Draining all recorded packets ...
Draining remaining packets ...
Time taken is 8042 cycles
Class 0:
Packet latency average = 20.245
	minimum = 7
	maximum = 37
Network latency average = 20.245
	minimum = 7
	maximum = 37
Slowest packet = 9462
Flit latency average = 20.245
	minimum = 7
	maximum = 37
Slowest flit = 9462
Fragmentation average = 0
	minimum = 0
	maximum = 0
Injected packet rate average = 0.009625
	minimum = 0.003 (at node 10)
	maximum = 0.014 (at node 1)
Accepted packet rate average = 0.0094375
	minimum = 0.003 (at node 10)
	maximum = 0.014 (at node 12)
Injected flit rate average = 0.009625
	minimum = 0.003 (at node 10)
	maximum = 0.014 (at node 1)
Accepted flit rate average= 0.0094375
	minimum = 0.003 (at node 10)
	maximum = 0.014 (at node 12)
Injected packet length average = 1
Accepted packet length average = 1
Total in-flight flits = 3 (0 measured)
latency change    = 1
throughput change = 1
Class 0:
Packet latency average = 19.5235
	minimum = 7
	maximum = 40
Network latency average = 19.5235
	minimum = 7
	maximum = 40
Slowest packet = 9677
Flit latency average = 19.5235
	minimum = 7
	maximum = 40
Slowest flit = 9677
Fragmentation average = 0
	minimum = 0
	maximum = 0
Injected packet rate average = 0.0101875
	minimum = 0.007 (at node 13)
	maximum = 0.0145 (at node 9)
Accepted packet rate average = 0.00996875
	minimum = 0.007 (at node 7)
	maximum = 0.0145 (at node 6)
Injected flit rate average = 0.0101875
	minimum = 0.007 (at node 13)
	maximum = 0.0145 (at node 9)
Accepted flit rate average= 0.00996875
	minimum = 0.007 (at node 7)
	maximum = 0.0145 (at node 6)
Injected packet length average = 1
Accepted packet length average = 1
Total in-flight flits = 7 (0 measured)
latency change    = 0.0369566
throughput change = 0.0532915
Class 0:
Packet latency average = 19.027
	minimum = 7
	maximum = 37
Network latency average = 19.027
	minimum = 7
	maximum = 37
Slowest packet = 9773
Flit latency average = 19.027
	minimum = 7
	maximum = 37
Slowest flit = 9773
Fragmentation average = 0
	minimum = 0
	maximum = 0
Injected packet rate average = 0.009125
	minimum = 0.006 (at node 6)
	maximum = 0.013 (at node 0)
Accepted packet rate average = 0.00925
	minimum = 0.006 (at node 6)
	maximum = 0.014 (at node 0)
Injected flit rate average = 0.009125
	minimum = 0.006 (at node 6)
	maximum = 0.013 (at node 0)
Accepted flit rate average= 0.00925
	minimum = 0.006 (at node 6)
	maximum = 0.014 (at node 0)
Injected packet length average = 1
Accepted packet length average = 1
Total in-flight flits = 5 (0 measured)
latency change    = 0.0260936
throughput change = 0.0777027
Warmed up ...Time used is 3000 cycles
Class 0:
Packet latency average = 20.4028
	minimum = 7
	maximum = 37
Network latency average = 20.4028
	minimum = 7
	maximum = 37
Slowest packet = 9934
Flit latency average = 20.4228
	minimum = 7
	maximum = 37
Slowest flit = 9923
Fragmentation average = 0
	minimum = 0
	maximum = 0
Injected packet rate average = 0.0091875
	minimum = 0.006 (at node 0)
	maximum = 0.013 (at node 2)
Accepted packet rate average = 0.0093125
	minimum = 0.005 (at node 0)
	maximum = 0.015 (at node 1)
Injected flit rate average = 0.0091875
	minimum = 0.006 (at node 0)
	maximum = 0.013 (at node 2)
Accepted flit rate average= 0.0093125
	minimum = 0.005 (at node 0)
	maximum = 0.015 (at node 1)
Injected packet length average = 1
Accepted packet length average = 1
Total in-flight flits = 3 (3 measured)
latency change    = 0.0674296
throughput change = 0.00671141
Class 0:
Packet latency average = 19.7959
	minimum = 7
	maximum = 38
Network latency average = 19.7959
	minimum = 7
	maximum = 38
Slowest packet = 10135
Flit latency average = 19.8161
	minimum = 7
	maximum = 38
Slowest flit = 10135
Fragmentation average = 0
	minimum = 0
	maximum = 0
Injected packet rate average = 0.00928125
	minimum = 0.0055 (at node 0)
	maximum = 0.0135 (at node 4)
Accepted packet rate average = 0.00934375
	minimum = 0.0055 (at node 0)
	maximum = 0.0145 (at node 1)
Injected flit rate average = 0.00928125
	minimum = 0.0055 (at node 0)
	maximum = 0.0135 (at node 4)
Accepted flit rate average= 0.00934375
	minimum = 0.0055 (at node 0)
	maximum = 0.0145 (at node 1)
Injected packet length average = 1
Accepted packet length average = 1
Total in-flight flits = 3 (3 measured)
latency change    = 0.0306558
throughput change = 0.00334448
Class 0:
Packet latency average = 19.6998
	minimum = 7
	maximum = 38
Network latency average = 19.6998
	minimum = 7
	maximum = 38
Slowest packet = 10135
Flit latency average = 19.714
	minimum = 7
	maximum = 38
Slowest flit = 10135
Fragmentation average = 0
	minimum = 0
	maximum = 0
Injected packet rate average = 0.0095
	minimum = 0.006 (at node 15)
	maximum = 0.014 (at node 4)
Accepted packet rate average = 0.00954167
	minimum = 0.006 (at node 15)
	maximum = 0.0146667 (at node 1)
Injected flit rate average = 0.0095
	minimum = 0.006 (at node 15)
	maximum = 0.014 (at node 4)
Accepted flit rate average= 0.00954167
	minimum = 0.006 (at node 15)
	maximum = 0.0146667 (at node 1)
Injected packet length average = 1
Accepted packet length average = 1
Total in-flight flits = 3 (3 measured)
latency change    = 0.00488021
throughput change = 0.0207424
Class 0:
Packet latency average = 19.846
	minimum = 7
	maximum = 38
Network latency average = 19.846
	minimum = 7
	maximum = 38
Slowest packet = 10135
Flit latency average = 19.8551
	minimum = 7
	maximum = 38
Slowest flit = 10135
Fragmentation average = 0
	minimum = 0
	maximum = 0
Injected packet rate average = 0.00990625
	minimum = 0.0065 (at node 15)
	maximum = 0.01275 (at node 9)
Accepted packet rate average = 0.00992188
	minimum = 0.0065 (at node 15)
	maximum = 0.01275 (at node 1)
Injected flit rate average = 0.00990625
	minimum = 0.0065 (at node 15)
	maximum = 0.01275 (at node 9)
Accepted flit rate average= 0.00992188
	minimum = 0.0065 (at node 15)
	maximum = 0.01275 (at node 1)
Injected packet length average = 1
Accepted packet length average = 1
Total in-flight flits = 4 (4 measured)
latency change    = 0.00736936
throughput change = 0.0383202
Draining all recorded packets ...
Draining remaining packets ...
Time taken is 7030 cycles
Class 0:
Packet latency average = 18.956
	minimum = 7
	maximum = 37
Network latency average = 18.956
	minimum = 7
	maximum = 37
Slowest packet = 10562
Flit latency average = 18.956
	minimum = 7
	maximum = 37
Slowest flit = 10562
Fragmentation average = 0
	minimum = 0
	maximum = 0
Injected packet rate average = 0.01
	minimum = 0.002 (at node 2)
	maximum = 0.014 (at node 15)
Accepted packet rate average = 0.0099375
	minimum = 0.002 (at node 8)
	maximum = 0.014 (at node 15)
Injected flit rate average = 0.01
	minimum = 0.002 (at node 2)
	maximum = 0.014 (at node 15)
Accepted flit rate average= 0.0099375
	minimum = 0.002 (at node 8)
	maximum = 0.014 (at node 15)
Injected packet length average = 1
Accepted packet length average = 1
Total in-flight flits = 1 (0 measured)
latency change    = 1
throughput change = 1
Class 0:
Packet latency average = 19.8602
	minimum = 7
	maximum = 37
Network latency average = 19.8602
	minimum = 7
	maximum = 37
Slowest packet = 10562
Flit latency average = 19.8602
	minimum = 7
	maximum = 37
Slowest flit = 10562
Fragmentation average = 0
	minimum = 0
	maximum = 0
Injected packet rate average = 0.0104688
	minimum = 0.0045 (at node 2)
	maximum = 0.0155 (at node 6)
Accepted packet rate average = 0.0102813
	minimum = 0.0045 (at node 8)
	maximum = 0.015 (at node 9)
Injected flit rate average = 0.0104688
	minimum = 0.0045 (at node 2)
	maximum = 0.0155 (at node 6)
Accepted flit rate average= 0.0102813
	minimum = 0.0045 (at node 8)
	maximum = 0.015 (at node 9)
Injected packet length average = 1
Accepted packet length average = 1
Total in-flight flits = 6 (0 measured)
latency change    = 0.0455287
throughput change = 0.0334347
Class 0:
Packet latency average = 20.1607
	minimum = 7
	maximum = 37
Network latency average = 20.1607
	minimum = 7
	maximum = 37
Slowest packet = 10887
Flit latency average = 20.1607
	minimum = 7
	maximum = 37
Slowest flit = 10887
Fragmentation average = 0
	minimum = 0
	maximum = 0
Injected packet rate average = 0.010375
	minimum = 0.005 (at node 0)
	maximum = 0.017 (at node 11)
Accepted packet rate average = 0.0105
	minimum = 0.005 (at node 0)
	maximum = 0.017 (at node 14)
Injected flit rate average = 0.010375
	minimum = 0.005 (at node 0)
	maximum = 0.017 (at node 11)
Accepted flit rate average= 0.0105
	minimum = 0.005 (at node 0)
	maximum = 0.017 (at node 14)
Injected packet length average = 1
Accepted packet length average = 1
Total in-flight flits = 4 (0 measured)
latency change    = 0.0149068
throughput change = 0.0208333
Warmed up ...Time used is 3000 cycles
Class 0:
Packet latency average = 19.3977
	minimum = 7
	maximum = 37
Network latency average = 19.3977
	minimum = 7
	maximum = 37
Slowest packet = 11076
Flit latency average = 19.6222
	minimum = 7
	maximum = 37
Slowest flit = 11056
Fragmentation average = 0
	minimum = 0
	maximum = 0
Injected packet rate average = 0.01125
	minimum = 0.006 (at node 8)
	maximum = 0.019 (at node 4)
Accepted packet rate average = 0.01125
	minimum = 0.006 (at node 2)
	maximum = 0.019 (at node 1)
Injected flit rate average = 0.01125
	minimum = 0.006 (at node 8)
	maximum = 0.019 (at node 4)
Accepted flit rate average= 0.01125
	minimum = 0.006 (at node 2)
	maximum = 0.019 (at node 1)
Injected packet length average = 1
Accepted packet length average = 1
Total in-flight flits = 4 (4 measured)
latency change    = 0.0393338
throughput change = 0.0666667
Class 0:
Packet latency average = 19.2711
	minimum = 7
	maximum = 38
Network latency average = 19.2711
	minimum = 7
	maximum = 38
Slowest packet = 11357
Flit latency average = 19.3929
	minimum = 7
	maximum = 38
Slowest flit = 11357
Fragmentation average = 0
	minimum = 0
	maximum = 0
Injected packet rate average = 0.0104688
	minimum = 0.006 (at node 5)
	maximum = 0.015 (at node 4)
Accepted packet rate average = 0.0105
	minimum = 0.006 (at node 2)
	maximum = 0.015 (at node 1)
Injected flit rate average = 0.0104688
	minimum = 0.006 (at node 5)
	maximum = 0.015 (at node 4)
Accepted flit rate average= 0.0105
	minimum = 0.006 (at node 2)
	maximum = 0.015 (at node 1)
Injected packet length average = 1
Accepted packet length average = 1
Total in-flight flits = 3 (3 measured)
latency change    = 0.00657166
throughput change = 0.0714286
Class 0:
Packet latency average = 19.6603
	minimum = 7
	maximum = 38
Network latency average = 19.6603
	minimum = 7
	maximum = 38
Slowest packet = 11357
Flit latency average = 19.7436
	minimum = 7
	maximum = 38
Slowest flit = 11357
Fragmentation average = 0
	minimum = 0
	maximum = 0
Injected packet rate average = 0.00977083
	minimum = 0.00566667 (at node 5)
	maximum = 0.0133333 (at node 3)
Accepted packet rate average = 0.00983333
	minimum = 0.00566667 (at node 5)
	maximum = 0.0136667 (at node 12)
Injected flit rate average = 0.00977083
	minimum = 0.00566667 (at node 5)
	maximum = 0.0133333 (at node 3)
Accepted flit rate average= 0.00983333
	minimum = 0.00566667 (at node 5)
	maximum = 0.0136667 (at node 12)
Injected packet length average = 1
Accepted packet length average = 1
Total in-flight flits = 1 (1 measured)
latency change    = 0.0197949
throughput change = 0.0677966
Class 0:
Packet latency average = 19.6777
	minimum = 7
	maximum = 38
Network latency average = 19.6777
	minimum = 7
	maximum = 38
Slowest packet = 11357
Flit latency average = 19.7394
	minimum = 7
	maximum = 38
Slowest flit = 11357
Fragmentation average = 0
	minimum = 0
	maximum = 0
Injected packet rate average = 0.01
	minimum = 0.00775 (at node 5)
	maximum = 0.01275 (at node 3)
Accepted packet rate average = 0.00995313
	minimum = 0.00775 (at node 5)
	maximum = 0.01275 (at node 12)
Injected flit rate average = 0.01
	minimum = 0.00775 (at node 5)
	maximum = 0.01275 (at node 3)
Accepted flit rate average= 0.00995313
	minimum = 0.00775 (at node 5)
	maximum = 0.01275 (at node 12)
Injected packet length average = 1
Accepted packet length average = 1
Total in-flight flits = 7 (7 measured)
latency change    = 0.00088774
throughput change = 0.0120356
Class 0:
Packet latency average = 19.8142
	minimum = 7
	maximum = 38
Network latency average = 19.8142
	minimum = 7
	maximum = 38
Slowest packet = 11357
Flit latency average = 19.8629
	minimum = 7
	maximum = 38
Slowest flit = 11357
Fragmentation average = 0
	minimum = 0
	maximum = 0
Injected packet rate average = 0.0099375
	minimum = 0.0074 (at node 5)
	maximum = 0.012 (at node 3)
Accepted packet rate average = 0.0099375
	minimum = 0.0074 (at node 5)
	maximum = 0.0122 (at node 12)
Injected flit rate average = 0.0099375
	minimum = 0.0074 (at node 5)
	maximum = 0.012 (at node 3)
Accepted flit rate average= 0.0099375
	minimum = 0.0074 (at node 5)
	maximum = 0.0122 (at node 12)
Injected packet length average = 1
Accepted packet length average = 1
Total in-flight flits = 4 (4 measured)
latency change    = 0.00688569
throughput change = 0.00157233
Class 0:
Packet latency average = 19.7365
	minimum = 7
	maximum = 38
Network latency average = 19.7365
	minimum = 7
	maximum = 38
Slowest packet = 11357
Flit latency average = 19.7769
	minimum = 7
	maximum = 38
Slowest flit = 11357
Fragmentation average = 0
	minimum = 0
	maximum = 0
Injected packet rate average = 0.0100729
	minimum = 0.008 (at node 2)
	maximum = 0.0121667 (at node 12)
Accepted packet rate average = 0.0100833
	minimum = 0.008 (at node 8)
	maximum = 0.0121667 (at node 3)
Injected flit rate average = 0.0100729
	minimum = 0.008 (at node 2)
	maximum = 0.0121667 (at node 12)
Accepted flit rate average= 0.0100833
	minimum = 0.008 (at node 8)
	maximum = 0.0121667 (at node 3)
Injected packet length average = 1
Accepted packet length average = 1
Total in-flight flits = 3 (3 measured)
latency change    = 0.00393407
throughput change = 0.0144628
Draining all recorded packets ...
Draining remaining packets ...
Time taken is 9046 cycles
Class 0:
Packet latency average = 18.4606
	minimum = 7
	maximum = 38
Network latency average = 18.4606
	minimum = 7
	maximum = 38
Slowest packet = 12148
Flit latency average = 18.4606
	minimum = 7
	maximum = 38
Slowest flit = 12148
Fragmentation average = 0
	minimum = 0
	maximum = 0
Injected packet rate average = 0.010375
	minimum = 0.004 (at node 6)
	maximum = 0.017 (at node 1)
Accepted packet rate average = 0.0103125
	minimum = 0.004 (at node 9)
	maximum = 0.017 (at node 4)
Injected flit rate average = 0.010375
	minimum = 0.004 (at node 6)
	maximum = 0.017 (at node 1)
Accepted flit rate average= 0.0103125
	minimum = 0.004 (at node 9)
	maximum = 0.017 (at node 4)
Injected packet length average = 1
Accepted packet length average = 1
Total in-flight flits = 1 (0 measured)
latency change    = 1
throughput change = 1
Class 0:
Packet latency average = 19.1281
	minimum = 7
	maximum = 38
Network latency average = 19.1281
	minimum = 7
	maximum = 38
Slowest packet = 12148
Flit latency average = 19.1281
	minimum = 7
	maximum = 38
Slowest flit = 12148
Fragmentation average = 0
	minimum = 0
	maximum = 0
Injected packet rate average = 0.0101563
	minimum = 0.007 (at node 6)
	maximum = 0.0145 (at node 7)
Accepted packet rate average = 0.01
	minimum = 0.007 (at node 9)
	maximum = 0.0135 (at node 13)
Injected flit rate average = 0.0101563
	minimum = 0.007 (at node 6)
	maximum = 0.0145 (at node 7)
Accepted flit rate average= 0.01
	minimum = 0.007 (at node 9)
	maximum = 0.0135 (at node 13)
Injected packet length average = 1
Accepted packet length average = 1
Total in-flight flits = 5 (0 measured)
latency change    = 0.0348972
throughput change = 0.03125
Class 0:
Packet latency average = 18.9438
	minimum = 7
	maximum = 37
Network latency average = 18.9438
	minimum = 7
	maximum = 37
Slowest packet = 12361
Flit latency average = 18.9438
	minimum = 7
	maximum = 37
Slowest flit = 12361
Fragmentation average = 0
	minimum = 0
	maximum = 0
Injected packet rate average = 0.0098125
	minimum = 0.003 (at node 6)
	maximum = 0.016 (at node 0)
Accepted packet rate average = 0.01
	minimum = 0.003 (at node 9)
	maximum = 0.016 (at node 0)
Injected flit rate average = 0.0098125
	minimum = 0.003 (at node 6)
	maximum = 0.016 (at node 0)
Accepted flit rate average= 0.01
	minimum = 0.003 (at node 9)
	maximum = 0.016 (at node 0)
Injected packet length average = 1
Accepted packet length average = 1
Total in-flight flits = 2 (0 measured)
latency change    = 0.00973276
throughput change = 0
Warmed up ...Time used is 3000 cycles
Class 0:
Packet latency average = 18.5584
	minimum = 7
	maximum = 37
Network latency average = 18.5584
	minimum = 7
	maximum = 37
Slowest packet = 12519
Flit latency average = 18.6026
	minimum = 7
	maximum = 37
Slowest flit = 12519
Fragmentation average = 0
	minimum = 0
	maximum = 0
Injected packet rate average = 0.0096875
	minimum = 0.004 (at node 3)
	maximum = 0.014 (at node 1)
Accepted packet rate average = 0.00975
	minimum = 0.004 (at node 12)
	maximum = 0.015 (at node 2)
Injected flit rate average = 0.0096875
	minimum = 0.004 (at node 3)
	maximum = 0.014 (at node 1)
Accepted flit rate average= 0.00975
	minimum = 0.004 (at node 12)
	maximum = 0.015 (at node 2)
Injected packet length average = 1
Accepted packet length average = 1
Total in-flight flits = 1 (1 measured)
latency change    = 0.0207619
throughput change = 0.025641
Class 0:
Packet latency average = 19.2078
	minimum = 7
	maximum = 37
Network latency average = 19.2078
	minimum = 7
	maximum = 37
Slowest packet = 12519
Flit latency average = 19.2258
	minimum = 7
	maximum = 37
Slowest flit = 12519
Fragmentation average = 0
	minimum = 0
	maximum = 0
Injected packet rate average = 0.00971875
	minimum = 0.006 (at node 3)
	maximum = 0.0135 (at node 8)
Accepted packet rate average = 0.0096875
	minimum = 0.006 (at node 12)
	maximum = 0.014 (at node 2)
Injected flit rate average = 0.00971875
	minimum = 0.006 (at node 3)
	maximum = 0.0135 (at node 8)
Accepted flit rate average= 0.0096875
	minimum = 0.006 (at node 12)
	maximum = 0.014 (at node 2)
Injected packet length average = 1
Accepted packet length average = 1
Total in-flight flits = 3 (3 measured)
latency change    = 0.0338066
throughput change = 0.00645161
Class 0:
Packet latency average = 19.5449
	minimum = 7
	maximum = 37
Network latency average = 19.5449
	minimum = 7
	maximum = 37
Slowest packet = 12519
Flit latency average = 19.5553
	minimum = 7
	maximum = 37
Slowest flit = 12519
Fragmentation average = 0
	minimum = 0
	maximum = 0
Injected packet rate average = 0.00983333
	minimum = 0.00633333 (at node 3)
	maximum = 0.0143333 (at node 8)
Accepted packet rate average = 0.00979167
	minimum = 0.00633333 (at node 6)
	maximum = 0.0143333 (at node 2)
Injected flit rate average = 0.00983333
	minimum = 0.00633333 (at node 3)
	maximum = 0.0143333 (at node 8)
Accepted flit rate average= 0.00979167
	minimum = 0.00633333 (at node 6)
	maximum = 0.0143333 (at node 2)
Injected packet length average = 1
Accepted packet length average = 1
Total in-flight flits = 4 (4 measured)
latency change    = 0.0172464
throughput change = 0.0106383
Draining all recorded packets ...
Draining remaining packets ...
Time taken is 6043 cycles
Class 0:
Packet latency average = 19.7403
	minimum = 7
	maximum = 38
Network latency average = 19.7403
	minimum = 7
	maximum = 38
Slowest packet = 13032
Flit latency average = 19.7403
	minimum = 7
	maximum = 38
Slowest flit = 13032
Fragmentation average = 0
	minimum = 0
	maximum = 0
Injected packet rate average = 0.009625
	minimum = 0.003 (at node 12)
	maximum = 0.016 (at node 13)
Accepted packet rate average = 0.009625
	minimum = 0.003 (at node 3)
	maximum = 0.016 (at node 7)
Injected flit rate average = 0.009625
	minimum = 0.003 (at node 12)
	maximum = 0.016 (at node 13)
Accepted flit rate average= 0.009625
	minimum = 0.003 (at node 3)
	maximum = 0.016 (at node 7)
Injected packet length average = 1
Accepted packet length average = 1
Total in-flight flits = 0 (0 measured)
latency change    = 1
throughput change = 1
Class 0:
Packet latency average = 19.5428
	minimum = 7
	maximum = 38
Network latency average = 19.5428
	minimum = 7
	maximum = 38
Slowest packet = 13032
Flit latency average = 19.5428
	minimum = 7
	maximum = 38
Slowest flit = 13032
Fragmentation average = 0
	minimum = 0
	maximum = 0
Injected packet rate average = 0.0095
	minimum = 0.006 (at node 7)
	maximum = 0.0125 (at node 1)
Accepted packet rate average = 0.0095
	minimum = 0.006 (at node 13)
	maximum = 0.0125 (at node 4)
Injected flit rate average = 0.0095
	minimum = 0.006 (at node 7)
	maximum = 0.0125 (at node 1)
Accepted flit rate average= 0.0095
	minimum = 0.006 (at node 13)
	maximum = 0.0125 (at node 4)
Injected packet length average = 1
Accepted packet length average = 1
Total in-flight flits = 0 (0 measured)
latency change    = 0.0101059
throughput change = 0.0131579
Class 0:
Packet latency average = 17.814
	minimum = 7
	maximum = 37
Network latency average = 17.814
	minimum = 7
	maximum = 37
Slowest packet = 13298
Flit latency average = 17.814
	minimum = 7
	maximum = 37
Slowest flit = 13298
Fragmentation average = 0
	minimum = 0
	maximum = 0
Injected packet rate average = 0.0109375
	minimum = 0.005 (at node 2)
	maximum = 0.018 (at node 4)
Accepted packet rate average = 0.01075
	minimum = 0.005 (at node 8)
	maximum = 0.018 (at node 1)
Injected flit rate average = 0.0109375
	minimum = 0.005 (at node 2)
	maximum = 0.018 (at node 4)
Accepted flit rate average= 0.01075
	minimum = 0.005 (at node 8)
	maximum = 0.018 (at node 1)
Injected packet length average = 1
Accepted packet length average = 1
Total in-flight flits = 3 (0 measured)
latency change    = 0.0970481
throughput change = 0.116279
Warmed up ...Time used is 3000 cycles
Class 0:
Packet latency average = 18.25
	minimum = 7
	maximum = 37
Network latency average = 18.25
	minimum = 7
	maximum = 37
Slowest packet = 13474
Flit latency average = 18.2883
	minimum = 7
	maximum = 37
Slowest flit = 13474
Fragmentation average = 0
	minimum = 0
	maximum = 0
Injected packet rate average = 0.0100625
	minimum = 0.004 (at node 2)
	maximum = 0.018 (at node 5)
Accepted packet rate average = 0.0101875
	minimum = 0.004 (at node 8)
	maximum = 0.018 (at node 5)
Injected flit rate average = 0.0100625
	minimum = 0.004 (at node 2)
	maximum = 0.018 (at node 5)
Accepted flit rate average= 0.0101875
	minimum = 0.004 (at node 8)
	maximum = 0.018 (at node 5)
Injected packet length average = 1
Accepted packet length average = 1
Total in-flight flits = 1 (1 measured)
latency change    = 0.023893
throughput change = 0.0552147
Class 0:
Packet latency average = 18.7184
	minimum = 7
	maximum = 37
Network latency average = 18.7184
	minimum = 7
	maximum = 37
Slowest packet = 13474
Flit latency average = 18.734
	minimum = 7
	maximum = 37
Slowest flit = 13474
Fragmentation average = 0
	minimum = 0
	maximum = 0
Injected packet rate average = 0.0096875
	minimum = 0.0065 (at node 2)
	maximum = 0.016 (at node 5)
Accepted packet rate average = 0.00975
	minimum = 0.0065 (at node 8)
	maximum = 0.016 (at node 5)
Injected flit rate average = 0.0096875
	minimum = 0.0065 (at node 2)
	maximum = 0.016 (at node 5)
Accepted flit rate average= 0.00975
	minimum = 0.0065 (at node 8)
	maximum = 0.016 (at node 5)
Injected packet length average = 1
Accepted packet length average = 1
Total in-flight flits = 1 (1 measured)
latency change    = 0.0250259
throughput change = 0.0448718
Class 0:
Packet latency average = 19.1271
	minimum = 7
	maximum = 39
Network latency average = 19.1271
	minimum = 7
	maximum = 39
Slowest packet = 13839
Flit latency average = 19.1347
	minimum = 7
	maximum = 39
Slowest flit = 13839
Fragmentation average = 0
	minimum = 0
	maximum = 0
Injected packet rate average = 0.00983333
	minimum = 0.00633333 (at node 2)
	maximum = 0.0133333 (at node 5)
Accepted packet rate average = 0.00989583
	minimum = 0.00633333 (at node 8)
	maximum = 0.0133333 (at node 2)
Injected flit rate average = 0.00983333
	minimum = 0.00633333 (at node 2)
	maximum = 0.0133333 (at node 5)
Accepted flit rate average= 0.00989583
	minimum = 0.00633333 (at node 8)
	maximum = 0.0133333 (at node 2)
Injected packet length average = 1
Accepted packet length average = 1
Total in-flight flits = 0 (0 measured)
latency change    = 0.0213661
throughput change = 0.0147368
Class 0:
Packet latency average = 19.11
	minimum = 7
	maximum = 39
Network latency average = 19.11
	minimum = 7
	maximum = 39
Slowest packet = 13839
Flit latency average = 19.116
	minimum = 7
	maximum = 39
Slowest flit = 13839
Fragmentation average = 0
	minimum = 0
	maximum = 0
Injected packet rate average = 0.0095625
	minimum = 0.00675 (at node 15)
	maximum = 0.01175 (at node 5)
Accepted packet rate average = 0.0095625
	minimum = 0.00675 (at node 15)
	maximum = 0.01175 (at node 5)
Injected flit rate average = 0.0095625
	minimum = 0.00675 (at node 15)
	maximum = 0.01175 (at node 5)
Accepted flit rate average= 0.0095625
	minimum = 0.00675 (at node 15)
	maximum = 0.01175 (at node 5)
Injected packet length average = 1
Accepted packet length average = 1
Total in-flight flits = 3 (3 measured)
latency change    = 0.000894935
throughput change = 0.0348584
Draining all recorded packets ...
Draining remaining packets ...
Time taken is 7048 cycles
Class 0:
Packet latency average = 20
	minimum = 7
	maximum = 37
Network latency average = 20
	minimum = 7
	maximum = 37
Slowest packet = 14086
Flit latency average = 20
	minimum = 7
	maximum = 37
Slowest flit = 14086
Fragmentation average = 0
	minimum = 0
	maximum = 0
Injected packet rate average = 0.008875
	minimum = 0.004 (at node 10)
	maximum = 0.015 (at node 4)
Accepted packet rate average = 0.0085625
	minimum = 0.004 (at node 10)
	maximum = 0.015 (at node 1)
Injected flit rate average = 0.008875
	minimum = 0.004 (at node 10)
	maximum = 0.015 (at node 4)
Accepted flit rate average= 0.0085625
	minimum = 0.004 (at node 10)
	maximum = 0.015 (at node 1)
Injected packet length average = 1
Accepted packet length average = 1
Total in-flight flits = 5 (0 measured)
latency change    = 1
throughput change = 1
Class 0:
Packet latency average = 19.5666
	minimum = 7
	maximum = 37
Network latency average = 19.5666
	minimum = 7
	maximum = 37
Slowest packet = 14086
Flit latency average = 19.5666
	minimum = 7
	maximum = 37
Slowest flit = 14086
Fragmentation average = 0
	minimum = 0
	maximum = 0
Injected packet rate average = 0.00921875
	minimum = 0.0065 (at node 3)
	maximum = 0.013 (at node 8)
Accepted packet rate average = 0.00915625
	minimum = 0.0065 (at node 12)
	maximum = 0.013 (at node 2)
Injected flit rate average = 0.00921875
	minimum = 0.0065 (at node 3)
	maximum = 0.013 (at node 8)
Accepted flit rate average= 0.00915625
	minimum = 0.0065 (at node 12)
	maximum = 0.013 (at node 2)
Injected packet length average = 1
Accepted packet length average = 1
Total in-flight flits = 2 (0 measured)
latency change    = 0.0221525
throughput change = 0.0648464
Class 0:
Packet latency average = 18.5931
	minimum = 7
	maximum = 37
Network latency average = 18.5931
	minimum = 7
	maximum = 37
Slowest packet = 14377
Flit latency average = 18.5931
	minimum = 7
	maximum = 37
Slowest flit = 14377
Fragmentation average = 0
	minimum = 0
	maximum = 0
Injected packet rate average = 0.009125
	minimum = 0.005 (at node 12)
	maximum = 0.015 (at node 6)
Accepted packet rate average = 0.0090625
	minimum = 0.005 (at node 3)
	maximum = 0.015 (at node 9)
Injected flit rate average = 0.009125
	minimum = 0.005 (at node 12)
	maximum = 0.015 (at node 6)
Accepted flit rate average= 0.0090625
	minimum = 0.005 (at node 3)
	maximum = 0.015 (at node 9)
Injected packet length average = 1
Accepted packet length average = 1
Total in-flight flits = 3 (0 measured)
latency change    = 0.0523554
throughput change = 0.0103448
Warmed up ...Time used is 3000 cycles
Class 0:
Packet latency average = 19.0567
	minimum = 7
	maximum = 37
Network latency average = 19.0567
	minimum = 7
	maximum = 37
Slowest packet = 14529
Flit latency average = 19.0833
	minimum = 7
	maximum = 37
Slowest flit = 14520
Fragmentation average = 0
	minimum = 0
	maximum = 0
Injected packet rate average = 0.0089375
	minimum = 0.003 (at node 4)
	maximum = 0.014 (at node 11)
Accepted packet rate average = 0.009
	minimum = 0.003 (at node 1)
	maximum = 0.014 (at node 14)
Injected flit rate average = 0.0089375
	minimum = 0.003 (at node 4)
	maximum = 0.014 (at node 11)
Accepted flit rate average= 0.009
	minimum = 0.003 (at node 1)
	maximum = 0.014 (at node 14)
Injected packet length average = 1
Accepted packet length average = 1
Total in-flight flits = 2 (2 measured)
latency change    = 0.0243291
throughput change = 0.00694444
Class 0:
Packet latency average = 18.6949
	minimum = 7
	maximum = 37
Network latency average = 18.6949
	minimum = 7
	maximum = 37
[...]
	minimum = 0
	maximum = 0
Injected packet rate average = 0.0100313
	minimum = 0.006 (at node 0)
	maximum = 0.0135 (at node 1)
Accepted packet rate average = 0.0099375
	minimum = 0.0055 (at node 0)
	maximum = 0.0135 (at node 4)
Injected flit rate average = 0.0100313
	minimum = 0.006 (at node 0)
	maximum = 0.0135 (at node 1)
Accepted flit rate average= 0.0099375
	minimum = 0.0055 (at node 0)
	maximum = 0.0135 (at node 4)
Injected packet length average = 1
Accepted packet length average = 1
Total in-flight flits = 3 (0 measured)
latency change    = 0.0219727
throughput change = 0.0377358
Class 0:
Packet latency average = 18.9787
	minimum = 7
	maximum = 38
Network latency average = 18.9787
	minimum = 7
	maximum = 38
Slowest packet = 117605
Flit latency average = 18.9787
	minimum = 7
	maximum = 38
Slowest flit = 117605
Fragmentation average = 0
	minimum = 0
	maximum = 0
Injected packet rate average = 0.011625
	minimum = 0.007 (at node 3)
	maximum = 0.017 (at node 10)
Accepted packet rate average = 0.01175
	minimum = 0.007 (at node 9)
	maximum = 0.017 (at node 10)
Injected flit rate average = 0.011625
	minimum = 0.007 (at node 3)
	maximum = 0.017 (at node 10)
Accepted flit rate average= 0.01175
	minimum = 0.007 (at node 9)
	maximum = 0.017 (at node 10)
Injected packet length average = 1
Accepted packet length average = 1
Total in-flight flits = 1 (0 measured)
latency change    = 0.0468525
throughput change = 0.154255
Warmed up ...Time used is 3000 cycles
Class 0:
Packet latency average = 20.0824
	minimum = 7
	maximum = 38
Network latency average = 20.0824
	minimum = 7
	maximum = 38
Slowest packet = 117810
Flit latency average = 20.1202
	minimum = 7
	maximum = 38
Slowest flit = 117810
Fragmentation average = 0
	minimum = 0
	maximum = 0
Injected packet rate average = 0.0116875
	minimum = 0.008 (at node 14)
	maximum = 0.018 (at node 2)
Accepted packet rate average = 0.0114375
	minimum = 0.008 (at node 11)
	maximum = 0.018 (at node 8)
Injected flit rate average = 0.0116875
	minimum = 0.008 (at node 14)
	maximum = 0.018 (at node 2)
Accepted flit rate average= 0.0114375
	minimum = 0.008 (at node 11)
	maximum = 0.018 (at node 8)
Injected packet length average = 1
Accepted packet length average = 1
Total in-flight flits = 5 (5 measured)
latency change    = 0.0549582
throughput change = 0.0273224
Class 0:
Packet latency average = 19.991
	minimum = 7
	maximum = 38
Network latency average = 19.991
	minimum = 7
	maximum = 38
Slowest packet = 117810
Flit latency average = 20.012
	minimum = 7
	maximum = 38
Slowest flit = 117810
Fragmentation average = 0
	minimum = 0
	maximum = 0
Injected packet rate average = 0.0105625
	minimum = 0.007 (at node 14)
	maximum = 0.0145 (at node 2)
Accepted packet rate average = 0.0104063
	minimum = 0.0065 (at node 11)
	maximum = 0.0145 (at node 8)
Injected flit rate average = 0.0105625
	minimum = 0.007 (at node 14)
	maximum = 0.0145 (at node 2)
Accepted flit rate average= 0.0104063
	minimum = 0.0065 (at node 11)
	maximum = 0.0145 (at node 8)
Injected packet length average = 1
Accepted packet length average = 1
Total in-flight flits = 6 (6 measured)
latency change    = 0.00457475
throughput change = 0.0990991
Class 0:
Packet latency average = 20.0339
	minimum = 7
	maximum = 38
Network latency average = 20.0339
	minimum = 7
	maximum = 38
Slowest packet = 117810
Flit latency average = 20.0477
	minimum = 7
	maximum = 38
Slowest flit = 117810
Fragmentation average = 0
	minimum = 0
	maximum = 0
Injected packet rate average = 0.0105417
	minimum = 0.009 (at node 13)
	maximum = 0.013 (at node 3)
Accepted packet rate average = 0.0104792
	minimum = 0.009 (at node 11)
	maximum = 0.0126667 (at node 12)
Injected flit rate average = 0.0105417
	minimum = 0.009 (at node 13)
	maximum = 0.013 (at node 3)
Accepted flit rate average= 0.0104792
	minimum = 0.009 (at node 11)
	maximum = 0.0126667 (at node 12)
Injected packet length average = 1
Accepted packet length average = 1
Total in-flight flits = 4 (4 measured)
latency change    = 0.00214141
throughput change = 0.00695825
Class 0:
Packet latency average = 19.6987
	minimum = 7
	maximum = 38
Network latency average = 19.6987
	minimum = 7
	maximum = 38
Slowest packet = 117810
Flit latency average = 19.7094
	minimum = 7
	maximum = 38
Slowest flit = 117810
Fragmentation average = 0
	minimum = 0
	maximum = 0
Injected packet rate average = 0.0105781
	minimum = 0.00925 (at node 4)
	maximum = 0.01175 (at node 3)
Accepted packet rate average = 0.0105938
	minimum = 0.00925 (at node 1)
	maximum = 0.01175 (at node 10)
Injected flit rate average = 0.0105781
	minimum = 0.00925 (at node 4)
	maximum = 0.01175 (at node 3)
Accepted flit rate average= 0.0105938
	minimum = 0.00925 (at node 1)
	maximum = 0.01175 (at node 10)
Injected packet length average = 1
Accepted packet length average = 1
Total in-flight flits = 0 (0 measured)
latency change    = 0.0170161
throughput change = 0.0108161
Class 0:
Packet latency average = 19.4698
	minimum = 7
	maximum = 38
Network latency average = 19.4698
	minimum = 7
	maximum = 38
Slowest packet = 117810
Flit latency average = 19.4787
	minimum = 7
	maximum = 38
Slowest flit = 117810
Fragmentation average = 0
	minimum = 0
	maximum = 0
Injected packet rate average = 0.010575
	minimum = 0.0084 (at node 13)
	maximum = 0.0118 (at node 3)
Accepted packet rate average = 0.010575
	minimum = 0.0086 (at node 7)
	maximum = 0.0118 (at node 10)
Injected flit rate average = 0.010575
	minimum = 0.0084 (at node 13)
	maximum = 0.0118 (at node 3)
Accepted flit rate average= 0.010575
	minimum = 0.0086 (at node 7)
	maximum = 0.0118 (at node 10)
Injected packet length average = 1
Accepted packet length average = 1
Total in-flight flits = 1 (1 measured)
latency change    = 0.011754
throughput change = 0.00177305
Draining all recorded packets ...
Draining remaining packets ...
Time taken is 8053 cycles
Class 0:
Packet latency average = 18.9803
	minimum = 7
	maximum = 38
Network latency average = 18.9803
	minimum = 7
	maximum = 38
Slowest packet = 118633
Flit latency average = 18.9803
	minimum = 7
	maximum = 38
Slowest flit = 118633
Fragmentation average = 0
	minimum = 0
	maximum = 0
Injected packet rate average = 0.0095625
	minimum = 0.004 (at node 14)
	maximum = 0.019 (at node 1)
Accepted packet rate average = 0.0095
	minimum = 0.004 (at node 11)
	maximum = 0.019 (at node 4)
Injected flit rate average = 0.0095625
	minimum = 0.004 (at node 14)
	maximum = 0.019 (at node 1)
Accepted flit rate average= 0.0095
	minimum = 0.004 (at node 11)
	maximum = 0.019 (at node 4)
Injected packet length average = 1
Accepted packet length average = 1
Total in-flight flits = 1 (0 measured)
latency change    = 1
throughput change = 1
Class 0:
Packet latency average = 18.415
	minimum = 7
	maximum = 38
Network latency average = 18.415
	minimum = 7
	maximum = 38
Slowest packet = 118633
Flit latency average = 18.415
	minimum = 7
	maximum = 38
Slowest flit = 118633
Fragmentation average = 0
	minimum = 0
	maximum = 0
Injected packet rate average = 0.00971875
	minimum = 0.005 (at node 14)
	maximum = 0.016 (at node 1)
Accepted packet rate average = 0.0095625
	minimum = 0.005 (at node 11)
	maximum = 0.0145 (at node 4)
Injected flit rate average = 0.00971875
	minimum = 0.005 (at node 14)
	maximum = 0.016 (at node 1)
Accepted flit rate average= 0.0095625
	minimum = 0.005 (at node 11)
	maximum = 0.0145 (at node 4)
Injected packet length average = 1
Accepted packet length average = 1
Total in-flight flits = 5 (0 measured)
latency change    = 0.030694
throughput change = 0.00653595
Class 0:
Packet latency average = 18.6111
	minimum = 7
	maximum = 38
Network latency average = 18.6111
	minimum = 7
	maximum = 38
Slowest packet = 119035
Flit latency average = 18.6111
	minimum = 7
	maximum = 38
Slowest flit = 119035
Fragmentation average = 0
	minimum = 0
	maximum = 0
Injected packet rate average = 0.0089375
	minimum = 0.003 (at node 8)
	maximum = 0.013 (at node 14)
Accepted packet rate average = 0.009
	minimum = 0.002 (at node 2)
	maximum = 0.013 (at node 4)
Injected flit rate average = 0.0089375
	minimum = 0.003 (at node 8)
	maximum = 0.013 (at node 14)
Accepted flit rate average= 0.009
	minimum = 0.002 (at node 2)
	maximum = 0.013 (at node 4)
Injected packet length average = 1
Accepted packet length average = 1
Total in-flight flits = 4 (0 measured)
latency change    = 0.0105356
throughput change = 0.0625
Warmed up ...Time used is 3000 cycles
Class 0:
Packet latency average = 20.0667
	minimum = 7
	maximum = 37
Network latency average = 20.0667
	minimum = 7
	maximum = 37
Slowest packet = 119066
Flit latency average = 20.2468
	minimum = 7
	maximum = 37
Slowest flit = 119053
Fragmentation average = 0
	minimum = 0
	maximum = 0
Injected packet rate average = 0.0095
	minimum = 0.005 (at node 5)
	maximum = 0.014 (at node 7)
Accepted packet rate average = 0.009625
	minimum = 0.005 (at node 5)
	maximum = 0.014 (at node 7)
Injected flit rate average = 0.0095
	minimum = 0.005 (at node 5)
	maximum = 0.014 (at node 7)
Accepted flit rate average= 0.009625
	minimum = 0.005 (at node 5)
	maximum = 0.014 (at node 7)
Injected packet length average = 1
Accepted packet length average = 1
Total in-flight flits = 2 (2 measured)
latency change    = 0.072536
throughput change = 0.0649351
Class 0:
Packet latency average = 18.7974
	minimum = 7
	maximum = 37
Network latency average = 18.7974
	minimum = 7
	maximum = 37
Slowest packet = 119066
Flit latency average = 18.9032
	minimum = 7
	maximum = 37
Slowest flit = 119053
Fragmentation average = 0
	minimum = 0
	maximum = 0
Injected packet rate average = 0.0096875
	minimum = 0.006 (at node 12)
	maximum = 0.013 (at node 15)
Accepted packet rate average = 0.0096875
	minimum = 0.006 (at node 3)
	maximum = 0.013 (at node 15)
Injected flit rate average = 0.0096875
	minimum = 0.006 (at node 12)
	maximum = 0.013 (at node 15)
Accepted flit rate average= 0.0096875
	minimum = 0.006 (at node 3)
	maximum = 0.013 (at node 15)
Injected packet length average = 1
Accepted packet length average = 1
Total in-flight flits = 4 (4 measured)
latency change    = 0.0675243
throughput change = 0.00645161
Class 0:
Packet latency average = 18.9132
	minimum = 7
	maximum = 37
Network latency average = 18.9132
	minimum = 7
	maximum = 37
Slowest packet = 119066
Flit latency average = 18.9828
	minimum = 7
	maximum = 37
Slowest flit = 119053
Fragmentation average = 0
	minimum = 0
	maximum = 0
Injected packet rate average = 0.009625
	minimum = 0.007 (at node 12)
	maximum = 0.0123333 (at node 15)
Accepted packet rate average = 0.0096875
	minimum = 0.007 (at node 3)
	maximum = 0.0123333 (at node 15)
Injected flit rate average = 0.009625
	minimum = 0.007 (at node 12)
	maximum = 0.0123333 (at node 15)
Accepted flit rate average= 0.0096875
	minimum = 0.007 (at node 3)
	maximum = 0.0123333 (at node 15)
Injected packet length average = 1
Accepted packet length average = 1
Total in-flight flits = 1 (1 measured)
latency change    = 0.00612516
throughput change = 0
Class 0:
Packet latency average = 19.0375
	minimum = 7
	maximum = 38
Network latency average = 19.0375
	minimum = 7
	maximum = 38
Slowest packet = 119524
Flit latency average = 19.087
	minimum = 7
	maximum = 38
Slowest flit = 119524
Fragmentation average = 0
	minimum = 0
	maximum = 0
Injected packet rate average = 0.0100156
	minimum = 0.00725 (at node 3)
	maximum = 0.012 (at node 7)
Accepted packet rate average = 0.0100625
	minimum = 0.0075 (at node 12)
	maximum = 0.012 (at node 13)
Injected flit rate average = 0.0100156
	minimum = 0.00725 (at node 3)
	maximum = 0.012 (at node 7)
Accepted flit rate average= 0.0100625
	minimum = 0.0075 (at node 12)
	maximum = 0.012 (at node 13)
Injected packet length average = 1
Accepted packet length average = 1
Total in-flight flits = 1 (1 measured)
latency change    = 0.00652753
throughput change = 0.0372671
Class 0:
Packet latency average = 19.054
	minimum = 7
	maximum = 38
Network latency average = 19.054
	minimum = 7
	maximum = 38
Slowest packet = 119524
Flit latency average = 19.0938
	minimum = 7
	maximum = 38
Slowest flit = 119524
Fragmentation average = 0
	minimum = 0
	maximum = 0
Injected packet rate average = 0.0099625
	minimum = 0.0082 (at node 3)
	maximum = 0.012 (at node 15)
Accepted packet rate average = 0.01
	minimum = 0.0084 (at node 3)
	maximum = 0.012 (at node 15)
Injected flit rate average = 0.0099625
	minimum = 0.0082 (at node 3)
	maximum = 0.012 (at node 15)
Accepted flit rate average= 0.01
	minimum = 0.0084 (at node 3)
	maximum = 0.012 (at node 15)
Injected packet length average = 1
Accepted packet length average = 1
Total in-flight flits = 1 (1 measured)
latency change    = 0.000867014
throughput change = 0.00625
Draining all recorded packets ...
Draining remaining packets ...
Time taken is 8044 cycles
Class 0:
Packet latency average = 18.5169
	minimum = 7
	maximum = 37
Network latency average = 18.5169
	minimum = 7
	maximum = 37
Slowest packet = 119861
Flit latency average = 18.5169
	minimum = 7
	maximum = 37
Slowest flit = 119861
Fragmentation average = 0
	minimum = 0
	maximum = 0
Injected packet rate average = 0.0111875
	minimum = 0.007 (at node 1)
	maximum = 0.016 (at node 10)
Accepted packet rate average = 0.011125
	minimum = 0.007 (at node 4)
	maximum = 0.016 (at node 10)
Injected flit rate average = 0.0111875
	minimum = 0.007 (at node 1)
	maximum = 0.016 (at node 10)
Accepted flit rate average= 0.011125
	minimum = 0.007 (at node 4)
	maximum = 0.016 (at node 10)
Injected packet length average = 1
Accepted packet length average = 1
Total in-flight flits = 1 (0 measured)
latency change    = 1
throughput change = 1
Class 0:
Packet latency average = 19.2654
	minimum = 7
	maximum = 38
Network latency average = 19.2654
	minimum = 7
	maximum = 38
Slowest packet = 120156
Flit latency average = 19.2654
	minimum = 7
	maximum = 38
Slowest flit = 120156
Fragmentation average = 0
	minimum = 0
	maximum = 0
Injected packet rate average = 0.0113125
	minimum = 0.0055 (at node 1)
	maximum = 0.014 (at node 8)
Accepted packet rate average = 0.0111875
	minimum = 0.0055 (at node 4)
	maximum = 0.0135 (at node 0)
Injected flit rate average = 0.0113125
	minimum = 0.0055 (at node 1)
	maximum = 0.014 (at node 8)
Accepted flit rate average= 0.0111875
	minimum = 0.0055 (at node 4)
	maximum = 0.0135 (at node 0)
Injected packet length average = 1
Accepted packet length average = 1
Total in-flight flits = 4 (0 measured)
latency change    = 0.0388526
throughput change = 0.00558659
Class 0:
Packet latency average = 18.6325
	minimum = 7
	maximum = 38
Network latency average = 18.6325
	minimum = 7
	maximum = 38
Slowest packet = 120229
Flit latency average = 18.6325
	minimum = 7
	maximum = 38
Slowest flit = 120229
Fragmentation average = 0
	minimum = 0
	maximum = 0
Injected packet rate average = 0.0101875
	minimum = 0.006 (at node 7)
	maximum = 0.016 (at node 10)
Accepted packet rate average = 0.010375
	minimum = 0.007 (at node 13)
	maximum = 0.016 (at node 10)
Injected flit rate average = 0.0101875
	minimum = 0.006 (at node 7)
	maximum = 0.016 (at node 10)
Accepted flit rate average= 0.010375
	minimum = 0.007 (at node 13)
	maximum = 0.016 (at node 10)
Injected packet length average = 1
Accepted packet length average = 1
Total in-flight flits = 1 (0 measured)
latency change    = 0.0339639
throughput change = 0.0783133
Warmed up ...Time used is 3000 cycles
Class 0:
Packet latency average = 19.723
	minimum = 7
	maximum = 37
Network latency average = 19.723
	minimum = 7
	maximum = 37
Slowest packet = 120388
Flit latency average = 19.7047
	minimum = 7
	maximum = 37
Slowest flit = 120388
Fragmentation average = 0
	minimum = 0
	maximum = 0
Injected packet rate average = 0.0093125
	minimum = 0.005 (at node 10)
	maximum = 0.015 (at node 6)
Accepted packet rate average = 0.0093125
	minimum = 0.005 (at node 10)
	maximum = 0.015 (at node 9)
Injected flit rate average = 0.0093125
	minimum = 0.005 (at node 10)
	maximum = 0.015 (at node 6)
Accepted flit rate average= 0.0093125
	minimum = 0.005 (at node 10)
	maximum = 0.015 (at node 9)
Injected packet length average = 1
Accepted packet length average = 1
Total in-flight flits = 1 (1 measured)
latency change    = 0.055288
throughput change = 0.114094
Class 0:
Packet latency average = 19.2326
	minimum = 7
	maximum = 37
Network latency average = 19.2326
	minimum = 7
	maximum = 37
Slowest packet = 120388
Flit latency average = 19.2249
	minimum = 7
	maximum = 37
Slowest flit = 120388
Fragmentation average = 0
	minimum = 0
	maximum = 0
Injected packet rate average = 0.009125
	minimum = 0.007 (at node 12)
	maximum = 0.0115 (at node 1)
Accepted packet rate average = 0.00903125
	minimum = 0.007 (at node 2)
	maximum = 0.0115 (at node 4)
Injected flit rate average = 0.009125
	minimum = 0.007 (at node 12)
	maximum = 0.0115 (at node 1)
Accepted flit rate average= 0.00903125
	minimum = 0.007 (at node 2)
	maximum = 0.0115 (at node 4)
Injected packet length average = 1
Accepted packet length average = 1
Total in-flight flits = 4 (4 measured)
latency change    = 0.0254949
throughput change = 0.0311419
Class 0:
Packet latency average = 19.6154
	minimum = 7
	maximum = 38
Network latency average = 19.6154
	minimum = 7
	maximum = 38
Slowest packet = 120685
Flit latency average = 19.6095
	minimum = 7
	maximum = 38
Slowest flit = 120685
Fragmentation average = 0
	minimum = 0
	maximum = 0
Injected packet rate average = 0.00929167
	minimum = 0.007 (at node 2)
	maximum = 0.0126667 (at node 1)
Accepted packet rate average = 0.00922917
	minimum = 0.00666667 (at node 8)
	maximum = 0.0126667 (at node 4)
Injected flit rate average = 0.00929167
	minimum = 0.007 (at node 2)
	maximum = 0.0126667 (at node 1)
Accepted flit rate average= 0.00922917
	minimum = 0.00666667 (at node 8)
	maximum = 0.0126667 (at node 4)
Injected packet length average = 1
Accepted packet length average = 1
Total in-flight flits = 4 (4 measured)
latency change    = 0.0195125
throughput change = 0.0214447
Class 0:
Packet latency average = 19.6164
	minimum = 7
	maximum = 38
Network latency average = 19.6164
	minimum = 7
	maximum = 38
Slowest packet = 120685
Flit latency average = 19.6121
	minimum = 7
	maximum = 38
Slowest flit = 120685
Fragmentation average = 0
	minimum = 0
	maximum = 0
Injected packet rate average = 0.00954687
	minimum = 0.00675 (at node 2)
	maximum = 0.01225 (at node 13)
Accepted packet rate average = 0.00954687
	minimum = 0.00675 (at node 8)
	maximum = 0.01225 (at node 7)
Injected flit rate average = 0.00954687
	minimum = 0.00675 (at node 2)
	maximum = 0.01225 (at node 13)
Accepted flit rate average= 0.00954687
	minimum = 0.00675 (at node 8)
	maximum = 0.01225 (at node 7)
Injected packet length average = 1
Accepted packet length average = 1
Total in-flight flits = 1 (1 measured)
latency change    = 5.14278e-05
throughput change = 0.0332788
Draining all recorded packets ...
Draining remaining packets ...
Time taken is 7009 cycles
====== Overall Traffic Statistics ======
====== Traffic class 0 ======
Packet latency average = 19.5322 (100 samples)
	minimum = 7 (100 samples)
	maximum = 37.7 (100 samples)
Network latency average = 19.5322 (100 samples)
	minimum = 7 (100 samples)
	maximum = 37.7 (100 samples)
Flit latency average = 19.5519 (100 samples)
	minimum = 7 (100 samples)
	maximum = 37.7 (100 samples)
Fragmentation average = 0 (100 samples)
	minimum = 0 (100 samples)
	maximum = 0 (100 samples)
Injected packet rate average = 0.00998611 (100 samples)
	minimum = 0.00735362 (100 samples)
	maximum = 0.0127467 (100 samples)
Accepted packet rate average = 0.0099871 (100 samples)
	minimum = 0.00734595 (100 samples)
	maximum = 0.0127411 (100 samples)
Injected flit rate average = 0.00998611 (100 samples)
	minimum = 0.00735362 (100 samples)
	maximum = 0.0127467 (100 samples)
Accepted flit rate average = 0.0099871 (100 samples)
	minimum = 0.00734595 (100 samples)
	maximum = 0.0127411 (100 samples)
Injected packet size average = 1 (100 samples)
Accepted packet size average = 1 (100 samples)
Hops average = 3.50538 (100 samples)
Total run time 4.8939
