BEGIN Configuration File: /tmp/bs_1138183_313107.cfg
topology = mesh;
k = 4;
n = 2;
routing_function = dor;
num_vcs = 4;
vc_buf_size = 4;
wait_for_tail_credit = 1;
vc_allocator = islip;
sw_allocator = islip;
alloc_iters = 1;
credit_delay = 2;
routing_delay = 1;
vc_alloc_delay = 1;
sw_alloc_delay = 1;
input_speedup = 2;
output_speedup = 1;
internal_speedup = 1.0;
traffic = uniform;
packet_size = 1;
sim_type = latency;
injection_rate = 0.1;
warmup_periods = 3;
sample_period = 1000;
sim_count = 100;
seed = 3;

END Configuration File: /tmp/bs_1138183_313107.cfg
Class 0:
Packet latency average = 19.2952
	minimum = 7
	maximum = 38
Network latency average = 19.2939
	minimum = 7
	maximum = 38
Slowest packet = 421
Flit latency average = 19.2939
	minimum = 7
	maximum = 38
Slowest flit = 421
Fragmentation average = 0
	minimum = 0
	maximum = 0
Injected packet rate average = 0.09975
	minimum = 0.079 (at node 15)
	maximum = 0.115 (at node 9)
Accepted packet rate average = 0.09825
	minimum = 0.084 (at node 3)
	maximum = 0.114 (at node 9)
Injected flit rate average = 0.09975
	minimum = 0.079 (at node 15)
	maximum = 0.115 (at node 9)
Accepted flit rate average= 0.09825
	minimum = 0.084 (at node 3)
	maximum = 0.114 (at node 9)
Injected packet length average = 1
Accepted packet length average = 1
Total in-flight flits = 24 (0 measured)
latency change    = 1
throughput change = 1
Class 0:
Packet latency average = 19.2869
	minimum = 7
	maximum = 42
Network latency average = 19.2853
	minimum = 7
	maximum = 42
Slowest packet = 1974
Flit latency average = 19.2853
	minimum = 7
	maximum = 42
Slowest flit = 1974
Fragmentation average = 0
	minimum = 0
	maximum = 0
Injected packet rate average = 0.0980625
	minimum = 0.088 (at node 15)
	maximum = 0.1085 (at node 9)
Accepted packet rate average = 0.097375
	minimum = 0.086 (at node 10)
	maximum = 0.1095 (at node 7)
Injected flit rate average = 0.0980625
	minimum = 0.088 (at node 15)
	maximum = 0.1085 (at node 9)
Accepted flit rate average= 0.097375
	minimum = 0.086 (at node 10)
	maximum = 0.1095 (at node 7)
Injected packet length average = 1
Accepted packet length average = 1
Total in-flight flits = 22 (0 measured)
latency change    = 0.000428223
throughput change = 0.00898588
Class 0:
Packet latency average = 19.7672
	minimum = 7
	maximum = 42
Network latency average = 19.7672
	minimum = 7
	maximum = 42
Slowest packet = 3809
Flit latency average = 19.7672
	minimum = 7
	maximum = 42
Slowest flit = 3809
Fragmentation average = 0
	minimum = 0
	maximum = 0
Injected packet rate average = 0.0985
	minimum = 0.084 (at node 9)
	maximum = 0.114 (at node 12)
Accepted packet rate average = 0.098
	minimum = 0.087 (at node 12)
	maximum = 0.12 (at node 6)
Injected flit rate average = 0.0985
	minimum = 0.084 (at node 9)
	maximum = 0.114 (at node 12)
Accepted flit rate average= 0.098
	minimum = 0.087 (at node 12)
	maximum = 0.12 (at node 6)
Injected packet length average = 1
Accepted packet length average = 1
Total in-flight flits = 30 (0 measured)
latency change    = 0.0242985
throughput change = 0.00637755
Warmed up ...Time used is 3000 cycles
Class 0:
Packet latency average = 19.4741
	minimum = 7
	maximum = 38
Network latency average = 19.4741
	minimum = 7
	maximum = 38
Slowest packet = 4878
Flit latency average = 19.5151
	minimum = 7
	maximum = 38
Slowest flit = 4878
Fragmentation average = 0
	minimum = 0
	maximum = 0
Injected packet rate average = 0.097125
	minimum = 0.078 (at node 9)
	maximum = 0.112 (at node 12)
Accepted packet rate average = 0.0971875
	minimum = 0.079 (at node 10)
	maximum = 0.118 (at node 13)
Injected flit rate average = 0.097125
	minimum = 0.078 (at node 9)
	maximum = 0.112 (at node 12)
Accepted flit rate average= 0.0971875
	minimum = 0.079 (at node 10)
	maximum = 0.118 (at node 13)
Injected packet length average = 1
Accepted packet length average = 1
Total in-flight flits = 29 (29 measured)
latency change    = 0.0150518
throughput change = 0.00836013
Class 0:
Packet latency average = 19.4657
	minimum = 7
	maximum = 38
Network latency average = 19.4657
	minimum = 7
	maximum = 38
Slowest packet = 4878
Flit latency average = 19.4859
	minimum = 7
	maximum = 38
Slowest flit = 4878
Fragmentation average = 0
	minimum = 0
	maximum = 0
Injected packet rate average = 0.0990937
	minimum = 0.0865 (at node 14)
	maximum = 0.1155 (at node 12)
Accepted packet rate average = 0.0994375
	minimum = 0.0805 (at node 10)
	maximum = 0.113 (at node 0)
Injected flit rate average = 0.0990937
	minimum = 0.0865 (at node 14)
	maximum = 0.1155 (at node 12)
Accepted flit rate average= 0.0994375
	minimum = 0.0805 (at node 10)
	maximum = 0.113 (at node 0)
Injected packet length average = 1
Accepted packet length average = 1
Total in-flight flits = 19 (19 measured)
latency change    = 0.000429592
throughput change = 0.0226273
Class 0:
Packet latency average = 19.5182
	minimum = 7
	maximum = 38
Network latency average = 19.5178
	minimum = 7
	maximum = 38
Slowest packet = 4878
Flit latency average = 19.531
	minimum = 7
	maximum = 38
Slowest flit = 4878
Fragmentation average = 0
	minimum = 0
	maximum = 0
Injected packet rate average = 0.099
	minimum = 0.0883333 (at node 14)
	maximum = 0.111667 (at node 12)
Accepted packet rate average = 0.0989167
	minimum = 0.086 (at node 8)
	maximum = 0.11 (at node 13)
Injected flit rate average = 0.099
	minimum = 0.0883333 (at node 14)
	maximum = 0.111667 (at node 12)
Accepted flit rate average= 0.0989167
	minimum = 0.086 (at node 8)
	maximum = 0.11 (at node 13)
Injected packet length average = 1
Accepted packet length average = 1
Total in-flight flits = 34 (34 measured)
latency change    = 0.00268938
throughput change = 0.00526537
Draining all recorded packets ...
Draining remaining packets ...
Time taken is 6057 cycles
Class 0:
Packet latency average = 19.8837
	minimum = 7
	maximum = 39
Network latency average = 19.8831
	minimum = 7
	maximum = 39
Slowest packet = 10698
Flit latency average = 19.8831
	minimum = 7
	maximum = 39
Slowest flit = 10698
Fragmentation average = 0
	minimum = 0
	maximum = 0
Injected packet rate average = 0.09975
	minimum = 0.073 (at node 1)
	maximum = 0.119 (at node 13)
Accepted packet rate average = 0.0978125
	minimum = 0.083 (at node 11)
	maximum = 0.117 (at node 0)
Injected flit rate average = 0.09975
	minimum = 0.073 (at node 1)
	maximum = 0.119 (at node 13)
Accepted flit rate average= 0.0978125
	minimum = 0.083 (at node 11)
	maximum = 0.117 (at node 0)
Injected packet length average = 1
Accepted packet length average = 1
Total in-flight flits = 31 (0 measured)
latency change    = 1
throughput change = 1
Class 0:
Packet latency average = 19.5645
	minimum = 7
	maximum = 39
Network latency average = 19.5642
	minimum = 7
	maximum = 39
Slowest packet = 10698
Flit latency average = 19.5642
	minimum = 7
	maximum = 39
Slowest flit = 10698
Fragmentation average = 0
	minimum = 0
	maximum = 0
Injected packet rate average = 0.100875
	minimum = 0.092 (at node 1)
	maximum = 0.1145 (at node 14)
Accepted packet rate average = 0.0998125
	minimum = 0.089 (at node 8)
	maximum = 0.1095 (at node 0)
Injected flit rate average = 0.100875
	minimum = 0.092 (at node 1)
	maximum = 0.1145 (at node 14)
Accepted flit rate average= 0.0998125
	minimum = 0.089 (at node 8)
	maximum = 0.1095 (at node 0)
Injected packet length average = 1
Accepted packet length average = 1
Total in-flight flits = 34 (0 measured)
latency change    = 0.0163158
throughput change = 0.0200376
Class 0:
Packet latency average = 19.6542
	minimum = 7
	maximum = 42
Network latency average = 19.6542
	minimum = 7
	maximum = 42
Slowest packet = 13993
Flit latency average = 19.6542
	minimum = 7
	maximum = 42
Slowest flit = 13993
Fragmentation average = 0
	minimum = 0
	maximum = 0
Injected packet rate average = 0.100375
	minimum = 0.068 (at node 8)
	maximum = 0.129 (at node 4)
Accepted packet rate average = 0.1005
	minimum = 0.079 (at node 8)
	maximum = 0.12 (at node 15)
Injected flit rate average = 0.100375
	minimum = 0.068 (at node 8)
	maximum = 0.129 (at node 4)
Accepted flit rate average= 0.1005
	minimum = 0.079 (at node 8)
	maximum = 0.12 (at node 15)
Injected packet length average = 1
Accepted packet length average = 1
Total in-flight flits = 32 (0 measured)
latency change    = 0.00456558
throughput change = 0.0068408
Warmed up ...Time used is 3000 cycles
Class 0:
Packet latency average = 19.5788
	minimum = 7
	maximum = 39
Network latency average = 19.5788
	minimum = 7
	maximum = 39
Slowest packet = 15813
Flit latency average = 19.631
	minimum = 7
	maximum = 39
Slowest flit = 15813
Fragmentation average = 0
	minimum = 0
	maximum = 0
Injected packet rate average = 0.0993125
	minimum = 0.086 (at node 15)
	maximum = 0.119 (at node 9)
Accepted packet rate average = 0.0999375
	minimum = 0.089 (at node 10)
	maximum = 0.121 (at node 9)
Injected flit rate average = 0.0993125
	minimum = 0.086 (at node 15)
	maximum = 0.119 (at node 9)
Accepted flit rate average= 0.0999375
	minimum = 0.089 (at node 10)
	maximum = 0.121 (at node 9)
Injected packet length average = 1
Accepted packet length average = 1
Total in-flight flits = 22 (22 measured)
latency change    = 0.00385191
throughput change = 0.00562852
Class 0:
Packet latency average = 19.618
	minimum = 7
	maximum = 39
Network latency average = 19.6177
	minimum = 7
	maximum = 39
Slowest packet = 15813
Flit latency average = 19.6436
	minimum = 7
	maximum = 39
Slowest flit = 15813
Fragmentation average = 0
	minimum = 0
	maximum = 0
Injected packet rate average = 0.09925
	minimum = 0.088 (at node 1)
	maximum = 0.106 (at node 2)
Accepted packet rate average = 0.0993437
	minimum = 0.092 (at node 0)
	maximum = 0.1145 (at node 1)
Injected flit rate average = 0.09925
	minimum = 0.088 (at node 1)
	maximum = 0.106 (at node 2)
Accepted flit rate average= 0.0993437
	minimum = 0.092 (at node 0)
	maximum = 0.1145 (at node 1)
Injected packet length average = 1
Accepted packet length average = 1
Total in-flight flits = 29 (29 measured)
latency change    = 0.00199999
throughput change = 0.00597672
Class 0:
Packet latency average = 19.6826
	minimum = 7
	maximum = 42
Network latency average = 19.6824
	minimum = 7
	maximum = 42
Slowest packet = 18851
Flit latency average = 19.6993
	minimum = 7
	maximum = 42
Slowest flit = 18851
Fragmentation average = 0
	minimum = 0
	maximum = 0
Injected packet rate average = 0.0986875
	minimum = 0.0873333 (at node 1)
	maximum = 0.110333 (at node 10)
Accepted packet rate average = 0.0986042
	minimum = 0.0906667 (at node 0)
	maximum = 0.110333 (at node 1)
Injected flit rate average = 0.0986875
	minimum = 0.0873333 (at node 1)
	maximum = 0.110333 (at node 10)
Accepted flit rate average= 0.0986042
	minimum = 0.0906667 (at node 0)
	maximum = 0.110333 (at node 1)
Injected packet length average = 1
Accepted packet length average = 1
Total in-flight flits = 36 (36 measured)
latency change    = 0.00328065
throughput change = 0.00750053
Draining all recorded packets ...
Draining remaining packets ...
Time taken is 6062 cycles
Class 0:
Packet latency average = 19.9212
	minimum = 7
	maximum = 38
Network latency average = 19.9212
	minimum = 7
	maximum = 38
Slowest packet = 19621
Flit latency average = 19.9212
	minimum = 7
	maximum = 38
Slowest flit = 19621
Fragmentation average = 0
	minimum = 0
	maximum = 0
Injected packet rate average = 0.101813
	minimum = 0.087 (at node 6)
	maximum = 0.124 (at node 13)
Accepted packet rate average = 0.0999375
	minimum = 0.081 (at node 0)
	maximum = 0.122 (at node 10)
Injected flit rate average = 0.101813
	minimum = 0.087 (at node 6)
	maximum = 0.124 (at node 13)
Accepted flit rate average= 0.0999375
	minimum = 0.081 (at node 0)
	maximum = 0.122 (at node 10)
Injected packet length average = 1
Accepted packet length average = 1
Total in-flight flits = 30 (0 measured)
latency change    = 1
throughput change = 1
Class 0:
Packet latency average = 19.704
	minimum = 7
	maximum = 44
Network latency average = 19.7033
	minimum = 7
	maximum = 44
Slowest packet = 21735
Flit latency average = 19.7033
	minimum = 7
	maximum = 44
Slowest flit = 21735
Fragmentation average = 0
	minimum = 0
	maximum = 0
Injected packet rate average = 0.10225
	minimum = 0.0885 (at node 4)
	maximum = 0.1145 (at node 5)
Accepted packet rate average = 0.100812
	minimum = 0.0895 (at node 0)
	maximum = 0.1125 (at node 4)
Injected flit rate average = 0.10225
	minimum = 0.0885 (at node 4)
	maximum = 0.1145 (at node 5)
Accepted flit rate average= 0.100812
	minimum = 0.0895 (at node 0)
	maximum = 0.1125 (at node 4)
Injected packet length average = 1
Accepted packet length average = 1
Total in-flight flits = 46 (0 measured)
latency change    = 0.0110248
throughput change = 0.00867948
Class 0:
Packet latency average = 19.7347
	minimum = 7
	maximum = 38
Network latency average = 19.7341
	minimum = 7
	maximum = 38
Slowest packet = 22326
Flit latency average = 19.7341
	minimum = 7
	maximum = 38
Slowest flit = 22326
Fragmentation average = 0
	minimum = 0
	maximum = 0
Injected packet rate average = 0.099625
	minimum = 0.086 (at node 0)
	maximum = 0.112 (at node 5)
Accepted packet rate average = 0.100125
	minimum = 0.088 (at node 9)
	maximum = 0.118 (at node 4)
Injected flit rate average = 0.099625
	minimum = 0.086 (at node 0)
	maximum = 0.112 (at node 5)
Accepted flit rate average= 0.100125
	minimum = 0.088 (at node 9)
	maximum = 0.118 (at node 4)
Injected packet length average = 1
Accepted packet length average = 1
Total in-flight flits = 38 (0 measured)
latency change    = 0.0015576
throughput change = 0.00686642
Warmed up ...Time used is 3000 cycles
Class 0:
Packet latency average = 19.4633
	minimum = 7
	maximum = 41
Network latency average = 19.4614
	minimum = 7
	maximum = 41
Slowest packet = 25102
Flit latency average = 19.5285
	minimum = 7
	maximum = 41
Slowest flit = 25102
Fragmentation average = 0
	minimum = 0
	maximum = 0
Injected packet rate average = 0.101813
	minimum = 0.084 (at node 9)
	maximum = 0.116 (at node 14)
Accepted packet rate average = 0.102063
	minimum = 0.089 (at node 15)
	maximum = 0.115 (at node 2)
Injected flit rate average = 0.101813
	minimum = 0.084 (at node 9)
	maximum = 0.116 (at node 14)
Accepted flit rate average= 0.102063
	minimum = 0.089 (at node 15)
	maximum = 0.115 (at node 2)
Injected packet length average = 1
Accepted packet length average = 1
Total in-flight flits = 34 (34 measured)
latency change    = 0.0139433
throughput change = 0.0189835
Class 0:
Packet latency average = 19.5605
	minimum = 7
	maximum = 41
Network latency average = 19.5595
	minimum = 7
	maximum = 41
Slowest packet = 25102
Flit latency average = 19.5916
	minimum = 7
	maximum = 41
Slowest flit = 25102
Fragmentation average = 0
	minimum = 0
	maximum = 0
Injected packet rate average = 0.102625
	minimum = 0.0915 (at node 5)
	maximum = 0.115 (at node 15)
Accepted packet rate average = 0.103
	minimum = 0.0885 (at node 10)
	maximum = 0.1135 (at node 2)
Injected flit rate average = 0.102625
	minimum = 0.0915 (at node 5)
	maximum = 0.115 (at node 15)
Accepted flit rate average= 0.103
	minimum = 0.0885 (at node 10)
	maximum = 0.1135 (at node 2)
Injected packet length average = 1
Accepted packet length average = 1
Total in-flight flits = 26 (26 measured)
latency change    = 0.00496633
throughput change = 0.00910194
Class 0:
Packet latency average = 19.4569
	minimum = 7
	maximum = 41
Network latency average = 19.4562
	minimum = 7
	maximum = 41
Slowest packet = 25102
Flit latency average = 19.4789
	minimum = 7
	maximum = 41
Slowest flit = 25102
Fragmentation average = 0
	minimum = 0
	maximum = 0
Injected packet rate average = 0.100687
	minimum = 0.095 (at node 9)
	maximum = 0.111667 (at node 15)
Accepted packet rate average = 0.10075
	minimum = 0.0926667 (at node 10)
	maximum = 0.106333 (at node 1)
Injected flit rate average = 0.100687
	minimum = 0.095 (at node 9)
	maximum = 0.111667 (at node 15)
Accepted flit rate average= 0.10075
	minimum = 0.0926667 (at node 10)
	maximum = 0.106333 (at node 1)
Injected packet length average = 1
Accepted packet length average = 1
Total in-flight flits = 35 (35 measured)
latency change    = 0.00532509
throughput change = 0.0223325
Draining all recorded packets ...
Draining remaining packets ...
Time taken is 6060 cycles
Class 0:
Packet latency average = 19.6204
	minimum = 7
	maximum = 38
Network latency average = 19.6204
	minimum = 7
	maximum = 38
Slowest packet = 29625
Flit latency average = 19.6204
	minimum = 7
	maximum = 38
Slowest flit = 29625
Fragmentation average = 0
	minimum = 0
	maximum = 0
Injected packet rate average = 0.103438
	minimum = 0.084 (at node 7)
	maximum = 0.113 (at node 0)
Accepted packet rate average = 0.10125
	minimum = 0.083 (at node 13)
	maximum = 0.12 (at node 0)
Injected flit rate average = 0.103438
	minimum = 0.084 (at node 7)
	maximum = 0.113 (at node 0)
Accepted flit rate average= 0.10125
	minimum = 0.083 (at node 13)
	maximum = 0.12 (at node 0)
Injected packet length average = 1
Accepted packet length average = 1
Total in-flight flits = 35 (0 measured)
latency change    = 1
throughput change = 1
Class 0:
Packet latency average = 19.6339
	minimum = 7
	maximum = 38
Network latency average = 19.6324
	minimum = 7
	maximum = 38
Slowest packet = 29625
Flit latency average = 19.6324
	minimum = 7
	maximum = 38
Slowest flit = 29625
Fragmentation average = 0
	minimum = 0
	maximum = 0
Injected packet rate average = 0.101938
	minimum = 0.09 (at node 7)
	maximum = 0.1065 (at node 1)
Accepted packet rate average = 0.100812
	minimum = 0.085 (at node 13)
	maximum = 0.1185 (at node 11)
Injected flit rate average = 0.101938
	minimum = 0.09 (at node 7)
	maximum = 0.1065 (at node 1)
Accepted flit rate average= 0.100812
	minimum = 0.085 (at node 13)
	maximum = 0.1185 (at node 11)
Injected packet length average = 1
Accepted packet length average = 1
Total in-flight flits = 36 (0 measured)
latency change    = 0.000689704
throughput change = 0.00433974
Class 0:
Packet latency average = 19.3342
	minimum = 7
	maximum = 38
Network latency average = 19.3342
	minimum = 7
	maximum = 38
Slowest packet = 32677
Flit latency average = 19.3342
	minimum = 7
	maximum = 38
Slowest flit = 32677
Fragmentation average = 0
	minimum = 0
	maximum = 0
Injected packet rate average = 0.097875
	minimum = 0.078 (at node 3)
	maximum = 0.117 (at node 4)
Accepted packet rate average = 0.0978125
	minimum = 0.075 (at node 12)
	maximum = 0.114 (at node 6)
Injected flit rate average = 0.097875
	minimum = 0.078 (at node 3)
	maximum = 0.117 (at node 4)
Accepted flit rate average= 0.0978125
	minimum = 0.075 (at node 12)
	maximum = 0.114 (at node 6)
Injected packet length average = 1
Accepted packet length average = 1
Total in-flight flits = 37 (0 measured)
latency change    = 0.0155024
throughput change = 0.0306709
Warmed up ...Time used is 3000 cycles
Class 0:
Packet latency average = 19.3469
	minimum = 7
	maximum = 39
Network latency average = 19.3469
	minimum = 7
	maximum = 39
Slowest packet = 34192
Flit latency average = 19.4075
	minimum = 7
	maximum = 39
Slowest flit = 34192
Fragmentation average = 0
	minimum = 0
	maximum = 0
Injected packet rate average = 0.1025
	minimum = 0.092 (at node 7)
	maximum = 0.119 (at node 11)
Accepted packet rate average = 0.102313
	minimum = 0.087 (at node 3)
	maximum = 0.119 (at node 11)
Injected flit rate average = 0.1025
	minimum = 0.092 (at node 7)
	maximum = 0.119 (at node 11)
Accepted flit rate average= 0.102313
	minimum = 0.087 (at node 3)
	maximum = 0.119 (at node 11)
Injected packet length average = 1
Accepted packet length average = 1
Total in-flight flits = 40 (40 measured)
latency change    = 0.000655904
throughput change = 0.0439829
Class 0:
Packet latency average = 19.5422
	minimum = 7
	maximum = 39
Network latency average = 19.5419
	minimum = 7
	maximum = 39
Slowest packet = 34192
Flit latency average = 19.5705
	minimum = 7
	maximum = 39
Slowest flit = 34192
Fragmentation average = 0
	minimum = 0
	maximum = 0
Injected packet rate average = 0.100562
	minimum = 0.0895 (at node 14)
	maximum = 0.1125 (at node 0)
Accepted packet rate average = 0.100687
	minimum = 0.0915 (at node 3)
	maximum = 0.1145 (at node 11)
Injected flit rate average = 0.100562
	minimum = 0.0895 (at node 14)
	maximum = 0.1125 (at node 0)
Accepted flit rate average= 0.100687
	minimum = 0.0915 (at node 3)
	maximum = 0.1145 (at node 11)
Injected packet length average = 1
Accepted packet length average = 1
Total in-flight flits = 33 (33 measured)
latency change    = 0.00999652
throughput change = 0.016139
Class 0:
Packet latency average = 19.6074
	minimum = 7
	maximum = 39
Network latency average = 19.6072
	minimum = 7
	maximum = 39
Slowest packet = 34192
Flit latency average = 19.6256
	minimum = 7
	maximum = 39
Slowest flit = 34192
Fragmentation average = 0
	minimum = 0
	maximum = 0
Injected packet rate average = 0.101583
	minimum = 0.096 (at node 15)
	maximum = 0.111333 (at node 0)
Accepted packet rate average = 0.1015
	minimum = 0.0906667 (at node 13)
	maximum = 0.115667 (at node 11)
Injected flit rate average = 0.101583
	minimum = 0.096 (at node 15)
	maximum = 0.111333 (at node 0)
Accepted flit rate average= 0.1015
	minimum = 0.0906667 (at node 13)
	maximum = 0.115667 (at node 11)
Injected packet length average = 1
Accepted packet length average = 1
Total in-flight flits = 41 (41 measured)
latency change    = 0.00332611
throughput change = 0.00800493
Draining all recorded packets ...
Draining remaining packets ...
Time taken is 6057 cycles
Class 0:
Packet latency average = 19.5206
	minimum = 7
	maximum = 38
Network latency average = 19.5206
	minimum = 7
	maximum = 38
Slowest packet = 38711
Flit latency average = 19.5206
	minimum = 7
	maximum = 38
Slowest flit = 38711
Fragmentation average = 0
	minimum = 0
	maximum = 0
Injected packet rate average = 0.0984375
	minimum = 0.074 (at node 10)
	maximum = 0.116 (at node 11)
Accepted packet rate average = 0.096875
	minimum = 0.084 (at node 3)
	maximum = 0.111 (at node 5)
Injected flit rate average = 0.0984375
	minimum = 0.074 (at node 10)
	maximum = 0.116 (at node 11)
Accepted flit rate average= 0.096875
	minimum = 0.084 (at node 3)
	maximum = 0.111 (at node 5)
Injected packet length average = 1
Accepted packet length average = 1
Total in-flight flits = 25 (0 measured)
latency change    = 1
throughput change = 1
Class 0:
Packet latency average = 19.6408
	minimum = 7
	maximum = 38
Network latency average = 19.6408
	minimum = 7
	maximum = 38
Slowest packet = 38711
Flit latency average = 19.6408
	minimum = 7
	maximum = 38
Slowest flit = 38711
Fragmentation average = 0
	minimum = 0
	maximum = 0
Injected packet rate average = 0.0974688
	minimum = 0.0805 (at node 10)
	maximum = 0.1045 (at node 1)
Accepted packet rate average = 0.0964688
	minimum = 0.0855 (at node 6)
	maximum = 0.1075 (at node 4)
Injected flit rate average = 0.0974688
	minimum = 0.0805 (at node 10)
	maximum = 0.1045 (at node 1)
Accepted flit rate average= 0.0964688
	minimum = 0.0855 (at node 6)
	maximum = 0.1075 (at node 4)
Injected packet length average = 1
Accepted packet length average = 1
Total in-flight flits = 32 (0 measured)
latency change    = 0.00611516
throughput change = 0.00421121
Class 0:
Packet latency average = 19.4943
	minimum = 7
	maximum = 41
Network latency average = 19.4918
	minimum = 7
	maximum = 41
Slowest packet = 42914
Flit latency average = 19.4918
	minimum = 7
	maximum = 41
Slowest flit = 42914
Fragmentation average = 0
	minimum = 0
	maximum = 0
Injected packet rate average = 0.0986875
	minimum = 0.08 (at node 5)
	maximum = 0.118 (at node 8)
Accepted packet rate average = 0.099375
	minimum = 0.082 (at node 9)
	maximum = 0.113 (at node 0)
Injected flit rate average = 0.0986875
	minimum = 0.08 (at node 5)
	maximum = 0.118 (at node 8)
Accepted flit rate average= 0.099375
	minimum = 0.082 (at node 9)
	maximum = 0.113 (at node 0)
Injected packet length average = 1
Accepted packet length average = 1
Total in-flight flits = 21 (0 measured)
latency change    = 0.00751048
throughput change = 0.0292453
Warmed up ...Time used is 3000 cycles
Class 0:
Packet latency average = 19.8307
	minimum = 7
	maximum = 38
Network latency average = 19.8288
	minimum = 7
	maximum = 38
Slowest packet = 43844
Flit latency average = 19.8796
	minimum = 7
	maximum = 38
Slowest flit = 43844
Fragmentation average = 0
	minimum = 0
	maximum = 0
Injected packet rate average = 0.09925
	minimum = 0.088 (at node 5)
	maximum = 0.111 (at node 2)
Accepted packet rate average = 0.099125
	minimum = 0.08 (at node 0)
	maximum = 0.117 (at node 11)
Injected flit rate average = 0.09925
	minimum = 0.088 (at node 5)
	maximum = 0.111 (at node 2)
Accepted flit rate average= 0.099125
	minimum = 0.08 (at node 0)
	maximum = 0.117 (at node 11)
Injected packet length average = 1
Accepted packet length average = 1
Total in-flight flits = 23 (23 measured)
latency change    = 0.0169602
throughput change = 0.00252207
Class 0:
Packet latency average = 19.587
	minimum = 7
	maximum = 39
Network latency average = 19.586
	minimum = 7
	maximum = 39
Slowest packet = 45324
Flit latency average = 19.6131
	minimum = 7
	maximum = 39
Slowest flit = 45324
Fragmentation average = 0
	minimum = 0
	maximum = 0
Injected packet rate average = 0.0989687
	minimum = 0.0895 (at node 11)
	maximum = 0.104 (at node 6)
Accepted packet rate average = 0.0989375
	minimum = 0.087 (at node 9)
	maximum = 0.1125 (at node 1)
Injected flit rate average = 0.0989687
	minimum = 0.0895 (at node 11)
	maximum = 0.104 (at node 6)
Accepted flit rate average= 0.0989375
	minimum = 0.087 (at node 9)
	maximum = 0.1125 (at node 1)
Injected packet length average = 1
Accepted packet length average = 1
Total in-flight flits = 22 (22 measured)
latency change    = 0.0124423
throughput change = 0.00189514
Class 0:
Packet latency average = 19.5202
	minimum = 7
	maximum = 39
Network latency average = 19.5189
	minimum = 7
	maximum = 39
Slowest packet = 45324
Flit latency average = 19.5374
	minimum = 7
	maximum = 39
Slowest flit = 45324
Fragmentation average = 0
	minimum = 0
	maximum = 0
Injected packet rate average = 0.0985417
	minimum = 0.091 (at node 5)
	maximum = 0.104667 (at node 2)
Accepted packet rate average = 0.0983125
	minimum = 0.0863333 (at node 9)
	maximum = 0.108 (at node 6)
Injected flit rate average = 0.0985417
	minimum = 0.091 (at node 5)
	maximum = 0.104667 (at node 2)
Accepted flit rate average= 0.0983125
	minimum = 0.0863333 (at node 9)
	maximum = 0.108 (at node 6)
Injected packet length average = 1
Accepted packet length average = 1
Total in-flight flits = 32 (32 measured)
latency change    = 0.00341912
throughput change = 0.00635728
Draining all recorded packets ...
Draining remaining packets ...
Time taken is 6064 cycles
Class 0:
Packet latency average = 19.5959
	minimum = 7
	maximum = 39
Network latency average = 19.5953
	minimum = 7
	maximum = 39
Slowest packet = 49655
Flit latency average = 19.5953
	minimum = 7
	maximum = 39
Slowest flit = 49655
Fragmentation average = 0
	minimum = 0
	maximum = 0
Injected packet rate average = 0.101437
	minimum = 0.09 (at node 7)
	maximum = 0.113 (at node 12)
Accepted packet rate average = 0.100375
	minimum = 0.085 (at node 12)
	maximum = 0.117 (at node 15)
Injected flit rate average = 0.101437
	minimum = 0.09 (at node 7)
	maximum = 0.113 (at node 12)
Accepted flit rate average= 0.100375
	minimum = 0.085 (at node 12)
	maximum = 0.117 (at node 15)
Injected packet length average = 1
Accepted packet length average = 1
Total in-flight flits = 17 (0 measured)
latency change    = 1
throughput change = 1
Class 0:
Packet latency average = 19.4574
	minimum = 7
	maximum = 41
Network latency average = 19.4571
	minimum = 7
	maximum = 41
Slowest packet = 50428
Flit latency average = 19.4571
	minimum = 7
	maximum = 41
Slowest flit = 50428
Fragmentation average = 0
	minimum = 0
	maximum = 0
Injected packet rate average = 0.0993125
	minimum = 0.084 (at node 3)
	maximum = 0.1105 (at node 12)
Accepted packet rate average = 0.0985937
	minimum = 0.089 (at node 2)
	maximum = 0.114 (at node 9)
Injected flit rate average = 0.0993125
	minimum = 0.084 (at node 3)
	maximum = 0.1105 (at node 12)
Accepted flit rate average= 0.0985937
	minimum = 0.089 (at node 2)
	maximum = 0.114 (at node 9)
Injected packet length average = 1
Accepted packet length average = 1
Total in-flight flits = 23 (0 measured)
latency change    = 0.00711921
throughput change = 0.0180666
Class 0:
Packet latency average = 19.6379
	minimum = 7
	maximum = 40
Network latency average = 19.6366
	minimum = 7
	maximum = 40
Slowest packet = 52767
Flit latency average = 19.6366
	minimum = 7
	maximum = 40
Slowest flit = 52767
Fragmentation average = 0
	minimum = 0
	maximum = 0
Injected packet rate average = 0.0986875
	minimum = 0.086 (at node 7)
	maximum = 0.108 (at node 1)
Accepted packet rate average = 0.098375
	minimum = 0.079 (at node 6)
	maximum = 0.121 (at node 15)
Injected flit rate average = 0.0986875
	minimum = 0.086 (at node 7)
	maximum = 0.108 (at node 1)
Accepted flit rate average= 0.098375
	minimum = 0.079 (at node 6)
	maximum = 0.121 (at node 15)
Injected packet length average = 1
Accepted packet length average = 1
Total in-flight flits = 28 (0 measured)
latency change    = 0.00919123
throughput change = 0.00222363
Warmed up ...Time used is 3000 cycles
Class 0:
Packet latency average = 19.5763
	minimum = 7
	maximum = 39
Network latency average = 19.575
	minimum = 7
	maximum = 38
Slowest packet = 53271
Flit latency average = 19.6131
	minimum = 7
	maximum = 38
Slowest flit = 53271
Fragmentation average = 0
	minimum = 0
	maximum = 0
Injected packet rate average = 0.098375
	minimum = 0.088 (at node 4)
	maximum = 0.121 (at node 15)
Accepted packet rate average = 0.098375
	minimum = 0.084 (at node 3)
	maximum = 0.121 (at node 11)
Injected flit rate average = 0.098375
	minimum = 0.088 (at node 4)
	maximum = 0.121 (at node 15)
Accepted flit rate average= 0.098375
	minimum = 0.084 (at node 3)
	maximum = 0.121 (at node 11)
Injected packet length average = 1
Accepted packet length average = 1
Total in-flight flits = 28 (28 measured)
latency change    = 0.00314356
throughput change = 0
Class 0:
Packet latency average = 19.4181
	minimum = 7
	maximum = 39
Network latency average = 19.4172
	minimum = 7
	maximum = 38
Slowest packet = 53271
Flit latency average = 19.4374
	minimum = 7
	maximum = 38
Slowest flit = 53271
Fragmentation average = 0
	minimum = 0
	maximum = 0
Injected packet rate average = 0.0995625
	minimum = 0.085 (at node 5)
	maximum = 0.113 (at node 15)
Accepted packet rate average = 0.0995313
	minimum = 0.09 (at node 4)
	maximum = 0.1135 (at node 2)
Injected flit rate average = 0.0995625
	minimum = 0.085 (at node 5)
	maximum = 0.113 (at node 15)
Accepted flit rate average= 0.0995313
	minimum = 0.09 (at node 4)
	maximum = 0.1135 (at node 2)
Injected packet length average = 1
Accepted packet length average = 1
Total in-flight flits = 29 (29 measured)
latency change    = 0.00814742
throughput change = 0.011617
Class 0:
Packet latency average = 19.5356
	minimum = 7
	maximum = 40
Network latency average = 19.5344
	minimum = 7
	maximum = 40
Slowest packet = 57547
Flit latency average = 19.5469
	minimum = 7
	maximum = 40
Slowest flit = 57547
Fragmentation average = 0
	minimum = 0
	maximum = 0
Injected packet rate average = 0.101646
	minimum = 0.0936667 (at node 5)
	maximum = 0.114333 (at node 15)
Accepted packet rate average = 0.101479
	minimum = 0.0943333 (at node 3)
	maximum = 0.111333 (at node 11)
Injected flit rate average = 0.101646
	minimum = 0.0936667 (at node 5)
	maximum = 0.114333 (at node 15)
Accepted flit rate average= 0.101479
	minimum = 0.0943333 (at node 3)
	maximum = 0.111333 (at node 11)
Injected packet length average = 1
Accepted packet length average = 1
Total in-flight flits = 36 (36 measured)
latency change    = 0.00601465
throughput change = 0.0191952
Draining all recorded packets ...
Draining remaining packets ...
Time taken is 6056 cycles
Class 0:
Packet latency average = 19.9749
	minimum = 7
	maximum = 46
Network latency average = 19.9749
	minimum = 7
	maximum = 46
Slowest packet = 58388
Flit latency average = 19.9749
	minimum = 7
	maximum = 46
Slowest flit = 58388
Fragmentation average = 0
	minimum = 0
	maximum = 0
Injected packet rate average = 0.0985625
	minimum = 0.077 (at node 2)
	maximum = 0.122 (at node 4)
Accepted packet rate average = 0.097
	minimum = 0.078 (at node 9)
	maximum = 0.112 (at node 11)
Injected flit rate average = 0.0985625
	minimum = 0.077 (at node 2)
	maximum = 0.122 (at node 4)
Accepted flit rate average= 0.097
	minimum = 0.078 (at node 9)
	maximum = 0.112 (at node 11)
Injected packet length average = 1
Accepted packet length average = 1
Total in-flight flits = 25 (0 measured)
latency change    = 1
throughput change = 1
Class 0:
Packet latency average = 19.8311
	minimum = 7
	maximum = 46
Network latency average = 19.8311
	minimum = 7
	maximum = 46
Slowest packet = 58388
Flit latency average = 19.8311
	minimum = 7
	maximum = 46
Slowest flit = 58388
Fragmentation average = 0
	minimum = 0
	maximum = 0
Injected packet rate average = 0.0991563
	minimum = 0.0865 (at node 9)
	maximum = 0.1125 (at node 5)
Accepted packet rate average = 0.0982187
	minimum = 0.088 (at node 4)
	maximum = 0.1065 (at node 8)
Injected flit rate average = 0.0991563
	minimum = 0.0865 (at node 9)
	maximum = 0.1125 (at node 5)
Accepted flit rate average= 0.0982187
	minimum = 0.088 (at node 4)
	maximum = 0.1065 (at node 8)
Injected packet length average = 1
Accepted packet length average = 1
Total in-flight flits = 30 (0 measured)
latency change    = 0.00725216
throughput change = 0.0124085
Class 0:
Packet latency average = 19.5992
	minimum = 7
	maximum = 39
Network latency average = 19.5992
	minimum = 7
	maximum = 39
Slowest packet = 62379
Flit latency average = 19.5992
	minimum = 7
	maximum = 39
Slowest flit = 62379
Fragmentation average = 0
	minimum = 0
	maximum = 0
Injected packet rate average = 0.104563
	minimum = 0.089 (at node 7)
	maximum = 0.117 (at node 5)
Accepted packet rate average = 0.104
	minimum = 0.085 (at node 9)
	maximum = 0.126 (at node 2)
Injected flit rate average = 0.104563
	minimum = 0.089 (at node 7)
	maximum = 0.117 (at node 5)
Accepted flit rate average= 0.104
	minimum = 0.085 (at node 9)
	maximum = 0.126 (at node 2)
Injected packet length average = 1
Accepted packet length average = 1
Total in-flight flits = 39 (0 measured)
latency change    = 0.0118319
throughput change = 0.0555889
Warmed up ...Time used is 3000 cycles
Class 0:
Packet latency average = 19.4835
	minimum = 7
	maximum = 39
Network latency average = 19.4835
	minimum = 7
	maximum = 39
Slowest packet = 63091
Flit latency average = 19.5587
	minimum = 7
	maximum = 39
Slowest flit = 63091
Fragmentation average = 0
	minimum = 0
	maximum = 0
Injected packet rate average = 0.100312
	minimum = 0.083 (at node 13)
	maximum = 0.12 (at node 11)
Accepted packet rate average = 0.100687
	minimum = 0.09 (at node 6)
	maximum = 0.122 (at node 15)
Injected flit rate average = 0.100312
	minimum = 0.083 (at node 13)
	maximum = 0.12 (at node 11)
Accepted flit rate average= 0.100687
	minimum = 0.09 (at node 6)
	maximum = 0.122 (at node 15)
Injected packet length average = 1
Accepted packet length average = 1
Total in-flight flits = 33 (33 measured)
latency change    = 0.00593827
throughput change = 0.0328988
Class 0:
Packet latency average = 19.4843
	minimum = 7
	maximum = 39
Network latency average = 19.484
	minimum = 7
	maximum = 39
Slowest packet = 63091
Flit latency average = 19.522
	minimum = 7
	maximum = 39
Slowest flit = 63091
Fragmentation average = 0
	minimum = 0
	maximum = 0
Injected packet rate average = 0.099
	minimum = 0.0885 (at node 2)
	maximum = 0.1105 (at node 11)
Accepted packet rate average = 0.0995625
	minimum = 0.0895 (at node 6)
	maximum = 0.115 (at node 15)
Injected flit rate average = 0.099
	minimum = 0.0885 (at node 2)
	maximum = 0.1105 (at node 11)
Accepted flit rate average= 0.0995625
	minimum = 0.0895 (at node 6)
	maximum = 0.115 (at node 15)
Injected packet length average = 1
Accepted packet length average = 1
Total in-flight flits = 21 (21 measured)
latency change    = 4.15809e-05
throughput change = 0.0112994
Class 0:
Packet latency average = 19.519
	minimum = 7
	maximum = 39
Network latency average = 19.5187
	minimum = 7
	maximum = 39
Slowest packet = 63091
Flit latency average = 19.5435
	minimum = 7
	maximum = 39
Slowest flit = 63091
Fragmentation average = 0
	minimum = 0
	maximum = 0
Injected packet rate average = 0.100562
	minimum = 0.093 (at node 1)
	maximum = 0.108667 (at node 15)
Accepted packet rate average = 0.100854
	minimum = 0.0926667 (at node 6)
	maximum = 0.110333 (at node 15)
Injected flit rate average = 0.100562
	minimum = 0.093 (at node 1)
	maximum = 0.108667 (at node 15)
Accepted flit rate average= 0.100854
	minimum = 0.0926667 (at node 6)
	maximum = 0.110333 (at node 15)
Injected packet length average = 1
Accepted packet length average = 1
Total in-flight flits = 25 (25 measured)
latency change    = 0.00177672
throughput change = 0.0128073
Draining all recorded packets ...
Draining remaining packets ...
Time taken is 6060 cycles
Class 0:
Packet latency average = 19.9317
	minimum = 7
	maximum = 40
Network latency average = 19.9317
	minimum = 7
	maximum = 40
Slowest packet = 68815
Flit latency average = 19.9317
	minimum = 7
	maximum = 40
Slowest flit = 68815
Fragmentation average = 0
	minimum = 0
	maximum = 0
Injected packet rate average = 0.103063
	minimum = 0.09 (at node 3)
	maximum = 0.12 (at node 1)
Accepted packet rate average = 0.101625
	minimum = 0.081 (at node 12)
	maximum = 0.12 (at node 8)
Injected flit rate average = 0.103063
	minimum = 0.09 (at node 3)
	maximum = 0.12 (at node 1)
Accepted flit rate average= 0.101625
	minimum = 0.081 (at node 12)
	maximum = 0.12 (at node 8)
Injected packet length average = 1
Accepted packet length average = 1
Total in-flight flits = 23 (0 measured)
latency change    = 1
throughput change = 1
Class 0:
Packet latency average = 19.7094
	minimum = 7
	maximum = 40
Network latency average = 19.7088
	minimum = 7
	maximum = 40
Slowest packet = 68815
Flit latency average = 19.7088
	minimum = 7
	maximum = 40
Slowest flit = 68815
Fragmentation average = 0
	minimum = 0
	maximum = 0
Injected packet rate average = 0.103688
	minimum = 0.094 (at node 4)
	maximum = 0.1165 (at node 1)
Accepted packet rate average = 0.102688
	minimum = 0.086 (at node 12)
	maximum = 0.114 (at node 2)
Injected flit rate average = 0.103688
	minimum = 0.094 (at node 4)
	maximum = 0.1165 (at node 1)
Accepted flit rate average= 0.102688
	minimum = 0.086 (at node 12)
	maximum = 0.114 (at node 2)
Injected packet length average = 1
Accepted packet length average = 1
Total in-flight flits = 32 (0 measured)
latency change    = 0.011282
throughput change = 0.0103469
Class 0:
Packet latency average = 19.7182
	minimum = 7
	maximum = 38
Network latency average = 19.7164
	minimum = 7
	maximum = 38
Slowest packet = 70827
Flit latency average = 19.7164
	minimum = 7
	maximum = 38
Slowest flit = 70827
Fragmentation average = 0
	minimum = 0
	maximum = 0
Injected packet rate average = 0.102125
	minimum = 0.079 (at node 13)
	maximum = 0.12 (at node 5)
Accepted packet rate average = 0.10225
	minimum = 0.084 (at node 9)
	maximum = 0.112 (at node 13)
Injected flit rate average = 0.102125
	minimum = 0.079 (at node 13)
	maximum = 0.12 (at node 5)
Accepted flit rate average= 0.10225
	minimum = 0.084 (at node 9)
	maximum = 0.112 (at node 13)
Injected packet length average = 1
Accepted packet length average = 1
Total in-flight flits = 30 (0 measured)
latency change    = 0.000448421
throughput change = 0.00427873
Warmed up ...Time used is 3000 cycles
Class 0:
Packet latency average = 19.6576
	minimum = 7
	maximum = 39
Network latency average = 19.6576
	minimum = 7
	maximum = 39
Slowest packet = 72614
Flit latency average = 19.6675
	minimum = 7
	maximum = 39
Slowest flit = 72614
Fragmentation average = 0
	minimum = 0
	maximum = 0
Injected packet rate average = 0.0963125
	minimum = 0.081 (at node 2)
	maximum = 0.11 (at node 12)
Accepted packet rate average = 0.0960625
	minimum = 0.077 (at node 9)
	maximum = 0.111 (at node 8)
Injected flit rate average = 0.0963125
	minimum = 0.081 (at node 2)
	maximum = 0.11 (at node 12)
Accepted flit rate average= 0.0960625
	minimum = 0.077 (at node 9)
	maximum = 0.111 (at node 8)
Injected packet length average = 1
Accepted packet length average = 1
Total in-flight flits = 34 (34 measured)
latency change    = 0.00308366
throughput change = 0.0644112
Class 0:
Packet latency average = 19.7241
	minimum = 7
	maximum = 39
Network latency average = 19.7238
	minimum = 7
	maximum = 39
Slowest packet = 72614
Flit latency average = 19.7281
	minimum = 7
	maximum = 39
Slowest flit = 72614
Fragmentation average = 0
	minimum = 0
	maximum = 0
Injected packet rate average = 0.0976875
	minimum = 0.0905 (at node 2)
	maximum = 0.105 (at node 1)
Accepted packet rate average = 0.0979063
	minimum = 0.082 (at node 7)
	maximum = 0.11 (at node 0)
Injected flit rate average = 0.0976875
	minimum = 0.0905 (at node 2)
	maximum = 0.105 (at node 1)
Accepted flit rate average= 0.0979063
	minimum = 0.082 (at node 7)
	maximum = 0.11 (at node 0)
Injected packet length average = 1
Accepted packet length average = 1
Total in-flight flits = 23 (23 measured)
latency change    = 0.00337353
throughput change = 0.0188318
Class 0:
Packet latency average = 19.6492
	minimum = 7
	maximum = 39
Network latency average = 19.649
	minimum = 7
	maximum = 39
Slowest packet = 72614
Flit latency average = 19.6522
	minimum = 7
	maximum = 39
Slowest flit = 72614
Fragmentation average = 0
	minimum = 0
	maximum = 0
Injected packet rate average = 0.101187
	minimum = 0.0936667 (at node 6)
	maximum = 0.107333 (at node 10)
Accepted packet rate average = 0.101229
	minimum = 0.0906667 (at node 7)
	maximum = 0.108667 (at node 6)
Injected flit rate average = 0.101187
	minimum = 0.0936667 (at node 6)
	maximum = 0.107333 (at node 10)
Accepted flit rate average= 0.101229
	minimum = 0.0906667 (at node 7)
	maximum = 0.108667 (at node 6)
Injected packet length average = 1
Accepted packet length average = 1
Total in-flight flits = 28 (28 measured)
latency change    = 0.00381365
throughput change = 0.0328257
Class 0:
Packet latency average = 19.6523
	minimum = 7
	maximum = 39
Network latency average = 19.6518
	minimum = 7
	maximum = 39
Slowest packet = 72614
Flit latency average = 19.6542
	minimum = 7
	maximum = 39
Slowest flit = 72614
Fragmentation average = 0
	minimum = 0
	maximum = 0
Injected packet rate average = 0.101641
	minimum = 0.0945 (at node 6)
	maximum = 0.10875 (at node 1)
Accepted packet rate average = 0.101484
	minimum = 0.0935 (at node 9)
	maximum = 0.1085 (at node 8)
Injected flit rate average = 0.101641
	minimum = 0.0945 (at node 6)
	maximum = 0.10875 (at node 1)
Accepted flit rate average= 0.101484
	minimum = 0.0935 (at node 9)
	maximum = 0.1085 (at node 8)
Injected packet length average = 1
Accepted packet length average = 1
Total in-flight flits = 40 (40 measured)
latency change    = 0.000156663
throughput change = 0.00251475
Draining all recorded packets ...
Draining remaining packets ...
Time taken is 7057 cycles
Class 0:
Packet latency average = 19.6524
	minimum = 7
	maximum = 38
Network latency average = 19.6524
	minimum = 7
	maximum = 38
Slowest packet = 79110
Flit latency average = 19.6524
	minimum = 7
	maximum = 38
Slowest flit = 79110
Fragmentation average = 0
	minimum = 0
	maximum = 0
Injected packet rate average = 0.0984375
	minimum = 0.086 (at node 11)
	maximum = 0.114 (at node 5)
Accepted packet rate average = 0.0965625
	minimum = 0.08 (at node 3)
	maximum = 0.114 (at node 13)
Injected flit rate average = 0.0984375
	minimum = 0.086 (at node 11)
	maximum = 0.114 (at node 5)
Accepted flit rate average= 0.0965625
	minimum = 0.08 (at node 3)
	maximum = 0.114 (at node 13)
Injected packet length average = 1
Accepted packet length average = 1
Total in-flight flits = 30 (0 measured)
latency change    = 1
throughput change = 1
Class 0:
Packet latency average = 19.5963
	minimum = 7
	maximum = 40
Network latency average = 19.5957
	minimum = 7
	maximum = 40
Slowest packet = 81607
Flit latency average = 19.5957
	minimum = 7
	maximum = 40
Slowest flit = 81607
Fragmentation average = 0
	minimum = 0
	maximum = 0
Injected packet rate average = 0.0991563
	minimum = 0.091 (at node 3)
	maximum = 0.1135 (at node 5)
Accepted packet rate average = 0.0983125
	minimum = 0.0875 (at node 3)
	maximum = 0.11 (at node 10)
Injected flit rate average = 0.0991563
	minimum = 0.091 (at node 3)
	maximum = 0.1135 (at node 5)
Accepted flit rate average= 0.0983125
	minimum = 0.0875 (at node 3)
	maximum = 0.11 (at node 10)
Injected packet length average = 1
Accepted packet length average = 1
Total in-flight flits = 27 (0 measured)
latency change    = 0.00286352
throughput change = 0.0178004
Class 0:
Packet latency average = 20.0341
	minimum = 7
	maximum = 39
Network latency average = 20.0341
	minimum = 7
	maximum = 39
Slowest packet = 83547
Flit latency average = 20.0341
	minimum = 7
	maximum = 39
Slowest flit = 83547
Fragmentation average = 0
	minimum = 0
	maximum = 0
Injected packet rate average = 0.0985
	minimum = 0.076 (at node 6)
	maximum = 0.114 (at node 3)
Accepted packet rate average = 0.0990625
	minimum = 0.077 (at node 5)
	maximum = 0.122 (at node 10)
Injected flit rate average = 0.0985
	minimum = 0.076 (at node 6)
	maximum = 0.114 (at node 3)
Accepted flit rate average= 0.0990625
	minimum = 0.077 (at node 5)
	maximum = 0.122 (at node 10)
Injected packet length average = 1
Accepted packet length average = 1
Total in-flight flits = 18 (0 measured)
latency change    = 0.0218506
throughput change = 0.00757098
Warmed up ...Time used is 3000 cycles
Class 0:
Packet latency average = 19.5949
	minimum = 7
	maximum = 41
Network latency average = 19.5942
	minimum = 7
	maximum = 41
Slowest packet = 84639
Flit latency average = 19.6281
	minimum = 7
	maximum = 41
Slowest flit = 84639
Fragmentation average = 0
	minimum = 0
	maximum = 0
Injected packet rate average = 0.099375
	minimum = 0.082 (at node 2)
	maximum = 0.111 (at node 14)
Accepted packet rate average = 0.0983125
	minimum = 0.084 (at node 1)
	maximum = 0.113 (at node 11)
Injected flit rate average = 0.099375
	minimum = 0.082 (at node 2)
	maximum = 0.111 (at node 14)
Accepted flit rate average= 0.0983125
	minimum = 0.084 (at node 1)
	maximum = 0.113 (at node 11)
Injected packet length average = 1
Accepted packet length average = 1
Total in-flight flits = 35 (35 measured)
latency change    = 0.0224148
throughput change = 0.00762873
Class 0:
Packet latency average = 19.7237
	minimum = 7
	maximum = 41
Network latency average = 19.723
	minimum = 7
	maximum = 41
Slowest packet = 84639
Flit latency average = 19.7392
	minimum = 7
	maximum = 41
Slowest flit = 84639
Fragmentation average = 0
	minimum = 0
	maximum = 0
Injected packet rate average = 0.0990313
	minimum = 0.089 (at node 13)
	maximum = 0.1085 (at node 3)
Accepted packet rate average = 0.0987187
	minimum = 0.0905 (at node 8)
	maximum = 0.109 (at node 13)
Injected flit rate average = 0.0990313
	minimum = 0.089 (at node 13)
	maximum = 0.1085 (at node 3)
Accepted flit rate average= 0.0987187
	minimum = 0.0905 (at node 8)
	maximum = 0.109 (at node 13)
Injected packet length average = 1
Accepted packet length average = 1
Total in-flight flits = 28 (28 measured)
latency change    = 0.00653021
throughput change = 0.00411523
Class 0:
Packet latency average = 19.7858
	minimum = 7
	maximum = 41
Network latency average = 19.7854
	minimum = 7
	maximum = 41
Slowest packet = 84639
Flit latency average = 19.7959
	minimum = 7
	maximum = 41
Slowest flit = 84639
Fragmentation average = 0
	minimum = 0
	maximum = 0
Injected packet rate average = 0.0989167
	minimum = 0.089 (at node 13)
	maximum = 0.108333 (at node 3)
Accepted packet rate average = 0.0987083
	minimum = 0.0906667 (at node 5)
	maximum = 0.11 (at node 13)
Injected flit rate average = 0.0989167
	minimum = 0.089 (at node 13)
	maximum = 0.108333 (at node 3)
Accepted flit rate average= 0.0987083
	minimum = 0.0906667 (at node 5)
	maximum = 0.11 (at node 13)
Injected packet length average = 1
Accepted packet length average = 1
Total in-flight flits = 28 (28 measured)
latency change    = 0.00314115
throughput change = 0.00010553
Draining all recorded packets ...
Draining remaining packets ...
Time taken is 6049 cycles
Class 0:
Packet latency average = 19.3083
	minimum = 7
	maximum = 39
Network latency average = 19.3083
	minimum = 7
	maximum = 39
Slowest packet = 89143
Flit latency average = 19.3083
	minimum = 7
	maximum = 39
Slowest flit = 89143
Fragmentation average = 0
	minimum = 0
	maximum = 0
Injected packet rate average = 0.100375
	minimum = 0.083 (at node 6)
	maximum = 0.12 (at node 2)
Accepted packet rate average = 0.098125
	minimum = 0.079 (at node 0)
	maximum = 0.116 (at node 8)
Injected flit rate average = 0.100375
	minimum = 0.083 (at node 6)
	maximum = 0.12 (at node 2)
Accepted flit rate average= 0.098125
	minimum = 0.079 (at node 0)
	maximum = 0.116 (at node 8)
Injected packet length average = 1
Accepted packet length average = 1
Total in-flight flits = 36 (0 measured)
latency change    = 1
throughput change = 1
Class 0:
Packet latency average = 19.419
	minimum = 7
	maximum = 40
Network latency average = 19.419
	minimum = 7
	maximum = 40
Slowest packet = 90917
Flit latency average = 19.419
	minimum = 7
	maximum = 40
Slowest flit = 90917
Fragmentation average = 0
	minimum = 0
	maximum = 0
Injected packet rate average = 0.0991563
	minimum = 0.087 (at node 3)
	maximum = 0.113 (at node 2)
Accepted packet rate average = 0.0982187
	minimum = 0.084 (at node 3)
	maximum = 0.1145 (at node 8)
Injected flit rate average = 0.0991563
	minimum = 0.087 (at node 3)
	maximum = 0.113 (at node 2)
Accepted flit rate average= 0.0982187
	minimum = 0.084 (at node 3)
	maximum = 0.1145 (at node 8)
Injected packet length average = 1
Accepted packet length average = 1
Total in-flight flits = 30 (0 measured)
latency change    = 0.00570297
throughput change = 0.000954502
Class 0:
Packet latency average = 19.5911
	minimum = 7
	maximum = 40
Network latency average = 19.5911
	minimum = 7
	maximum = 40
Slowest packet = 92595
Flit latency average = 19.5911
	minimum = 7
	maximum = 40
Slowest flit = 92595
Fragmentation average = 0
	minimum = 0
	maximum = 0
Injected packet rate average = 0.101562
	minimum = 0.086 (at node 11)
	maximum = 0.124 (at node 3)
Accepted packet rate average = 0.1015
	minimum = 0.084 (at node 11)
	maximum = 0.127 (at node 10)
Injected flit rate average = 0.101562
	minimum = 0.086 (at node 11)
	maximum = 0.124 (at node 3)
Accepted flit rate average= 0.1015
	minimum = 0.084 (at node 11)
	maximum = 0.127 (at node 10)
Injected packet length average = 1
Accepted packet length average = 1
Total in-flight flits = 31 (0 measured)
latency change    = 0.00878492
throughput change = 0.0323276
Warmed up ...Time used is 3000 cycles
Class 0:
Packet latency average = 19.7983
	minimum = 7
	maximum = 40
Network latency average = 19.7983
	minimum = 7
	maximum = 40
Slowest packet = 94218
Flit latency average = 19.8814
	minimum = 7
	maximum = 40
Slowest flit = 94218
Fragmentation average = 0
	minimum = 0
	maximum = 0
Injected packet rate average = 0.099875
	minimum = 0.075 (at node 13)
	maximum = 0.109 (at node 4)
Accepted packet rate average = 0.0995625
	minimum = 0.081 (at node 14)
	maximum = 0.114 (at node 3)
Injected flit rate average = 0.099875
	minimum = 0.075 (at node 13)
	maximum = 0.109 (at node 4)
Accepted flit rate average= 0.0995625
	minimum = 0.081 (at node 14)
	maximum = 0.114 (at node 3)
Injected packet length average = 1
Accepted packet length average = 1
Total in-flight flits = 36 (36 measured)
latency change    = 0.0104657
throughput change = 0.0194601
Class 0:
Packet latency average = 19.765
	minimum = 7
	maximum = 40
Network latency average = 19.765
	minimum = 7
	maximum = 40
Slowest packet = 94218
Flit latency average = 19.8065
	minimum = 7
	maximum = 40
Slowest flit = 94218
Fragmentation average = 0
	minimum = 0
	maximum = 0
Injected packet rate average = 0.100156
	minimum = 0.0905 (at node 13)
	maximum = 0.1165 (at node 4)
Accepted packet rate average = 0.100437
	minimum = 0.086 (at node 14)
	maximum = 0.1105 (at node 9)
Injected flit rate average = 0.100156
	minimum = 0.0905 (at node 13)
	maximum = 0.1165 (at node 4)
Accepted flit rate average= 0.100437
	minimum = 0.086 (at node 14)
	maximum = 0.1105 (at node 9)
Injected packet length average = 1
Accepted packet length average = 1
Total in-flight flits = 22 (22 measured)
latency change    = 0.00168651
throughput change = 0.00871189
Class 0:
Packet latency average = 19.6654
	minimum = 7
	maximum = 40
Network latency average = 19.6654
	minimum = 7
	maximum = 40
Slowest packet = 94218
Flit latency average = 19.6941
	minimum = 7
	maximum = 40
Slowest flit = 94218
Fragmentation average = 0
	minimum = 0
	maximum = 0
Injected packet rate average = 0.0991458
	minimum = 0.0926667 (at node 12)
	maximum = 0.108667 (at node 4)
Accepted packet rate average = 0.0991458
	minimum = 0.0926667 (at node 14)
	maximum = 0.106667 (at node 9)
Injected flit rate average = 0.0991458
	minimum = 0.0926667 (at node 12)
	maximum = 0.108667 (at node 4)
Accepted flit rate average= 0.0991458
	minimum = 0.0926667 (at node 14)
	maximum = 0.106667 (at node 9)
Injected packet length average = 1
Accepted packet length average = 1
Total in-flight flits = 31 (31 measured)
latency change    = 0.00506493
throughput change = 0.0130279
Draining all recorded packets ...
Draining remaining packets ...
Time taken is 6063 cycles
Class 0:
Packet latency average = 19.6821
	minimum = 7
	maximum = 42
Network latency average = 19.6814
	minimum = 7
	maximum = 42
Slowest packet = 99120
Flit latency average = 19.6814
	minimum = 7
	maximum = 42
Slowest flit = 99120
Fragmentation average = 0
	minimum = 0
	maximum = 0
Injected packet rate average = 0.0936875
	minimum = 0.079 (at node 1)
	maximum = 0.109 (at node 13)
Accepted packet rate average = 0.092
	minimum = 0.083 (at node 4)
	maximum = 0.11 (at node 2)
Injected flit rate average = 0.0936875
	minimum = 0.079 (at node 1)
	maximum = 0.109 (at node 13)
Accepted flit rate average= 0.092
	minimum = 0.083 (at node 4)
	maximum = 0.11 (at node 2)
Injected packet length average = 1
Accepted packet length average = 1
Total in-flight flits = 27 (0 measured)
latency change    = 1
throughput change = 1
Class 0:
Packet latency average = 19.6778
	minimum = 7
	maximum = 42
Network latency average = 19.6775
	minimum = 7
	maximum = 42
Slowest packet = 99120
Flit latency average = 19.6775
	minimum = 7
	maximum = 42
Slowest flit = 99120
Fragmentation average = 0
	minimum = 0
	maximum = 0
Injected packet rate average = 0.0955
	minimum = 0.082 (at node 12)
	maximum = 0.1035 (at node 9)
Accepted packet rate average = 0.094375
	minimum = 0.087 (at node 13)
	maximum = 0.108 (at node 2)
Injected flit rate average = 0.0955
	minimum = 0.082 (at node 12)
	maximum = 0.1035 (at node 9)
Accepted flit rate average= 0.094375
	minimum = 0.087 (at node 13)
	maximum = 0.108 (at node 2)
Injected packet length average = 1
Accepted packet length average = 1
Total in-flight flits = 36 (0 measured)
latency change    = 0.000216012
throughput change = 0.0251656
Class 0:
Packet latency average = 19.4501
	minimum = 7
	maximum = 40
Network latency average = 19.4501
	minimum = 7
	maximum = 40
Slowest packet = 102127
Flit latency average = 19.4501
	minimum = 7
	maximum = 40
Slowest flit = 102127
Fragmentation average = 0
	minimum = 0
	maximum = 0
Injected packet rate average = 0.100062
	minimum = 0.083 (at node 5)
	maximum = 0.11 (at node 10)
Accepted packet rate average = 0.10025
	minimum = 0.088 (at node 14)
	maximum = 0.126 (at node 2)
Injected flit rate average = 0.100062
	minimum = 0.083 (at node 5)
	maximum = 0.11 (at node 10)
Accepted flit rate average= 0.10025
	minimum = 0.088 (at node 14)
	maximum = 0.126 (at node 2)
Injected packet length average = 1
Accepted packet length average = 1
Total in-flight flits = 33 (0 measured)
latency change    = 0.0117063
throughput change = 0.0586035
Warmed up ...Time used is 3000 cycles
Class 0:
Packet latency average = 19.699
	minimum = 7
	maximum = 40
Network latency average = 19.6971
	minimum = 7
	maximum = 40
Slowest packet = 103048
Flit latency average = 19.7506
	minimum = 7
	maximum = 40
Slowest flit = 103048
Fragmentation average = 0
	minimum = 0
	maximum = 0
Injected packet rate average = 0.0995
	minimum = 0.086 (at node 13)
	maximum = 0.117 (at node 14)
Accepted packet rate average = 0.09925
	minimum = 0.084 (at node 3)
	maximum = 0.114 (at node 1)
Injected flit rate average = 0.0995
	minimum = 0.086 (at node 13)
	maximum = 0.117 (at node 14)
Accepted flit rate average= 0.09925
	minimum = 0.084 (at node 3)
	maximum = 0.114 (at node 1)
Injected packet length average = 1
Accepted packet length average = 1
Total in-flight flits = 37 (37 measured)
latency change    = 0.0126357
throughput change = 0.0100756
Class 0:
Packet latency average = 19.6665
	minimum = 7
	maximum = 45
Network latency average = 19.6655
	minimum = 7
	maximum = 45
Slowest packet = 104336
Flit latency average = 19.6924
	minimum = 7
	maximum = 45
Slowest flit = 104336
Fragmentation average = 0
	minimum = 0
	maximum = 0
Injected packet rate average = 0.100312
	minimum = 0.09 (at node 10)
	maximum = 0.1065 (at node 9)
Accepted packet rate average = 0.100156
	minimum = 0.0885 (at node 0)
	maximum = 0.113 (at node 1)
Injected flit rate average = 0.100312
	minimum = 0.09 (at node 10)
	maximum = 0.1065 (at node 9)
Accepted flit rate average= 0.100156
	minimum = 0.0885 (at node 0)
	maximum = 0.113 (at node 1)
Injected packet length average = 1
Accepted packet length average = 1
Total in-flight flits = 38 (38 measured)
latency change    = 0.00165657
throughput change = 0.00904836
Class 0:
Packet latency average = 19.638
	minimum = 7
	maximum = 45
Network latency average = 19.637
	minimum = 7
	maximum = 45
Slowest packet = 104336
Flit latency average = 19.6548
	minimum = 7
	maximum = 45
Slowest flit = 104336
Fragmentation average = 0
	minimum = 0
	maximum = 0
Injected packet rate average = 0.101792
	minimum = 0.0936667 (at node 10)
	maximum = 0.112 (at node 14)
Accepted packet rate average = 0.10175
	minimum = 0.094 (at node 2)
	maximum = 0.112333 (at node 1)
Injected flit rate average = 0.101792
	minimum = 0.0936667 (at node 10)
	maximum = 0.112 (at node 14)
Accepted flit rate average= 0.10175
	minimum = 0.094 (at node 2)
	maximum = 0.112333 (at node 1)
Injected packet length average = 1
Accepted packet length average = 1
Total in-flight flits = 35 (35 measured)
latency change    = 0.0014484
throughput change = 0.0156634
Draining all recorded packets ...
Draining remaining packets ...
Time taken is 6064 cycles
Class 0:
Packet latency average = 19.8835
	minimum = 7
	maximum = 41
Network latency average = 19.8822
	minimum = 7
	maximum = 41
Slowest packet = 107843
Flit latency average = 19.8822
	minimum = 7
	maximum = 41
Slowest flit = 107843
Fragmentation average = 0
	minimum = 0
	maximum = 0
Injected packet rate average = 0.10175
	minimum = 0.09 (at node 8)
	maximum = 0.113 (at node 11)
Accepted packet rate average = 0.09925
	minimum = 0.072 (at node 13)
	maximum = 0.118 (at node 2)
Injected flit rate average = 0.10175
	minimum = 0.09 (at node 8)
	maximum = 0.113 (at node 11)
Accepted flit rate average= 0.09925
	minimum = 0.072 (at node 13)
	maximum = 0.118 (at node 2)
Injected packet length average = 1
Accepted packet length average = 1
Total in-flight flits = 40 (0 measured)
latency change    = 1
throughput change = 1
Class 0:
Packet latency average = 19.655
	minimum = 7
	maximum = 42
Network latency average = 19.6538
	minimum = 7
	maximum = 42
Slowest packet = 110280
Flit latency average = 19.6538
	minimum = 7
	maximum = 42
Slowest flit = 110280
Fragmentation average = 0
	minimum = 0
	maximum = 0
Injected packet rate average = 0.0995
	minimum = 0.0865 (at node 8)
	maximum = 0.115 (at node 11)
Accepted packet rate average = 0.0984687
	minimum = 0.083 (at node 13)
	maximum = 0.1125 (at node 2)
Injected flit rate average = 0.0995
	minimum = 0.0865 (at node 8)
	maximum = 0.115 (at node 11)
Accepted flit rate average= 0.0984687
	minimum = 0.083 (at node 13)
	maximum = 0.1125 (at node 2)
Injected packet length average = 1
Accepted packet length average = 1
Total in-flight flits = 33 (0 measured)
latency change    = 0.0116241
throughput change = 0.00793399
Class 0:
Packet latency average = 19.5821
	minimum = 7
	maximum = 38
Network latency average = 19.5821
	minimum = 7
	maximum = 38
Slowest packet = 111268
Flit latency average = 19.5821
	minimum = 7
	maximum = 38
Slowest flit = 111268
Fragmentation average = 0
	minimum = 0
	maximum = 0
Injected packet rate average = 0.0988125
	minimum = 0.081 (at node 9)
	maximum = 0.117 (at node 11)
Accepted packet rate average = 0.099
	minimum = 0.08 (at node 6)
	maximum = 0.114 (at node 11)
Injected flit rate average = 0.0988125
	minimum = 0.081 (at node 9)
	maximum = 0.117 (at node 11)
Accepted flit rate average= 0.099
	minimum = 0.08 (at node 6)
	maximum = 0.114 (at node 11)
Injected packet length average = 1
Accepted packet length average = 1
Total in-flight flits = 30 (0 measured)
latency change    = 0.00372583
throughput change = 0.00536616
Warmed up ...Time used is 3000 cycles
Class 0:
Packet latency average = 19.6266
	minimum = 7
	maximum = 40
Network latency average = 19.6266
	minimum = 7
	maximum = 40
Slowest packet = 113671
Flit latency average = 19.6774
	minimum = 7
	maximum = 40
Slowest flit = 113671
Fragmentation average = 0
	minimum = 0
	maximum = 0
Injected packet rate average = 0.0979375
	minimum = 0.081 (at node 7)
	maximum = 0.122 (at node 0)
Accepted packet rate average = 0.0974375
	minimum = 0.086 (at node 4)
	maximum = 0.111 (at node 6)
Injected flit rate average = 0.0979375
	minimum = 0.081 (at node 7)
	maximum = 0.122 (at node 0)
Accepted flit rate average= 0.0974375
	minimum = 0.086 (at node 4)
	maximum = 0.111 (at node 6)
Injected packet length average = 1
Accepted packet length average = 1
Total in-flight flits = 38 (38 measured)
latency change    = 0.00226645
throughput change = 0.0160359
Class 0:
Packet latency average = 19.7266
	minimum = 7
	maximum = 40
Network latency average = 19.7266
	minimum = 7
	maximum = 40
Slowest packet = 113671
Flit latency average = 19.751
	minimum = 7
	maximum = 40
Slowest flit = 113671
Fragmentation average = 0
	minimum = 0
	maximum = 0
Injected packet rate average = 0.0975625
	minimum = 0.086 (at node 14)
	maximum = 0.114 (at node 0)
Accepted packet rate average = 0.0974062
	minimum = 0.081 (at node 7)
	maximum = 0.109 (at node 12)
Injected flit rate average = 0.0975625
	minimum = 0.086 (at node 14)
	maximum = 0.114 (at node 0)
Accepted flit rate average= 0.0974062
	minimum = 0.081 (at node 7)
	maximum = 0.109 (at node 12)
Injected packet length average = 1
Accepted packet length average = 1
Total in-flight flits = 35 (35 measured)
latency change    = 0.00507143
throughput change = 0.000320821
Class 0:
Packet latency average = 19.669
	minimum = 7
	maximum = 41
Network latency average = 19.6687
	minimum = 7
	maximum = 41
Slowest packet = 115812
Flit latency average = 19.6854
	minimum = 7
	maximum = 41
Slowest flit = 115812
Fragmentation average = 0
	minimum = 0
	maximum = 0
Injected packet rate average = 0.0976042
	minimum = 0.0873333 (at node 14)
	maximum = 0.103667 (at node 0)
Accepted packet rate average = 0.0976042
	minimum = 0.0856667 (at node 7)
	maximum = 0.110333 (at node 12)
Injected flit rate average = 0.0976042
	minimum = 0.0873333 (at node 14)
	maximum = 0.103667 (at node 0)
Accepted flit rate average= 0.0976042
	minimum = 0.0856667 (at node 7)
	maximum = 0.110333 (at node 12)
Injected packet length average = 1
Accepted packet length average = 1
Total in-flight flits = 30 (30 measured)
latency change    = 0.00293037
throughput change = 0.00202775
Draining all recorded packets ...
Draining remaining packets ...
Time taken is 6054 cycles
Class 0:
Packet latency average = 19.7943
	minimum = 7
	maximum = 40
Network latency average = 19.793
	minimum = 7
	maximum = 40
Slowest packet = 117662
Flit latency average = 19.793
	minimum = 7
	maximum = 40
Slowest flit = 117662
Fragmentation average = 0
	minimum = 0
	maximum = 0
Injected packet rate average = 0.097625
	minimum = 0.083 (at node 6)
	maximum = 0.114 (at node 7)
Accepted packet rate average = 0.096
	minimum = 0.081 (at node 2)
	maximum = 0.108 (at node 4)
Injected flit rate average = 0.097625
	minimum = 0.083 (at node 6)
	maximum = 0.114 (at node 7)
Accepted flit rate average= 0.096
	minimum = 0.081 (at node 2)
	maximum = 0.108 (at node 4)
Injected packet length average = 1
Accepted packet length average = 1
Total in-flight flits = 26 (0 measured)
latency change    = 1
throughput change = 1
Class 0:
Packet latency average = 19.5963
	minimum = 7
	maximum = 40
Network latency average = 19.595
	minimum = 7
	maximum = 40
Slowest packet = 117662
Flit latency average = 19.595
	minimum = 7
	maximum = 40
Slowest flit = 117662
Fragmentation average = 0
	minimum = 0
	maximum = 0
Injected packet rate average = 0.099
	minimum = 0.0895 (at node 5)
	maximum = 0.108 (at node 14)
Accepted packet rate average = 0.098
	minimum = 0.087 (at node 15)
	maximum = 0.112 (at node 1)
Injected flit rate average = 0.099
	minimum = 0.0895 (at node 5)
	maximum = 0.108 (at node 14)
Accepted flit rate average= 0.098
	minimum = 0.087 (at node 15)
	maximum = 0.112 (at node 1)
Injected packet length average = 1
Accepted packet length average = 1
Total in-flight flits = 32 (0 measured)
latency change    = 0.0101024
throughput change = 0.0204082
Class 0:
Packet latency average = 19.6083
	minimum = 7
	maximum = 39
Network latency average = 19.6077
	minimum = 7
	maximum = 39
Slowest packet = 121109
Flit latency average = 19.6077
	minimum = 7
	maximum = 39
Slowest flit = 121109
Fragmentation average = 0
	minimum = 0
	maximum = 0
Injected packet rate average = 0.0991875
	minimum = 0.082 (at node 7)
	maximum = 0.129 (at node 14)
Accepted packet rate average = 0.0995625
	minimum = 0.082 (at node 9)
	maximum = 0.115 (at node 5)
Injected flit rate average = 0.0991875
	minimum = 0.082 (at node 7)
	maximum = 0.129 (at node 14)
Accepted flit rate average= 0.0995625
	minimum = 0.082 (at node 9)
	maximum = 0.115 (at node 5)
Injected packet length average = 1
Accepted packet length average = 1
Total in-flight flits = 26 (0 measured)
latency change    = 0.000611233
throughput change = 0.0156937
Warmed up ...Time used is 3000 cycles
Class 0:
Packet latency average = 19.4559
	minimum = 7
	maximum = 39
Network latency average = 19.4553
	minimum = 7
	maximum = 39
Slowest packet = 122532
Flit latency average = 19.4777
	minimum = 7
	maximum = 39
Slowest flit = 122532
Fragmentation average = 0
	minimum = 0
	maximum = 0
Injected packet rate average = 0.0978125
	minimum = 0.081 (at node 0)
	maximum = 0.106 (at node 2)
Accepted packet rate average = 0.098
	minimum = 0.078 (at node 3)
	maximum = 0.128 (at node 1)
Injected flit rate average = 0.0978125
	minimum = 0.081 (at node 0)
	maximum = 0.106 (at node 2)
Accepted flit rate average= 0.098
	minimum = 0.078 (at node 3)
	maximum = 0.128 (at node 1)
Injected packet length average = 1
Accepted packet length average = 1
Total in-flight flits = 23 (23 measured)
latency change    = 0.00783232
throughput change = 0.0159439
Class 0:
Packet latency average = 19.5849
	minimum = 7
	maximum = 41
Network latency average = 19.5843
	minimum = 7
	maximum = 41
Slowest packet = 123617
Flit latency average = 19.5942
	minimum = 7
	maximum = 41
Slowest flit = 123617
Fragmentation average = 0
	minimum = 0
	maximum = 0
Injected packet rate average = 0.100156
	minimum = 0.093 (at node 8)
	maximum = 0.1075 (at node 10)
Accepted packet rate average = 0.100031
	minimum = 0.0845 (at node 3)
	maximum = 0.115 (at node 1)
Injected flit rate average = 0.100156
	minimum = 0.093 (at node 8)
	maximum = 0.1075 (at node 10)
Accepted flit rate average= 0.100031
	minimum = 0.0845 (at node 3)
	maximum = 0.115 (at node 1)
Injected packet length average = 1
Accepted packet length average = 1
Total in-flight flits = 30 (30 measured)
latency change    = 0.00658572
throughput change = 0.0203062
Class 0:
Packet latency average = 19.4873
	minimum = 7
	maximum = 41
Network latency average = 19.4869
	minimum = 7
	maximum = 41
Slowest packet = 123617
Flit latency average = 19.4941
	minimum = 7
	maximum = 41
Slowest flit = 123617
Fragmentation average = 0
	minimum = 0
	maximum = 0
Injected packet rate average = 0.10025
	minimum = 0.0903333 (at node 8)
	maximum = 0.106333 (at node 2)
Accepted packet rate average = 0.100062
	minimum = 0.0923333 (at node 3)
	maximum = 0.114667 (at node 1)
Injected flit rate average = 0.10025
	minimum = 0.0903333 (at node 8)
	maximum = 0.106333 (at node 2)
Accepted flit rate average= 0.100062
	minimum = 0.0923333 (at node 3)
	maximum = 0.114667 (at node 1)
Injected packet length average = 1
Accepted packet length average = 1
Total in-flight flits = 35 (35 measured)
latency change    = 0.00500565
throughput change = 0.000312305
Draining all recorded packets ...
Draining remaining packets ...
Time taken is 6057 cycles
Class 0:
Packet latency average = 19.729
	minimum = 7
	maximum = 38
Network latency average = 19.729
	minimum = 7
	maximum = 38
Slowest packet = 127519
Flit latency average = 19.729
	minimum = 7
	maximum = 38
Slowest flit = 127519
Fragmentation average = 0
	minimum = 0
	maximum = 0
Injected packet rate average = 0.0955
	minimum = 0.082 (at node 9)
	maximum = 0.107 (at node 14)
Accepted packet rate average = 0.093625
	minimum = 0.077 (at node 4)
	maximum = 0.118 (at node 7)
Injected flit rate average = 0.0955
	minimum = 0.082 (at node 9)
	maximum = 0.107 (at node 14)
Accepted flit rate average= 0.093625
	minimum = 0.077 (at node 4)
	maximum = 0.118 (at node 7)
Injected packet length average = 1
Accepted packet length average = 1
Total in-flight flits = 30 (0 measured)
latency change    = 1
throughput change = 1
Class 0:
Packet latency average = 19.7373
	minimum = 7
	maximum = 39
Network latency average = 19.7364
	minimum = 7
	maximum = 39
Slowest packet = 128458
Flit latency average = 19.7364
	minimum = 7
	maximum = 39
Slowest flit = 128458
Fragmentation average = 0
	minimum = 0
	maximum = 0
Injected packet rate average = 0.0989687
	minimum = 0.0885 (at node 4)
	maximum = 0.1085 (at node 14)
Accepted packet rate average = 0.0980313
	minimum = 0.0795 (at node 4)
	maximum = 0.1275 (at node 7)
Injected flit rate average = 0.0989687
	minimum = 0.0885 (at node 4)
	maximum = 0.1085 (at node 14)
Accepted flit rate average= 0.0980313
	minimum = 0.0795 (at node 4)
	maximum = 0.1275 (at node 7)
Injected packet length average = 1
Accepted packet length average = 1
Total in-flight flits = 30 (0 measured)
latency change    = 0.000423395
throughput change = 0.0449474
Class 0:
Packet latency average = 19.8556
	minimum = 7
	maximum = 40
Network latency average = 19.8556
	minimum = 7
	maximum = 40
Slowest packet = 130484
Flit latency average = 19.8556
	minimum = 7
	maximum = 40
Slowest flit = 130484
Fragmentation average = 0
	minimum = 0
	maximum = 0
Injected packet rate average = 0.1
	minimum = 0.085 (at node 5)
	maximum = 0.116 (at node 8)
Accepted packet rate average = 0.1
	minimum = 0.083 (at node 14)
	maximum = 0.118 (at node 12)
Injected flit rate average = 0.1
	minimum = 0.085 (at node 5)
	maximum = 0.116 (at node 8)
Accepted flit rate average= 0.1
	minimum = 0.083 (at node 14)
	maximum = 0.118 (at node 12)
Injected packet length average = 1
Accepted packet length average = 1
Total in-flight flits = 30 (0 measured)
latency change    = 0.00595783
throughput change = 0.0196875
Warmed up ...Time used is 3000 cycles
Class 0:
Packet latency average = 19.6378
	minimum = 7
	maximum = 38
Network latency average = 19.6378
	minimum = 7
	maximum = 38
Slowest packet = 131686
Flit latency average = 19.6624
	minimum = 7
	maximum = 38
Slowest flit = 131537
Fragmentation average = 0
	minimum = 0
	maximum = 0
Injected packet rate average = 0.0989375
	minimum = 0.084 (at node 6)
	maximum = 0.119 (at node 8)
Accepted packet rate average = 0.0985
	minimum = 0.087 (at node 10)
	maximum = 0.109 (at node 15)
Injected flit rate average = 0.0989375
	minimum = 0.084 (at node 6)
	maximum = 0.119 (at node 8)
Accepted flit rate average= 0.0985
	minimum = 0.087 (at node 10)
	maximum = 0.109 (at node 15)
Injected packet length average = 1
Accepted packet length average = 1
Total in-flight flits = 37 (37 measured)
latency change    = 0.0110934
throughput change = 0.0152284
Class 0:
Packet latency average = 19.7096
	minimum = 7
	maximum = 42
Network latency average = 19.7096
	minimum = 7
	maximum = 42
Slowest packet = 134316
Flit latency average = 19.721
	minimum = 7
	maximum = 42
Slowest flit = 134316
Fragmentation average = 0
	minimum = 0
	maximum = 0
Injected packet rate average = 0.100812
	minimum = 0.087 (at node 14)
	maximum = 0.115 (at node 8)
Accepted packet rate average = 0.100375
	minimum = 0.089 (at node 7)
	maximum = 0.11 (at node 15)
Injected flit rate average = 0.100812
	minimum = 0.087 (at node 14)
	maximum = 0.115 (at node 8)
Accepted flit rate average= 0.100375
	minimum = 0.089 (at node 7)
	maximum = 0.11 (at node 15)
Injected packet length average = 1
Accepted packet length average = 1
Total in-flight flits = 44 (44 measured)
latency change    = 0.00364501
throughput change = 0.01868
Class 0:
Packet latency average = 19.7535
	minimum = 7
	maximum = 42
Network latency average = 19.7535
	minimum = 7
	maximum = 42
Slowest packet = 134316
Flit latency average = 19.7608
	minimum = 7
	maximum = 42
Slowest flit = 134316
Fragmentation average = 0
	minimum = 0
	maximum = 0
Injected packet rate average = 0.101854
	minimum = 0.0906667 (at node 14)
	maximum = 0.112 (at node 12)
Accepted packet rate average = 0.101708
	minimum = 0.0886667 (at node 7)
	maximum = 0.109 (at node 13)
Injected flit rate average = 0.101854
	minimum = 0.0906667 (at node 14)
	maximum = 0.112 (at node 12)
Accepted flit rate average= 0.101708
	minimum = 0.0886667 (at node 7)
	maximum = 0.109 (at node 13)
Injected packet length average = 1
Accepted packet length average = 1
Total in-flight flits = 37 (37 measured)
latency change    = 0.00222174
throughput change = 0.0131094
Draining all recorded packets ...
Draining remaining packets ...
Time taken is 6060 cycles
Class 0:
Packet latency average = 19.5897
	minimum = 7
	maximum = 39
Network latency average = 19.5885
	minimum = 7
	maximum = 39
Slowest packet = 137738
Flit latency average = 19.5885
	minimum = 7
	maximum = 39
Slowest flit = 137738
Fragmentation average = 0
	minimum = 0
	maximum = 0
Injected packet rate average = 0.1025
	minimum = 0.085 (at node 7)
	maximum = 0.122 (at node 2)
Accepted packet rate average = 0.100687
	minimum = 0.081 (at node 7)
	maximum = 0.12 (at node 14)
Injected flit rate average = 0.1025
	minimum = 0.085 (at node 7)
	maximum = 0.122 (at node 2)
Accepted flit rate average= 0.100687
	minimum = 0.081 (at node 7)
	maximum = 0.12 (at node 14)
Injected packet length average = 1
Accepted packet length average = 1
Total in-flight flits = 29 (0 measured)
latency change    = 1
throughput change = 1
Class 0:
Packet latency average = 19.7787
	minimum = 7
	maximum = 39
Network latency average = 19.7756
	minimum = 7
	maximum = 39
Slowest packet = 137738
Flit latency average = 19.7756
	minimum = 7
	maximum = 39
Slowest flit = 137738
Fragmentation average = 0
	minimum = 0
	maximum = 0
Injected packet rate average = 0.100906
	minimum = 0.0885 (at node 5)
	maximum = 0.1115 (at node 2)
Accepted packet rate average = 0.10025
	minimum = 0.089 (at node 15)
	maximum = 0.113 (at node 11)
Injected flit rate average = 0.100906
	minimum = 0.0885 (at node 5)
	maximum = 0.1115 (at node 2)
Accepted flit rate average= 0.10025
	minimum = 0.089 (at node 15)
	maximum = 0.113 (at node 11)
Injected packet length average = 1
Accepted packet length average = 1
Total in-flight flits = 21 (0 measured)
latency change    = 0.00955486
throughput change = 0.00436409
Class 0:
Packet latency average = 19.3702
	minimum = 7
	maximum = 38
Network latency average = 19.3702
	minimum = 7
	maximum = 38
Slowest packet = 139919
Flit latency average = 19.3702
	minimum = 7
	maximum = 38
Slowest flit = 139919
Fragmentation average = 0
	minimum = 0
	maximum = 0
Injected packet rate average = 0.09925
	minimum = 0.079 (at node 15)
	maximum = 0.113 (at node 11)
Accepted packet rate average = 0.0989375
	minimum = 0.086 (at node 7)
	maximum = 0.119 (at node 1)
Injected flit rate average = 0.09925
	minimum = 0.079 (at node 15)
	maximum = 0.113 (at node 11)
Accepted flit rate average= 0.0989375
	minimum = 0.086 (at node 7)
	maximum = 0.119 (at node 1)
Injected packet length average = 1
Accepted packet length average = 1
Total in-flight flits = 26 (0 measured)
latency change    = 0.0210889
throughput change = 0.013266
Warmed up ...Time used is 3000 cycles
Class 0:
Packet latency average = 19.7241
	minimum = 7
	maximum = 43
Network latency average = 19.7228
	minimum = 7
	maximum = 43
Slowest packet = 141599
Flit latency average = 19.7933
	minimum = 7
	maximum = 43
Slowest flit = 141599
Fragmentation average = 0
	minimum = 0
	maximum = 0
Injected packet rate average = 0.0979375
	minimum = 0.084 (at node 6)
	maximum = 0.11 (at node 5)
Accepted packet rate average = 0.0976875
	minimum = 0.079 (at node 8)
	maximum = 0.123 (at node 11)
Injected flit rate average = 0.0979375
	minimum = 0.084 (at node 6)
	maximum = 0.11 (at node 5)
Accepted flit rate average= 0.0976875
	minimum = 0.079 (at node 8)
	maximum = 0.123 (at node 11)
Injected packet length average = 1
Accepted packet length average = 1
Total in-flight flits = 30 (30 measured)
latency change    = 0.0179453
throughput change = 0.0127959
Class 0:
Packet latency average = 19.697
	minimum = 7
	maximum = 43
Network latency average = 19.6963
	minimum = 7
	maximum = 43
Slowest packet = 141599
Flit latency average = 19.731
	minimum = 7
	maximum = 43
Slowest flit = 141599
Fragmentation average = 0
	minimum = 0
	maximum = 0
Injected packet rate average = 0.1
	minimum = 0.0895 (at node 7)
	maximum = 0.109 (at node 13)
Accepted packet rate average = 0.100125
	minimum = 0.088 (at node 15)
	maximum = 0.1205 (at node 11)
Injected flit rate average = 0.1
	minimum = 0.0895 (at node 7)
	maximum = 0.109 (at node 13)
Accepted flit rate average= 0.100125
	minimum = 0.088 (at node 15)
	maximum = 0.1205 (at node 11)
Injected packet length average = 1
Accepted packet length average = 1
Total in-flight flits = 22 (22 measured)
latency change    = 0.00137883
throughput change = 0.0243446
Class 0:
Packet latency average = 19.5676
	minimum = 7
	maximum = 43
Network latency average = 19.5672
	minimum = 7
	maximum = 43
Slowest packet = 141599
Flit latency average = 19.591
	minimum = 7
	maximum = 43
Slowest flit = 141599
Fragmentation average = 0
	minimum = 0
	maximum = 0
Injected packet rate average = 0.10025
	minimum = 0.0883333 (at node 7)
	maximum = 0.11 (at node 12)
Accepted packet rate average = 0.100083
	minimum = 0.0896667 (at node 15)
	maximum = 0.114667 (at node 7)
Injected flit rate average = 0.10025
	minimum = 0.0883333 (at node 7)
	maximum = 0.11 (at node 12)
Accepted flit rate average= 0.100083
	minimum = 0.0896667 (at node 15)
	maximum = 0.114667 (at node 7)
Injected packet length average = 1
Accepted packet length average = 1
Total in-flight flits = 34 (34 measured)
latency change    = 0.00661183
throughput change = 0.00041632
Draining all recorded packets ...
Draining remaining packets ...
Time taken is 6062 cycles
Class 0:
Packet latency average = 19.7868
	minimum = 7
	maximum = 40
Network latency average = 19.7868
	minimum = 7
	maximum = 40
Slowest packet = 147494
Flit latency average = 19.7868
	minimum = 7
	maximum = 40
Slowest flit = 147494
Fragmentation average = 0
	minimum = 0
	maximum = 0
Injected packet rate average = 0.0968125
	minimum = 0.079 (at node 15)
	maximum = 0.112 (at node 3)
Accepted packet rate average = 0.095
	minimum = 0.077 (at node 6)
[...]
	maximum = 0.115 (at node 8)
Accepted packet rate average = 0.100812
	minimum = 0.086 (at node 9)
	maximum = 0.117 (at node 15)
Injected flit rate average = 0.100687
	minimum = 0.087 (at node 14)
	maximum = 0.115 (at node 8)
Accepted flit rate average= 0.100812
	minimum = 0.086 (at node 9)
	maximum = 0.117 (at node 15)
Injected packet length average = 1
Accepted packet length average = 1
Total in-flight flits = 28 (0 measured)
latency change    = 0.0203828
throughput change = 0.0204588
Warmed up ...Time used is 3000 cycles
Class 0:
Packet latency average = 19.6164
	minimum = 7
	maximum = 39
Network latency average = 19.6164
	minimum = 7
	maximum = 39
Slowest packet = 954368
Flit latency average = 19.6242
	minimum = 7
	maximum = 39
Slowest flit = 954368
Fragmentation average = 0
	minimum = 0
	maximum = 0
Injected packet rate average = 0.101813
	minimum = 0.085 (at node 6)
	maximum = 0.126 (at node 8)
Accepted packet rate average = 0.101625
	minimum = 0.079 (at node 10)
	maximum = 0.118 (at node 5)
Injected flit rate average = 0.101813
	minimum = 0.085 (at node 6)
	maximum = 0.126 (at node 8)
Accepted flit rate average= 0.101625
	minimum = 0.079 (at node 10)
	maximum = 0.118 (at node 5)
Injected packet length average = 1
Accepted packet length average = 1
Total in-flight flits = 31 (31 measured)
latency change    = 0.00501731
throughput change = 0.00799508
Class 0:
Packet latency average = 19.5774
	minimum = 7
	maximum = 39
Network latency average = 19.577
	minimum = 7
	maximum = 39
Slowest packet = 954368
Flit latency average = 19.5814
	minimum = 7
	maximum = 39
Slowest flit = 954368
Fragmentation average = 0
	minimum = 0
	maximum = 0
Injected packet rate average = 0.0981875
	minimum = 0.0875 (at node 14)
	maximum = 0.116 (at node 8)
Accepted packet rate average = 0.0980313
	minimum = 0.087 (at node 11)
	maximum = 0.1145 (at node 12)
Injected flit rate average = 0.0981875
	minimum = 0.0875 (at node 14)
	maximum = 0.116 (at node 8)
Accepted flit rate average= 0.0980313
	minimum = 0.087 (at node 11)
	maximum = 0.1145 (at node 12)
Injected packet length average = 1
Accepted packet length average = 1
Total in-flight flits = 33 (33 measured)
latency change    = 0.00199411
throughput change = 0.0366592
Class 0:
Packet latency average = 19.5854
	minimum = 7
	maximum = 40
Network latency average = 19.5849
	minimum = 7
	maximum = 40
Slowest packet = 958701
Flit latency average = 19.5878
	minimum = 7
	maximum = 40
Slowest flit = 958701
Fragmentation average = 0
	minimum = 0
	maximum = 0
Injected packet rate average = 0.0983958
	minimum = 0.089 (at node 15)
	maximum = 0.109667 (at node 8)
Accepted packet rate average = 0.0982083
	minimum = 0.0916667 (at node 11)
	maximum = 0.109333 (at node 3)
Injected flit rate average = 0.0983958
	minimum = 0.089 (at node 15)
	maximum = 0.109667 (at node 8)
Accepted flit rate average= 0.0982083
	minimum = 0.0916667 (at node 11)
	maximum = 0.109333 (at node 3)
Injected packet length average = 1
Accepted packet length average = 1
Total in-flight flits = 37 (37 measured)
latency change    = 0.000408702
throughput change = 0.00180314
Draining all recorded packets ...
Draining remaining packets ...
Time taken is 6061 cycles
Class 0:
Packet latency average = 19.6086
	minimum = 7
	maximum = 39
Network latency average = 19.6086
	minimum = 7
	maximum = 39
Slowest packet = 960179
Flit latency average = 19.6086
	minimum = 7
	maximum = 39
Slowest flit = 960179
Fragmentation average = 0
	minimum = 0
	maximum = 0
Injected packet rate average = 0.099625
	minimum = 0.086 (at node 15)
	maximum = 0.122 (at node 7)
Accepted packet rate average = 0.0975625
	minimum = 0.088 (at node 3)
	maximum = 0.119 (at node 1)
Injected flit rate average = 0.099625
	minimum = 0.086 (at node 15)
	maximum = 0.122 (at node 7)
Accepted flit rate average= 0.0975625
	minimum = 0.088 (at node 3)
	maximum = 0.119 (at node 1)
Injected packet length average = 1
Accepted packet length average = 1
Total in-flight flits = 33 (0 measured)
latency change    = 1
throughput change = 1
Class 0:
Packet latency average = 19.6021
	minimum = 7
	maximum = 39
Network latency average = 19.6018
	minimum = 7
	maximum = 39
Slowest packet = 960179
Flit latency average = 19.6018
	minimum = 7
	maximum = 39
Slowest flit = 960179
Fragmentation average = 0
	minimum = 0
	maximum = 0
Injected packet rate average = 0.101219
	minimum = 0.0885 (at node 14)
	maximum = 0.1135 (at node 0)
Accepted packet rate average = 0.100219
	minimum = 0.0825 (at node 13)
	maximum = 0.1105 (at node 11)
Injected flit rate average = 0.101219
	minimum = 0.0885 (at node 14)
	maximum = 0.1135 (at node 0)
Accepted flit rate average= 0.100219
	minimum = 0.0825 (at node 13)
	maximum = 0.1105 (at node 11)
Injected packet length average = 1
Accepted packet length average = 1
Total in-flight flits = 32 (0 measured)
latency change    = 0.000329754
throughput change = 0.0265045
Class 0:
Packet latency average = 19.4667
	minimum = 7
	maximum = 40
Network latency average = 19.4654
	minimum = 7
	maximum = 40
Slowest packet = 962756
Flit latency average = 19.4654
	minimum = 7
	maximum = 40
Slowest flit = 962756
Fragmentation average = 0
	minimum = 0
	maximum = 0
Injected packet rate average = 0.100875
	minimum = 0.087 (at node 3)
	maximum = 0.116 (at node 5)
Accepted packet rate average = 0.10125
	minimum = 0.091 (at node 14)
	maximum = 0.117 (at node 12)
Injected flit rate average = 0.100875
	minimum = 0.087 (at node 3)
	maximum = 0.116 (at node 5)
Accepted flit rate average= 0.10125
	minimum = 0.091 (at node 14)
	maximum = 0.117 (at node 12)
Injected packet length average = 1
Accepted packet length average = 1
Total in-flight flits = 26 (0 measured)
latency change    = 0.00695824
throughput change = 0.0101852
Warmed up ...Time used is 3000 cycles
Class 0:
Packet latency average = 19.5149
	minimum = 7
	maximum = 41
Network latency average = 19.5149
	minimum = 7
	maximum = 41
Slowest packet = 965050
Flit latency average = 19.609
	minimum = 7
	maximum = 41
Slowest flit = 963925
Fragmentation average = 0
	minimum = 0
	maximum = 0
Injected packet rate average = 0.100375
	minimum = 0.08 (at node 4)
	maximum = 0.117 (at node 1)
Accepted packet rate average = 0.100062
	minimum = 0.082 (at node 2)
	maximum = 0.116 (at node 15)
Injected flit rate average = 0.100375
	minimum = 0.08 (at node 4)
	maximum = 0.117 (at node 1)
Accepted flit rate average= 0.100062
	minimum = 0.082 (at node 2)
	maximum = 0.116 (at node 15)
Injected packet length average = 1
Accepted packet length average = 1
Total in-flight flits = 31 (31 measured)
latency change    = 0.00247267
throughput change = 0.0118676
Class 0:
Packet latency average = 19.607
	minimum = 7
	maximum = 41
Network latency average = 19.607
	minimum = 7
	maximum = 41
Slowest packet = 965050
Flit latency average = 19.6539
	minimum = 7
	maximum = 41
Slowest flit = 963925
Fragmentation average = 0
	minimum = 0
	maximum = 0
Injected packet rate average = 0.0988125
	minimum = 0.0905 (at node 2)
	maximum = 0.1085 (at node 13)
Accepted packet rate average = 0.0987813
	minimum = 0.0875 (at node 12)
	maximum = 0.1055 (at node 15)
Injected flit rate average = 0.0988125
	minimum = 0.0905 (at node 2)
	maximum = 0.1085 (at node 13)
Accepted flit rate average= 0.0987813
	minimum = 0.0875 (at node 12)
	maximum = 0.1055 (at node 15)
Injected packet length average = 1
Accepted packet length average = 1
Total in-flight flits = 27 (27 measured)
latency change    = 0.00469714
throughput change = 0.0129706
Class 0:
Packet latency average = 19.535
	minimum = 7
	maximum = 41
Network latency average = 19.5345
	minimum = 7
	maximum = 41
Slowest packet = 965050
Flit latency average = 19.5666
	minimum = 7
	maximum = 41
Slowest flit = 963925
Fragmentation average = 0
	minimum = 0
	maximum = 0
Injected packet rate average = 0.0977292
	minimum = 0.0913333 (at node 4)
	maximum = 0.108 (at node 13)
Accepted packet rate average = 0.0976667
	minimum = 0.0856667 (at node 2)
	maximum = 0.103 (at node 0)
Injected flit rate average = 0.0977292
	minimum = 0.0913333 (at node 4)
	maximum = 0.108 (at node 13)
Accepted flit rate average= 0.0976667
	minimum = 0.0856667 (at node 2)
	maximum = 0.103 (at node 0)
Injected packet length average = 1
Accepted packet length average = 1
Total in-flight flits = 29 (29 measured)
latency change    = 0.00368846
throughput change = 0.0114121
Draining all recorded packets ...
Draining remaining packets ...
Time taken is 6066 cycles
Class 0:
Packet latency average = 19.6895
	minimum = 7
	maximum = 42
Network latency average = 19.6895
	minimum = 7
	maximum = 42
Slowest packet = 969072
Flit latency average = 19.6895
	minimum = 7
	maximum = 42
Slowest flit = 969072
Fragmentation average = 0
	minimum = 0
	maximum = 0
Injected packet rate average = 0.096625
	minimum = 0.079 (at node 0)
	maximum = 0.134 (at node 15)
Accepted packet rate average = 0.0948125
	minimum = 0.083 (at node 2)
	maximum = 0.11 (at node 11)
Injected flit rate average = 0.096625
	minimum = 0.079 (at node 0)
	maximum = 0.134 (at node 15)
Accepted flit rate average= 0.0948125
	minimum = 0.083 (at node 2)
	maximum = 0.11 (at node 11)
Injected packet length average = 1
Accepted packet length average = 1
Total in-flight flits = 29 (0 measured)
latency change    = 1
throughput change = 1
Class 0:
Packet latency average = 19.7249
	minimum = 7
	maximum = 42
Network latency average = 19.7249
	minimum = 7
	maximum = 42
Slowest packet = 969072
Flit latency average = 19.7249
	minimum = 7
	maximum = 42
Slowest flit = 969072
Fragmentation average = 0
	minimum = 0
	maximum = 0
Injected packet rate average = 0.0987187
	minimum = 0.086 (at node 7)
	maximum = 0.1205 (at node 15)
Accepted packet rate average = 0.0979063
	minimum = 0.0865 (at node 2)
	maximum = 0.1075 (at node 11)
Injected flit rate average = 0.0987187
	minimum = 0.086 (at node 7)
	maximum = 0.1205 (at node 15)
Accepted flit rate average= 0.0979063
	minimum = 0.0865 (at node 2)
	maximum = 0.1075 (at node 11)
Injected packet length average = 1
Accepted packet length average = 1
Total in-flight flits = 26 (0 measured)
latency change    = 0.00179193
throughput change = 0.0315991
Class 0:
Packet latency average = 19.6395
	minimum = 7
	maximum = 39
Network latency average = 19.6389
	minimum = 7
	maximum = 39
Slowest packet = 973415
Flit latency average = 19.6389
	minimum = 7
	maximum = 39
Slowest flit = 973415
Fragmentation average = 0
	minimum = 0
	maximum = 0
Injected packet rate average = 0.101375
	minimum = 0.086 (at node 2)
	maximum = 0.122 (at node 0)
Accepted packet rate average = 0.10125
	minimum = 0.083 (at node 12)
	maximum = 0.118 (at node 14)
Injected flit rate average = 0.101375
	minimum = 0.086 (at node 2)
	maximum = 0.122 (at node 0)
Accepted flit rate average= 0.10125
	minimum = 0.083 (at node 12)
	maximum = 0.118 (at node 14)
Injected packet length average = 1
Accepted packet length average = 1
Total in-flight flits = 28 (0 measured)
latency change    = 0.00434625
throughput change = 0.0330247
Warmed up ...Time used is 3000 cycles
Class 0:
Packet latency average = 19.3821
	minimum = 7
	maximum = 38
Network latency average = 19.3796
	minimum = 7
	maximum = 38
Slowest packet = 974350
Flit latency average = 19.4036
	minimum = 7
	maximum = 38
Slowest flit = 974350
Fragmentation average = 0
	minimum = 0
	maximum = 0
Injected packet rate average = 0.0998125
	minimum = 0.075 (at node 4)
	maximum = 0.112 (at node 8)
Accepted packet rate average = 0.0995625
	minimum = 0.086 (at node 2)
	maximum = 0.116 (at node 1)
Injected flit rate average = 0.0998125
	minimum = 0.075 (at node 4)
	maximum = 0.112 (at node 8)
Accepted flit rate average= 0.0995625
	minimum = 0.086 (at node 2)
	maximum = 0.116 (at node 1)
Injected packet length average = 1
Accepted packet length average = 1
Total in-flight flits = 32 (32 measured)
latency change    = 0.0132802
throughput change = 0.0169492
Class 0:
Packet latency average = 19.4557
	minimum = 7
	maximum = 39
Network latency average = 19.4541
	minimum = 7
	maximum = 39
Slowest packet = 975947
Flit latency average = 19.4655
	minimum = 7
	maximum = 39
Slowest flit = 975947
Fragmentation average = 0
	minimum = 0
	maximum = 0
Injected packet rate average = 0.0991563
	minimum = 0.087 (at node 4)
	maximum = 0.1125 (at node 13)
Accepted packet rate average = 0.0992813
	minimum = 0.0915 (at node 7)
	maximum = 0.112 (at node 1)
Injected flit rate average = 0.0991563
	minimum = 0.087 (at node 4)
	maximum = 0.1125 (at node 13)
Accepted flit rate average= 0.0992813
	minimum = 0.0915 (at node 7)
	maximum = 0.112 (at node 1)
Injected packet length average = 1
Accepted packet length average = 1
Total in-flight flits = 24 (24 measured)
latency change    = 0.00378252
throughput change = 0.00283286
Class 0:
Packet latency average = 19.6543
	minimum = 7
	maximum = 43
Network latency average = 19.6533
	minimum = 7
	maximum = 43
Slowest packet = 978047
Flit latency average = 19.6597
	minimum = 7
	maximum = 43
Slowest flit = 978047
Fragmentation average = 0
	minimum = 0
	maximum = 0
Injected packet rate average = 0.098875
	minimum = 0.0896667 (at node 4)
	maximum = 0.111 (at node 8)
Accepted packet rate average = 0.0989375
	minimum = 0.087 (at node 0)
	maximum = 0.111333 (at node 11)
Injected flit rate average = 0.098875
	minimum = 0.0896667 (at node 4)
	maximum = 0.111 (at node 8)
Accepted flit rate average= 0.0989375
	minimum = 0.087 (at node 0)
	maximum = 0.111333 (at node 11)
Injected packet length average = 1
Accepted packet length average = 1
Total in-flight flits = 25 (25 measured)
latency change    = 0.0101052
throughput change = 0.00347442
Draining all recorded packets ...
Draining remaining packets ...
Time taken is 6052 cycles
Class 0:
Packet latency average = 19.6712
	minimum = 7
	maximum = 38
Network latency average = 19.6712
	minimum = 7
	maximum = 38
Slowest packet = 978588
Flit latency average = 19.6712
	minimum = 7
	maximum = 38
Slowest flit = 978588
Fragmentation average = 0
	minimum = 0
	maximum = 0
Injected packet rate average = 0.0949375
	minimum = 0.075 (at node 3)
	maximum = 0.109 (at node 1)
Accepted packet rate average = 0.0925625
	minimum = 0.075 (at node 1)
	maximum = 0.12 (at node 5)
Injected flit rate average = 0.0949375
	minimum = 0.075 (at node 3)
	maximum = 0.109 (at node 1)
Accepted flit rate average= 0.0925625
	minimum = 0.075 (at node 1)
	maximum = 0.12 (at node 5)
Injected packet length average = 1
Accepted packet length average = 1
Total in-flight flits = 38 (0 measured)
latency change    = 1
throughput change = 1
Class 0:
Packet latency average = 19.5923
	minimum = 7
	maximum = 38
Network latency average = 19.5923
	minimum = 7
	maximum = 38
Slowest packet = 978588
Flit latency average = 19.5923
	minimum = 7
	maximum = 38
Slowest flit = 978588
Fragmentation average = 0
	minimum = 0
	maximum = 0
Injected packet rate average = 0.0977187
	minimum = 0.091 (at node 4)
	maximum = 0.11 (at node 12)
Accepted packet rate average = 0.096875
	minimum = 0.0855 (at node 12)
	maximum = 0.1115 (at node 5)
Injected flit rate average = 0.0977187
	minimum = 0.091 (at node 4)
	maximum = 0.11 (at node 12)
Accepted flit rate average= 0.096875
	minimum = 0.0855 (at node 12)
	maximum = 0.1115 (at node 5)
Injected packet length average = 1
Accepted packet length average = 1
Total in-flight flits = 27 (0 measured)
latency change    = 0.00402761
throughput change = 0.0445161
Class 0:
Packet latency average = 19.5022
	minimum = 7
	maximum = 44
Network latency average = 19.5009
	minimum = 7
	maximum = 44
Slowest packet = 981940
Flit latency average = 19.5009
	minimum = 7
	maximum = 44
Slowest flit = 981940
Fragmentation average = 0
	minimum = 0
	maximum = 0
Injected packet rate average = 0.100437
	minimum = 0.09 (at node 4)
	maximum = 0.121 (at node 2)
Accepted packet rate average = 0.100187
	minimum = 0.085 (at node 1)
	maximum = 0.124 (at node 3)
Injected flit rate average = 0.100437
	minimum = 0.09 (at node 4)
	maximum = 0.121 (at node 2)
Accepted flit rate average= 0.100187
	minimum = 0.085 (at node 1)
	maximum = 0.124 (at node 3)
Injected packet length average = 1
Accepted packet length average = 1
Total in-flight flits = 31 (0 measured)
latency change    = 0.0046187
throughput change = 0.033063
Warmed up ...Time used is 3000 cycles
Class 0:
Packet latency average = 19.3159
	minimum = 7
	maximum = 40
Network latency average = 19.3159
	minimum = 7
	maximum = 40
Slowest packet = 983576
Flit latency average = 19.3735
	minimum = 7
	maximum = 40
Slowest flit = 983576
Fragmentation average = 0
	minimum = 0
	maximum = 0
Injected packet rate average = 0.102188
	minimum = 0.09 (at node 13)
	maximum = 0.116 (at node 5)
Accepted packet rate average = 0.10225
	minimum = 0.087 (at node 7)
	maximum = 0.123 (at node 10)
Injected flit rate average = 0.102188
	minimum = 0.09 (at node 13)
	maximum = 0.116 (at node 5)
Accepted flit rate average= 0.10225
	minimum = 0.087 (at node 7)
	maximum = 0.123 (at node 10)
Injected packet length average = 1
Accepted packet length average = 1
Total in-flight flits = 30 (30 measured)
latency change    = 0.00964468
throughput change = 0.0201711
Class 0:
Packet latency average = 19.5081
	minimum = 7
	maximum = 42
Network latency average = 19.5068
	minimum = 7
	maximum = 42
Slowest packet = 985947
Flit latency average = 19.5341
	minimum = 7
	maximum = 42
Slowest flit = 985947
Fragmentation average = 0
	minimum = 0
	maximum = 0
Injected packet rate average = 0.101281
	minimum = 0.091 (at node 1)
	maximum = 0.111 (at node 5)
Accepted packet rate average = 0.101406
	minimum = 0.089 (at node 14)
	maximum = 0.113 (at node 12)
Injected flit rate average = 0.101281
	minimum = 0.091 (at node 1)
	maximum = 0.111 (at node 5)
Accepted flit rate average= 0.101406
	minimum = 0.089 (at node 14)
	maximum = 0.113 (at node 12)
Injected packet length average = 1
Accepted packet length average = 1
Total in-flight flits = 27 (27 measured)
latency change    = 0.00985241
throughput change = 0.00832049
Class 0:
Packet latency average = 19.5238
	minimum = 7
	maximum = 42
Network latency average = 19.5227
	minimum = 7
	maximum = 42
Slowest packet = 985947
Flit latency average = 19.541
	minimum = 7
	maximum = 42
Slowest flit = 985947
Fragmentation average = 0
	minimum = 0
	maximum = 0
Injected packet rate average = 0.100042
	minimum = 0.0893333 (at node 1)
	maximum = 0.106667 (at node 14)
Accepted packet rate average = 0.100125
	minimum = 0.092 (at node 14)
	maximum = 0.107667 (at node 12)
Injected flit rate average = 0.100042
	minimum = 0.0893333 (at node 1)
	maximum = 0.106667 (at node 14)
Accepted flit rate average= 0.100125
	minimum = 0.092 (at node 14)
	maximum = 0.107667 (at node 12)
Injected packet length average = 1
Accepted packet length average = 1
Total in-flight flits = 27 (27 measured)
latency change    = 0.000803125
throughput change = 0.0127965
Draining all recorded packets ...
Draining remaining packets ...
Time taken is 6061 cycles
====== Overall Traffic Statistics ======
====== Traffic class 0 ======
Packet latency average = 19.6336 (100 samples)
	minimum = 7 (100 samples)
	maximum = 41.23 (100 samples)
Network latency average = 19.6329 (100 samples)
	minimum = 7 (100 samples)
	maximum = 41.23 (100 samples)
Flit latency average = 19.6484 (100 samples)
	minimum = 7 (100 samples)
	maximum = 41.27 (100 samples)
Fragmentation average = 0 (100 samples)
	minimum = 0 (100 samples)
	maximum = 0 (100 samples)
Injected packet rate average = 0.100147 (100 samples)
	minimum = 0.0903997 (100 samples)
	maximum = 0.109684 (100 samples)
Accepted packet rate average = 0.100128 (100 samples)
	minimum = 0.090348 (100 samples)
	maximum = 0.11 (100 samples)
Injected flit rate average = 0.100147 (100 samples)
	minimum = 0.0903997 (100 samples)
	maximum = 0.109684 (100 samples)
Accepted flit rate average = 0.100128 (100 samples)
	minimum = 0.090348 (100 samples)
	maximum = 0.11 (100 samples)
Injected packet size average = 1 (100 samples)
Accepted packet size average = 1 (100 samples)
Hops average = 3.49887 (100 samples)
Total run time 11.1987
