BEGIN Configuration File: /tmp/tmpcau5xbka.cfg
topology = mesh;
k = 4;
n = 2;
routing_function = romm;
num_vcs = 4;
vc_buf_size = 4;
wait_for_tail_credit = 1;
vc_allocator = islip;
sw_allocator = islip;
alloc_iters = 1;
credit_delay = 2;
routing_delay = 1;
vc_alloc_delay = 1;
sw_alloc_delay = 1;
input_speedup = 2;
output_speedup = 1;
internal_speedup = 1.0;
traffic = transpose;
packet_size = 1;
sim_type = latency;
injection_rate = 0.02;
warmup_periods = 3;
sample_period = 1000;
sim_count = 100;
seed = 1;

END Configuration File: /tmp/tmpcau5xbka.cfg
Class 0:
Packet latency average = 18.9003
	minimum = 7
	maximum = 37
Network latency average = 18.9003
	minimum = 7
	maximum = 37
Slowest packet = 14
Flit latency average = 18.9003
	minimum = 7
	maximum = 37
Slowest flit = 14
Fragmentation average = 0
	minimum = 0
	maximum = 0
Injected packet rate average = 0.019875
	minimum = 0.012 (at node 8)
	maximum = 0.031 (at node 0)
Accepted packet rate average = 0.0194375
	minimum = 0.012 (at node 2)
	maximum = 0.031 (at node 0)
Injected flit rate average = 0.019875
	minimum = 0.012 (at node 8)
	maximum = 0.031 (at node 0)
Accepted flit rate average= 0.0194375
	minimum = 0.012 (at node 2)
	maximum = 0.031 (at node 0)
Injected packet length average = 1
Accepted packet length average = 1
Total in-flight flits = 7 (0 measured)
latency change    = 1
throughput change = 1
Class 0:
Packet latency average = 19.5925
	minimum = 7
	maximum = 43
Network latency average = 19.5925
	minimum = 7
	maximum = 43
Slowest packet = 304
Flit latency average = 19.5925
	minimum = 7
	maximum = 43
Slowest flit = 304
Fragmentation average = 0
	minimum = 0
	maximum = 0
Injected packet rate average = 0.0201563
	minimum = 0.0155 (at node 2)
	maximum = 0.025 (at node 0)
Accepted packet rate average = 0.0199375
	minimum = 0.0155 (at node 8)
	maximum = 0.025 (at node 0)
Injected flit rate average = 0.0201563
	minimum = 0.0155 (at node 2)
	maximum = 0.025 (at node 0)
Accepted flit rate average= 0.0199375
	minimum = 0.0155 (at node 8)
	maximum = 0.025 (at node 0)
Injected packet length average = 1
Accepted packet length average = 1
Total in-flight flits = 7 (0 measured)
latency change    = 0.0353276
throughput change = 0.0250784
Class 0:
Packet latency average = 19.8509
	minimum = 7
	maximum = 43
Network latency average = 19.8509
	minimum = 7
	maximum = 43
Slowest packet = 912
Flit latency average = 19.8509
	minimum = 7
	maximum = 43
Slowest flit = 912
Fragmentation average = 0
	minimum = 0
	maximum = 0
Injected packet rate average = 0.0198125
	minimum = 0.01 (at node 0)
	maximum = 0.027 (at node 14)
Accepted packet rate average = 0.020125
	minimum = 0.01 (at node 0)
	maximum = 0.028 (at node 11)
Injected flit rate average = 0.0198125
	minimum = 0.01 (at node 0)
	maximum = 0.027 (at node 14)
Accepted flit rate average= 0.020125
	minimum = 0.01 (at node 0)
	maximum = 0.028 (at node 11)
Injected packet length average = 1
Accepted packet length average = 1
Total in-flight flits = 2 (0 measured)
latency change    = 0.0130198
throughput change = 0.00931677
Warmed up ...Time used is 3000 cycles
Class 0:
Packet latency average = 19.1346
	minimum = 7
	maximum = 44
Network latency average = 19.1346
	minimum = 7
	maximum = 44
Slowest packet = 977
Flit latency average = 19.1847
	minimum = 7
	maximum = 44
Slowest flit = 977
Fragmentation average = 0
	minimum = 0
	maximum = 0
Injected packet rate average = 0.0196875
	minimum = 0.015 (at node 0)
	maximum = 0.031 (at node 5)
Accepted packet rate average = 0.019625
	minimum = 0.015 (at node 0)
	maximum = 0.031 (at node 5)
Injected flit rate average = 0.0196875
	minimum = 0.015 (at node 0)
	maximum = 0.031 (at node 5)
Accepted flit rate average= 0.019625
	minimum = 0.015 (at node 0)
	maximum = 0.031 (at node 5)
Injected packet length average = 1
Accepted packet length average = 1
Total in-flight flits = 3 (3 measured)
latency change    = 0.0374356
throughput change = 0.0254777
Class 0:
Packet latency average = 19.8905
	minimum = 7
	maximum = 46
Network latency average = 19.8905
	minimum = 7
	maximum = 46
Slowest packet = 1455
Flit latency average = 19.9126
	minimum = 7
	maximum = 46
Slowest flit = 1455
Fragmentation average = 0
	minimum = 0
	maximum = 0
Injected packet rate average = 0.0201875
	minimum = 0.0155 (at node 9)
	maximum = 0.025 (at node 5)
Accepted packet rate average = 0.0200313
	minimum = 0.0155 (at node 6)
	maximum = 0.025 (at node 5)
Injected flit rate average = 0.0201875
	minimum = 0.0155 (at node 9)
	maximum = 0.025 (at node 5)
Accepted flit rate average= 0.0200313
	minimum = 0.0155 (at node 6)
	maximum = 0.025 (at node 5)
Injected packet length average = 1
Accepted packet length average = 1
Total in-flight flits = 7 (7 measured)
latency change    = 0.0380001
throughput change = 0.0202808
Class 0:
Packet latency average = 19.8619
	minimum = 7
	maximum = 46
Network latency average = 19.8619
	minimum = 7
	maximum = 46
Slowest packet = 1455
Flit latency average = 19.8767
	minimum = 7
	maximum = 46
Slowest flit = 1455
Fragmentation average = 0
	minimum = 0
	maximum = 0
Injected packet rate average = 0.0203125
	minimum = 0.0176667 (at node 11)
	maximum = 0.0236667 (at node 3)
Accepted packet rate average = 0.0201042
	minimum = 0.0176667 (at node 14)
	maximum = 0.0233333 (at node 12)
Injected flit rate average = 0.0203125
	minimum = 0.0176667 (at node 11)
	maximum = 0.0236667 (at node 3)
Accepted flit rate average= 0.0201042
	minimum = 0.0176667 (at node 14)
	maximum = 0.0233333 (at node 12)
Injected packet length average = 1
Accepted packet length average = 1
Total in-flight flits = 12 (12 measured)
latency change    = 0.00143813
throughput change = 0.00362694
Draining all recorded packets ...
Draining remaining packets ...
Time taken is 6059 cycles
Class 0:
Packet latency average = 19.2258
	minimum = 7
	maximum = 38
Network latency average = 19.2258
	minimum = 7
	maximum = 38
Slowest packet = 2148
Flit latency average = 19.2258
	minimum = 7
	maximum = 38
Slowest flit = 2148
Fragmentation average = 0
	minimum = 0
	maximum = 0
Injected packet rate average = 0.0194375
	minimum = 0.012 (at node 14)
	maximum = 0.028 (at node 10)
Accepted packet rate average = 0.019375
	minimum = 0.012 (at node 11)
	maximum = 0.028 (at node 10)
Injected flit rate average = 0.0194375
	minimum = 0.012 (at node 14)
	maximum = 0.028 (at node 10)
Accepted flit rate average= 0.019375
	minimum = 0.012 (at node 11)
	maximum = 0.028 (at node 10)
Injected packet length average = 1
Accepted packet length average = 1
Total in-flight flits = 1 (0 measured)
latency change    = 1
throughput change = 1
Class 0:
Packet latency average = 19.1997
	minimum = 7
	maximum = 38
Network latency average = 19.1997
	minimum = 7
	maximum = 38
Slowest packet = 2148
Flit latency average = 19.1997
	minimum = 7
	maximum = 38
Slowest flit = 2148
Fragmentation average = 0
	minimum = 0
	maximum = 0
Injected packet rate average = 0.019875
	minimum = 0.016 (at node 3)
	maximum = 0.0255 (at node 10)
Accepted packet rate average = 0.0197188
	minimum = 0.016 (at node 12)
	maximum = 0.0255 (at node 10)
Injected flit rate average = 0.019875
	minimum = 0.016 (at node 3)
	maximum = 0.0255 (at node 10)
Accepted flit rate average= 0.0197188
	minimum = 0.016 (at node 12)
	maximum = 0.0255 (at node 10)
Injected packet length average = 1
Accepted packet length average = 1
Total in-flight flits = 5 (0 measured)
latency change    = 0.00136062
throughput change = 0.0174326
Class 0:
Packet latency average = 19.6369
	minimum = 7
	maximum = 37
Network latency average = 19.6369
	minimum = 7
	maximum = 37
Slowest packet = 2601
Flit latency average = 19.6369
	minimum = 7
	maximum = 37
Slowest flit = 2601
Fragmentation average = 0
	minimum = 0
	maximum = 0
Injected packet rate average = 0.0195625
	minimum = 0.016 (at node 14)
	maximum = 0.025 (at node 7)
Accepted packet rate average = 0.019625
	minimum = 0.016 (at node 11)
	maximum = 0.025 (at node 13)
Injected flit rate average = 0.0195625
	minimum = 0.016 (at node 14)
	maximum = 0.025 (at node 7)
Accepted flit rate average= 0.019625
	minimum = 0.016 (at node 11)
	maximum = 0.025 (at node 13)
Injected packet length average = 1
Accepted packet length average = 1
Total in-flight flits = 4 (0 measured)
latency change    = 0.0222672
throughput change = 0.00477707
Warmed up ...Time used is 3000 cycles
Class 0:
Packet latency average = 19.5928
	minimum = 7
	maximum = 37
Network latency average = 19.5928
	minimum = 7
	maximum = 37
Slowest packet = 2905
Flit latency average = 19.7203
	minimum = 7
	maximum = 37
Slowest flit = 2894
Fragmentation average = 0
	minimum = 0
	maximum = 0
Injected packet rate average = 0.0195
	minimum = 0.012 (at node 10)
	maximum = 0.026 (at node 1)
Accepted packet rate average = 0.0194375
	minimum = 0.012 (at node 10)
	maximum = 0.027 (at node 4)
Injected flit rate average = 0.0195
	minimum = 0.012 (at node 10)
	maximum = 0.026 (at node 1)
Accepted flit rate average= 0.0194375
	minimum = 0.012 (at node 10)
	maximum = 0.027 (at node 4)
Injected packet length average = 1
Accepted packet length average = 1
Total in-flight flits = 5 (5 measured)
latency change    = 0.00225127
throughput change = 0.0096463
Class 0:
Packet latency average = 19.4653
	minimum = 7
	maximum = 38
Network latency average = 19.4653
	minimum = 7
	maximum = 38
Slowest packet = 3254
Flit latency average = 19.5311
	minimum = 7
	maximum = 38
Slowest flit = 3254
Fragmentation average = 0
	minimum = 0
	maximum = 0
Injected packet rate average = 0.0191562
	minimum = 0.015 (at node 15)
	maximum = 0.0245 (at node 14)
Accepted packet rate average = 0.0190625
	minimum = 0.015 (at node 15)
	maximum = 0.0245 (at node 11)
Injected flit rate average = 0.0191562
	minimum = 0.015 (at node 15)
	maximum = 0.0245 (at node 14)
Accepted flit rate average= 0.0190625
	minimum = 0.015 (at node 15)
	maximum = 0.0245 (at node 11)
Injected packet length average = 1
Accepted packet length average = 1
Total in-flight flits = 7 (7 measured)
latency change    = 0.00654945
throughput change = 0.0196721
Class 0:
Packet latency average = 19.5376
	minimum = 7
	maximum = 42
Network latency average = 19.5376
	minimum = 7
	maximum = 42
Slowest packet = 3558
Flit latency average = 19.5821
	minimum = 7
	maximum = 42
Slowest flit = 3558
Fragmentation average = 0
	minimum = 0
	maximum = 0
Injected packet rate average = 0.0186875
	minimum = 0.0156667 (at node 10)
	maximum = 0.0253333 (at node 9)
Accepted packet rate average = 0.0186458
	minimum = 0.0156667 (at node 10)
	maximum = 0.0253333 (at node 6)
Injected flit rate average = 0.0186875
	minimum = 0.0156667 (at node 10)
	maximum = 0.0253333 (at node 9)
Accepted flit rate average= 0.0186458
	minimum = 0.0156667 (at node 10)
	maximum = 0.0253333 (at node 6)
Injected packet length average = 1
Accepted packet length average = 1
Total in-flight flits = 6 (6 measured)
latency change    = 0.00369808
throughput change = 0.0223464
Draining all recorded packets ...
Draining remaining packets ...
Time taken is 6053 cycles
Class 0:
Packet latency average = 19.8612
	minimum = 7
	maximum = 46
Network latency average = 19.8612
	minimum = 7
	maximum = 46
Slowest packet = 3928
Flit latency average = 19.8612
	minimum = 7
	maximum = 46
Slowest flit = 3928
Fragmentation average = 0
	minimum = 0
	maximum = 0
Injected packet rate average = 0.0203125
	minimum = 0.012 (at node 13)
	maximum = 0.026 (at node 12)
Accepted packet rate average = 0.0198125
	minimum = 0.01 (at node 7)
	maximum = 0.025 (at node 3)
Injected flit rate average = 0.0203125
	minimum = 0.012 (at node 13)
	maximum = 0.026 (at node 12)
Accepted flit rate average= 0.0198125
	minimum = 0.01 (at node 7)
	maximum = 0.025 (at node 3)
Injected packet length average = 1
Accepted packet length average = 1
Total in-flight flits = 8 (0 measured)
latency change    = 1
throughput change = 1
Class 0:
Packet latency average = 19.7383
	minimum = 7
	maximum = 46
Network latency average = 19.7383
	minimum = 7
	maximum = 46
Slowest packet = 3928
Flit latency average = 19.7383
	minimum = 7
	maximum = 46
Slowest flit = 3928
Fragmentation average = 0
	minimum = 0
	maximum = 0
Injected packet rate average = 0.0187187
	minimum = 0.016 (at node 2)
	maximum = 0.0225 (at node 12)
Accepted packet rate average = 0.018625
	minimum = 0.016 (at node 6)
	maximum = 0.0215 (at node 1)
Injected flit rate average = 0.0187187
	minimum = 0.016 (at node 2)
	maximum = 0.0225 (at node 12)
Accepted flit rate average= 0.018625
	minimum = 0.016 (at node 6)
	maximum = 0.0215 (at node 1)
Injected packet length average = 1
Accepted packet length average = 1
Total in-flight flits = 3 (0 measured)
latency change    = 0.0062287
throughput change = 0.0637584
Class 0:
Packet latency average = 19.4841
	minimum = 7
	maximum = 40
Network latency average = 19.4841
	minimum = 7
	maximum = 40
Slowest packet = 4600
Flit latency average = 19.4841
	minimum = 7
	maximum = 40
Slowest flit = 4600
Fragmentation average = 0
	minimum = 0
	maximum = 0
Injected packet rate average = 0.0196875
	minimum = 0.009 (at node 3)
	maximum = 0.027 (at node 12)
Accepted packet rate average = 0.019625
	minimum = 0.009 (at node 12)
	maximum = 0.029 (at node 3)
Injected flit rate average = 0.0196875
	minimum = 0.009 (at node 3)
	maximum = 0.027 (at node 12)
Accepted flit rate average= 0.019625
	minimum = 0.009 (at node 12)
	maximum = 0.029 (at node 3)
Injected packet length average = 1
Accepted packet length average = 1
Total in-flight flits = 4 (0 measured)
latency change    = 0.0130455
throughput change = 0.0509554
Warmed up ...Time used is 3000 cycles
Class 0:
Packet latency average = 20.0157
	minimum = 7
	maximum = 40
Network latency average = 20.0157
	minimum = 7
	maximum = 40
Slowest packet = 4942
Flit latency average = 20.0093
	minimum = 7
	maximum = 40
Slowest flit = 4942
Fragmentation average = 0
	minimum = 0
	maximum = 0
Injected packet rate average = 0.020125
	minimum = 0.015 (at node 9)
	maximum = 0.028 (at node 15)
Accepted packet rate average = 0.020125
	minimum = 0.014 (at node 10)
	maximum = 0.028 (at node 15)
Injected flit rate average = 0.020125
	minimum = 0.015 (at node 9)
	maximum = 0.028 (at node 15)
Accepted flit rate average= 0.020125
	minimum = 0.014 (at node 10)
	maximum = 0.028 (at node 15)
Injected packet length average = 1
Accepted packet length average = 1
Total in-flight flits = 4 (4 measured)
latency change    = 0.0265615
throughput change = 0.0248447
Class 0:
Packet latency average = 19.4538
	minimum = 7
	maximum = 40
Network latency average = 19.4538
	minimum = 7
	maximum = 40
Slowest packet = 4942
Flit latency average = 19.4541
	minimum = 7
	maximum = 40
Slowest flit = 4942
Fragmentation average = 0
	minimum = 0
	maximum = 0
Injected packet rate average = 0.0197813
	minimum = 0.016 (at node 0)
	maximum = 0.028 (at node 15)
Accepted packet rate average = 0.01975
	minimum = 0.0155 (at node 0)
	maximum = 0.028 (at node 15)
Injected flit rate average = 0.0197813
	minimum = 0.016 (at node 0)
	maximum = 0.028 (at node 15)
Accepted flit rate average= 0.01975
	minimum = 0.0155 (at node 0)
	maximum = 0.028 (at node 15)
Injected packet length average = 1
Accepted packet length average = 1
Total in-flight flits = 5 (5 measured)
latency change    = 0.0288839
throughput change = 0.0189873
Class 0:
Packet latency average = 19.3095
	minimum = 7
	maximum = 40
Network latency average = 19.3095
	minimum = 7
	maximum = 40
Slowest packet = 4942
Flit latency average = 19.3103
	minimum = 7
	maximum = 40
Slowest flit = 4942
Fragmentation average = 0
	minimum = 0
	maximum = 0
Injected packet rate average = 0.0193542
	minimum = 0.015 (at node 11)
	maximum = 0.0253333 (at node 15)
Accepted packet rate average = 0.0193333
	minimum = 0.015 (at node 2)
	maximum = 0.0253333 (at node 15)
Injected flit rate average = 0.0193542
	minimum = 0.015 (at node 11)
	maximum = 0.0253333 (at node 15)
Accepted flit rate average= 0.0193333
	minimum = 0.015 (at node 2)
	maximum = 0.0253333 (at node 15)
Injected packet length average = 1
Accepted packet length average = 1
Total in-flight flits = 5 (5 measured)
latency change    = 0.00747288
throughput change = 0.0215517
Draining all recorded packets ...
Draining remaining packets ...
Time taken is 6045 cycles
Class 0:
Packet latency average = 19.5976
	minimum = 7
	maximum = 46
Network latency average = 19.5976
	minimum = 7
	maximum = 46
Slowest packet = 5792
Flit latency average = 19.5976
	minimum = 7
	maximum = 46
Slowest flit = 5792
Fragmentation average = 0
	minimum = 0
	maximum = 0
Injected packet rate average = 0.02075
	minimum = 0.015 (at node 2)
	maximum = 0.03 (at node 7)
Accepted packet rate average = 0.0205
	minimum = 0.015 (at node 8)
	maximum = 0.027 (at node 13)
Injected flit rate average = 0.02075
	minimum = 0.015 (at node 2)
	maximum = 0.03 (at node 7)
Accepted flit rate average= 0.0205
	minimum = 0.015 (at node 8)
	maximum = 0.027 (at node 13)
Injected packet length average = 1
Accepted packet length average = 1
Total in-flight flits = 4 (0 measured)
latency change    = 1
throughput change = 1
Class 0:
Packet latency average = 19.2469
	minimum = 7
	maximum = 46
Network latency average = 19.2469
	minimum = 7
	maximum = 46
Slowest packet = 5792
Flit latency average = 19.2469
	minimum = 7
	maximum = 46
Slowest flit = 5792
Fragmentation average = 0
	minimum = 0
	maximum = 0
Injected packet rate average = 0.0203438
	minimum = 0.0165 (at node 2)
	maximum = 0.026 (at node 7)
Accepted packet rate average = 0.020125
	minimum = 0.0155 (at node 12)
	maximum = 0.026 (at node 13)
Injected flit rate average = 0.0203438
	minimum = 0.0165 (at node 2)
	maximum = 0.026 (at node 7)
Accepted flit rate average= 0.020125
	minimum = 0.0155 (at node 12)
	maximum = 0.026 (at node 13)
Injected packet length average = 1
Accepted packet length average = 1
Total in-flight flits = 7 (0 measured)
latency change    = 0.0182194
throughput change = 0.0186335
Class 0:
Packet latency average = 19.6935
	minimum = 7
	maximum = 39
Network latency average = 19.6935
	minimum = 7
	maximum = 39
Slowest packet = 6499
Flit latency average = 19.6935
	minimum = 7
	maximum = 39
Slowest flit = 6499
Fragmentation average = 0
	minimum = 0
	maximum = 0
Injected packet rate average = 0.019375
	minimum = 0.014 (at node 6)
	maximum = 0.025 (at node 11)
Accepted packet rate average = 0.019375
	minimum = 0.014 (at node 9)
	maximum = 0.026 (at node 14)
Injected flit rate average = 0.019375
	minimum = 0.014 (at node 6)
	maximum = 0.025 (at node 11)
Accepted flit rate average= 0.019375
	minimum = 0.014 (at node 9)
	maximum = 0.026 (at node 14)
Injected packet length average = 1
Accepted packet length average = 1
Total in-flight flits = 7 (0 measured)
latency change    = 0.0226802
throughput change = 0.0387097
Warmed up ...Time used is 3000 cycles
Class 0:
Packet latency average = 20.1054
	minimum = 7
	maximum = 38
Network latency average = 20.1054
	minimum = 7
	maximum = 38
Slowest packet = 6931
Flit latency average = 20.2478
	minimum = 7
	maximum = 38
Slowest flit = 6931
Fragmentation average = 0
	minimum = 0
	maximum = 0
Injected packet rate average = 0.021125
	minimum = 0.014 (at node 14)
	maximum = 0.028 (at node 9)
Accepted packet rate average = 0.0211875
	minimum = 0.014 (at node 11)
	maximum = 0.028 (at node 6)
Injected flit rate average = 0.021125
	minimum = 0.014 (at node 14)
	maximum = 0.028 (at node 9)
Accepted flit rate average= 0.0211875
	minimum = 0.014 (at node 11)
	maximum = 0.028 (at node 6)
Injected packet length average = 1
Accepted packet length average = 1
Total in-flight flits = 6 (6 measured)
latency change    = 0.0204857
throughput change = 0.0855457
Class 0:
Packet latency average = 19.9522
	minimum = 7
	maximum = 44
Network latency average = 19.9522
	minimum = 7
	maximum = 44
Slowest packet = 6986
Flit latency average = 20.0251
	minimum = 7
	maximum = 44
Slowest flit = 6986
Fragmentation average = 0
	minimum = 0
	maximum = 0
Injected packet rate average = 0.0210625
	minimum = 0.0135 (at node 14)
	maximum = 0.027 (at node 2)
Accepted packet rate average = 0.021125
	minimum = 0.0135 (at node 11)
	maximum = 0.027 (at node 8)
Injected flit rate average = 0.0210625
	minimum = 0.0135 (at node 14)
	maximum = 0.027 (at node 2)
Accepted flit rate average= 0.021125
	minimum = 0.0135 (at node 11)
	maximum = 0.027 (at node 8)
Injected packet length average = 1
Accepted packet length average = 1
Total in-flight flits = 5 (5 measured)
latency change    = 0.00768108
throughput change = 0.00295858
Class 0:
Packet latency average = 19.7889
	minimum = 7
	maximum = 44
Network latency average = 19.7889
	minimum = 7
	maximum = 44
Slowest packet = 6986
Flit latency average = 19.8386
	minimum = 7
	maximum = 44
Slowest flit = 6986
Fragmentation average = 0
	minimum = 0
	maximum = 0
Injected packet rate average = 0.0211667
	minimum = 0.016 (at node 14)
	maximum = 0.0273333 (at node 2)
Accepted packet rate average = 0.0211667
	minimum = 0.016 (at node 11)
	maximum = 0.0276667 (at node 8)
Injected flit rate average = 0.0211667
	minimum = 0.016 (at node 14)
	maximum = 0.0273333 (at node 2)
Accepted flit rate average= 0.0211667
	minimum = 0.016 (at node 11)
	maximum = 0.0276667 (at node 8)
Injected packet length average = 1
Accepted packet length average = 1
Total in-flight flits = 7 (7 measured)
latency change    = 0.00825046
throughput change = 0.0019685
Class 0:
Packet latency average = 19.4238
	minimum = 7
	maximum = 44
Network latency average = 19.4238
	minimum = 7
	maximum = 44
Slowest packet = 6986
Flit latency average = 19.4628
	minimum = 7
	maximum = 44
Slowest flit = 6986
Fragmentation average = 0
	minimum = 0
	maximum = 0
Injected packet rate average = 0.0212031
	minimum = 0.01825 (at node 3)
	maximum = 0.0245 (at node 2)
Accepted packet rate average = 0.0212344
	minimum = 0.0185 (at node 11)
	maximum = 0.02475 (at node 8)
Injected flit rate average = 0.0212031
	minimum = 0.01825 (at node 3)
	maximum = 0.0245 (at node 2)
Accepted flit rate average= 0.0212344
	minimum = 0.0185 (at node 11)
	maximum = 0.02475 (at node 8)
Injected packet length average = 1
Accepted packet length average = 1
Total in-flight flits = 5 (5 measured)
latency change    = 0.0187957
throughput change = 0.00318862
Draining all recorded packets ...
Draining remaining packets ...
Time taken is 7042 cycles
Class 0:
Packet latency average = 18.8684
	minimum = 7
	maximum = 46
Network latency average = 18.8684
	minimum = 7
	maximum = 46
Slowest packet = 8035
Flit latency average = 18.8684
	minimum = 7
	maximum = 46
Slowest flit = 8035
Fragmentation average = 0
	minimum = 0
	maximum = 0
Injected packet rate average = 0.019375
	minimum = 0.011 (at node 12)
	maximum = 0.034 (at node 10)
Accepted packet rate average = 0.019
	minimum = 0.01 (at node 3)
	maximum = 0.034 (at node 10)
Injected flit rate average = 0.019375
	minimum = 0.011 (at node 12)
	maximum = 0.034 (at node 10)
Accepted flit rate average= 0.019
	minimum = 0.01 (at node 3)
	maximum = 0.034 (at node 10)
Injected packet length average = 1
Accepted packet length average = 1
Total in-flight flits = 6 (0 measured)
latency change    = 1
throughput change = 1
Class 0:
Packet latency average = 19.6027
	minimum = 7
	maximum = 46
Network latency average = 19.6027
	minimum = 7
	maximum = 46
Slowest packet = 8035
Flit latency average = 19.6027
	minimum = 7
	maximum = 46
Slowest flit = 8035
Fragmentation average = 0
	minimum = 0
	maximum = 0
Injected packet rate average = 0.0207188
	minimum = 0.014 (at node 12)
	maximum = 0.028 (at node 3)
Accepted packet rate average = 0.0205313
	minimum = 0.0135 (at node 3)
	maximum = 0.028 (at node 12)
Injected flit rate average = 0.0207188
	minimum = 0.014 (at node 12)
	maximum = 0.028 (at node 3)
Accepted flit rate average= 0.0205313
	minimum = 0.0135 (at node 3)
	maximum = 0.028 (at node 12)
Injected packet length average = 1
Accepted packet length average = 1
Total in-flight flits = 6 (0 measured)
latency change    = 0.03746
throughput change = 0.0745814
Class 0:
Packet latency average = 19.7788
	minimum = 7
	maximum = 38
Network latency average = 19.7788
	minimum = 7
	maximum = 38
Slowest packet = 8836
Flit latency average = 19.7788
	minimum = 7
	maximum = 38
Slowest flit = 8836
Fragmentation average = 0
	minimum = 0
	maximum = 0
Injected packet rate average = 0.0205
	minimum = 0.016 (at node 1)
	maximum = 0.027 (at node 11)
Accepted packet rate average = 0.020625
	minimum = 0.015 (at node 9)
	maximum = 0.028 (at node 14)
Injected flit rate average = 0.0205
	minimum = 0.016 (at node 1)
	maximum = 0.027 (at node 11)
Accepted flit rate average= 0.020625
	minimum = 0.015 (at node 9)
	maximum = 0.028 (at node 14)
Injected packet length average = 1
Accepted packet length average = 1
Total in-flight flits = 4 (0 measured)
latency change    = 0.00890086
throughput change = 0.00454545
Warmed up ...Time used is 3000 cycles
Class 0:
Packet latency average = 19.3993
	minimum = 7
	maximum = 40
Network latency average = 19.3993
	minimum = 7
	maximum = 40
Slowest packet = 9172
Flit latency average = 19.4332
	minimum = 7
	maximum = 40
Slowest flit = 9172
Fragmentation average = 0
	minimum = 0
	maximum = 0
Injected packet rate average = 0.0193125
	minimum = 0.011 (at node 5)
	maximum = 0.028 (at node 14)
Accepted packet rate average = 0.0191875
	minimum = 0.011 (at node 5)
	maximum = 0.028 (at node 11)
Injected flit rate average = 0.0193125
	minimum = 0.011 (at node 5)
	maximum = 0.028 (at node 14)
Accepted flit rate average= 0.0191875
	minimum = 0.011 (at node 5)
	maximum = 0.028 (at node 11)
Injected packet length average = 1
Accepted packet length average = 1
Total in-flight flits = 6 (6 measured)
latency change    = 0.0195598
throughput change = 0.0749186
Class 0:
Packet latency average = 19.7538
	minimum = 7
	maximum = 41
Network latency average = 19.7538
	minimum = 7
	maximum = 41
Slowest packet = 9512
Flit latency average = 19.7675
	minimum = 7
	maximum = 41
Slowest flit = 9512
Fragmentation average = 0
	minimum = 0
	maximum = 0
Injected packet rate average = 0.0207188
	minimum = 0.0145 (at node 5)
	maximum = 0.0275 (at node 8)
Accepted packet rate average = 0.0205625
	minimum = 0.0145 (at node 5)
	maximum = 0.028 (at node 2)
Injected flit rate average = 0.0207188
	minimum = 0.0145 (at node 5)
	maximum = 0.0275 (at node 8)
Accepted flit rate average= 0.0205625
	minimum = 0.0145 (at node 5)
	maximum = 0.028 (at node 2)
Injected packet length average = 1
Accepted packet length average = 1
Total in-flight flits = 9 (9 measured)
latency change    = 0.017945
throughput change = 0.0668693
Class 0:
Packet latency average = 19.7263
	minimum = 7
	maximum = 43
Network latency average = 19.7263
	minimum = 7
	maximum = 43
Slowest packet = 9657
Flit latency average = 19.7352
	minimum = 7
	maximum = 43
Slowest flit = 9657
Fragmentation average = 0
	minimum = 0
	maximum = 0
Injected packet rate average = 0.0213333
	minimum = 0.0166667 (at node 5)
	maximum = 0.0276667 (at node 8)
Accepted packet rate average = 0.0213958
	minimum = 0.0166667 (at node 5)
	maximum = 0.028 (at node 2)
Injected flit rate average = 0.0213333
	minimum = 0.0166667 (at node 5)
	maximum = 0.0276667 (at node 8)
Accepted flit rate average= 0.0213958
	minimum = 0.0166667 (at node 5)
	maximum = 0.028 (at node 2)
Injected packet length average = 1
Accepted packet length average = 1
Total in-flight flits = 1 (1 measured)
latency change    = 0.00139547
throughput change = 0.0389484
Class 0:
Packet latency average = 19.5195
	minimum = 7
	maximum = 43
Network latency average = 19.5195
	minimum = 7
	maximum = 43
Slowest packet = 9657
Flit latency average = 19.527
	minimum = 7
	maximum = 43
Slowest flit = 9657
Fragmentation average = 0
	minimum = 0
	maximum = 0
Injected packet rate average = 0.0209219
	minimum = 0.01625 (at node 5)
	maximum = 0.02475 (at node 14)
Accepted packet rate average = 0.0208438
	minimum = 0.01625 (at node 5)
	maximum = 0.02475 (at node 2)
Injected flit rate average = 0.0209219
	minimum = 0.01625 (at node 5)
	maximum = 0.02475 (at node 14)
Accepted flit rate average= 0.0208438
	minimum = 0.01625 (at node 5)
	maximum = 0.02475 (at node 2)
Injected packet length average = 1
Accepted packet length average = 1
Total in-flight flits = 9 (9 measured)
latency change    = 0.0105918
throughput change = 0.0264868
Class 0:
Packet latency average = 19.6457
	minimum = 7
	maximum = 43
Network latency average = 19.6457
	minimum = 7
	maximum = 43
Slowest packet = 9657
Flit latency average = 19.6515
	minimum = 7
	maximum = 43
Slowest flit = 9657
Fragmentation average = 0
	minimum = 0
	maximum = 0
Injected packet rate average = 0.02035
	minimum = 0.016 (at node 5)
	maximum = 0.024 (at node 14)
Accepted packet rate average = 0.0203375
	minimum = 0.016 (at node 5)
	maximum = 0.024 (at node 11)
Injected flit rate average = 0.02035
	minimum = 0.016 (at node 5)
	maximum = 0.024 (at node 14)
Accepted flit rate average= 0.0203375
	minimum = 0.016 (at node 5)
	maximum = 0.024 (at node 11)
Injected packet length average = 1
Accepted packet length average = 1
Total in-flight flits = 5 (5 measured)
latency change    = 0.00642221
throughput change = 0.0248924
Draining all recorded packets ...
Draining remaining packets ...
Time taken is 8065 cycles
Class 0:
Packet latency average = 19.5831
	minimum = 7
	maximum = 46
Network latency average = 19.5831
	minimum = 7
	maximum = 46
Slowest packet = 10811
Flit latency average = 19.5831
	minimum = 7
	maximum = 46
Slowest flit = 10811
Fragmentation average = 0
	minimum = 0
	maximum = 0
Injected packet rate average = 0.0215625
	minimum = 0.016 (at node 6)
	maximum = 0.03 (at node 1)
Accepted packet rate average = 0.0214375
	minimum = 0.016 (at node 7)
	maximum = 0.03 (at node 4)
Injected flit rate average = 0.0215625
	minimum = 0.016 (at node 6)
	maximum = 0.03 (at node 1)
Accepted flit rate average= 0.0214375
	minimum = 0.016 (at node 7)
	maximum = 0.03 (at node 4)
Injected packet length average = 1
Accepted packet length average = 1
Total in-flight flits = 2 (0 measured)
latency change    = 1
throughput change = 1
Class 0:
Packet latency average = 19.745
	minimum = 7
	maximum = 46
Network latency average = 19.745
	minimum = 7
	maximum = 46
Slowest packet = 10811
Flit latency average = 19.745
	minimum = 7
	maximum = 46
Slowest flit = 10811
Fragmentation average = 0
	minimum = 0
	maximum = 0
Injected packet rate average = 0.020625
	minimum = 0.016 (at node 6)
	maximum = 0.0245 (at node 5)
Accepted packet rate average = 0.0203438
	minimum = 0.016 (at node 9)
	maximum = 0.0245 (at node 5)
Injected flit rate average = 0.020625
	minimum = 0.016 (at node 6)
	maximum = 0.0245 (at node 5)
Accepted flit rate average= 0.0203438
	minimum = 0.016 (at node 9)
	maximum = 0.0245 (at node 5)
Injected packet length average = 1
Accepted packet length average = 1
Total in-flight flits = 9 (0 measured)
latency change    = 0.00820042
throughput change = 0.0537634
Class 0:
Packet latency average = 19.8642
	minimum = 7
	maximum = 41
Network latency average = 19.8642
	minimum = 7
	maximum = 41
Slowest packet = 11303
Flit latency average = 19.8642
	minimum = 7
	maximum = 41
Slowest flit = 11303
Fragmentation average = 0
	minimum = 0
	maximum = 0
Injected packet rate average = 0.02025
	minimum = 0.012 (at node 11)
	maximum = 0.032 (at node 8)
Accepted packet rate average = 0.02025
	minimum = 0.012 (at node 14)
	maximum = 0.031 (at node 2)
Injected flit rate average = 0.02025
	minimum = 0.012 (at node 11)
	maximum = 0.032 (at node 8)
Accepted flit rate average= 0.02025
	minimum = 0.012 (at node 14)
	maximum = 0.031 (at node 2)
Injected packet length average = 1
Accepted packet length average = 1
Total in-flight flits = 9 (0 measured)
latency change    = 0.00600023
throughput change = 0.00462963
Warmed up ...Time used is 3000 cycles
Class 0:
Packet latency average = 18
	minimum = 7
	maximum = 45
Network latency average = 18
	minimum = 7
	maximum = 45
Slowest packet = 11645
Flit latency average = 18.3813
	minimum = 7
	maximum = 45
Slowest flit = 11645
Fragmentation average = 0
	minimum = 0
	maximum = 0
Injected packet rate average = 0.0196875
	minimum = 0.011 (at node 12)
	maximum = 0.027 (at node 0)
Accepted packet rate average = 0.02
	minimum = 0.013 (at node 3)
	maximum = 0.027 (at node 0)
Injected flit rate average = 0.0196875
	minimum = 0.011 (at node 12)
	maximum = 0.027 (at node 0)
Accepted flit rate average= 0.02
	minimum = 0.013 (at node 3)
	maximum = 0.027 (at node 0)
Injected packet length average = 1
Accepted packet length average = 1
Total in-flight flits = 4 (4 measured)
latency change    = 0.103567
throughput change = 0.0125
Class 0:
Packet latency average = 18.6419
	minimum = 7
	maximum = 45
Network latency average = 18.6419
	minimum = 7
	maximum = 45
Slowest packet = 11645
Flit latency average = 18.8309
	minimum = 7
	maximum = 45
Slowest flit = 11645
Fragmentation average = 0
	minimum = 0
	maximum = 0
Injected packet rate average = 0.019125
	minimum = 0.015 (at node 2)
	maximum = 0.0255 (at node 10)
Accepted packet rate average = 0.0192187
	minimum = 0.016 (at node 1)
	maximum = 0.0255 (at node 10)
Injected flit rate average = 0.019125
	minimum = 0.015 (at node 2)
	maximum = 0.0255 (at node 10)
Accepted flit rate average= 0.0192187
	minimum = 0.016 (at node 1)
	maximum = 0.0255 (at node 10)
Injected packet length average = 1
Accepted packet length average = 1
Total in-flight flits = 6 (6 measured)
latency change    = 0.0344339
throughput change = 0.0406504
Class 0:
Packet latency average = 18.7203
	minimum = 7
	maximum = 45
Network latency average = 18.7203
	minimum = 7
	maximum = 45
Slowest packet = 11645
Flit latency average = 18.8429
	minimum = 7
	maximum = 45
Slowest flit = 11645
Fragmentation average = 0
	minimum = 0
	maximum = 0
Injected packet rate average = 0.0195417
	minimum = 0.0143333 (at node 2)
	maximum = 0.0236667 (at node 11)
Accepted packet rate average = 0.019625
	minimum = 0.0153333 (at node 3)
	maximum = 0.0236667 (at node 14)
Injected flit rate average = 0.0195417
	minimum = 0.0143333 (at node 2)
	maximum = 0.0236667 (at node 11)
Accepted flit rate average= 0.019625
	minimum = 0.0153333 (at node 3)
	maximum = 0.0236667 (at node 14)
Injected packet length average = 1
Accepted packet length average = 1
Total in-flight flits = 5 (5 measured)
latency change    = 0.00418493
throughput change = 0.0207006
Class 0:
Packet latency average = 18.9074
	minimum = 7
	maximum = 45
Network latency average = 18.9074
	minimum = 7
	maximum = 45
Slowest packet = 11645
Flit latency average = 18.9992
	minimum = 7
	maximum = 45
Slowest flit = 11645
Fragmentation average = 0
	minimum = 0
	maximum = 0
Injected packet rate average = 0.0193125
	minimum = 0.01575 (at node 2)
	maximum = 0.02375 (at node 0)
Accepted packet rate average = 0.019375
	minimum = 0.01625 (at node 3)
	maximum = 0.02375 (at node 0)
Injected flit rate average = 0.0193125
	minimum = 0.01575 (at node 2)
	maximum = 0.02375 (at node 0)
Accepted flit rate average= 0.019375
	minimum = 0.01625 (at node 3)
	maximum = 0.02375 (at node 0)
Injected packet length average = 1
Accepted packet length average = 1
Total in-flight flits = 5 (5 measured)
latency change    = 0.00989746
throughput change = 0.0129032
Draining all recorded packets ...
Draining remaining packets ...
Time taken is 7020 cycles
Class 0:
Packet latency average = 19.9647
	minimum = 7
	maximum = 43
Network latency average = 19.9647
	minimum = 7
	maximum = 43
Slowest packet = 12992
Flit latency average = 19.9647
	minimum = 7
	maximum = 43
Slowest flit = 12992
Fragmentation average = 0
	minimum = 0
	maximum = 0
Injected packet rate average = 0.0199375
	minimum = 0.012 (at node 7)
	maximum = 0.027 (at node 2)
Accepted packet rate average = 0.0195
	minimum = 0.012 (at node 3)
	maximum = 0.026 (at node 8)
Injected flit rate average = 0.0199375
	minimum = 0.012 (at node 7)
	maximum = 0.027 (at node 2)
Accepted flit rate average= 0.0195
	minimum = 0.012 (at node 3)
	maximum = 0.026 (at node 8)
Injected packet length average = 1
Accepted packet length average = 1
Total in-flight flits = 7 (0 measured)
latency change    = 1
throughput change = 1
Class 0:
Packet latency average = 19.6892
	minimum = 7
	maximum = 47
Network latency average = 19.6892
	minimum = 7
	maximum = 47
Slowest packet = 13318
Flit latency average = 19.6892
	minimum = 7
	maximum = 47
Slowest flit = 13318
Fragmentation average = 0
	minimum = 0
	maximum = 0
Injected packet rate average = 0.0202188
	minimum = 0.0135 (at node 7)
	maximum = 0.027 (at node 4)
Accepted packet rate average = 0.0199063
	minimum = 0.013 (at node 13)
	maximum = 0.027 (at node 1)
Injected flit rate average = 0.0202188
	minimum = 0.0135 (at node 7)
	maximum = 0.027 (at node 4)
Accepted flit rate average= 0.0199063
	minimum = 0.013 (at node 13)
	maximum = 0.027 (at node 1)
Injected packet length average = 1
Accepted packet length average = 1
Total in-flight flits = 10 (0 measured)
latency change    = 0.0139963
throughput change = 0.0204082
Class 0:
Packet latency average = 19.9744
	minimum = 7
	maximum = 38
Network latency average = 19.9744
	minimum = 7
	maximum = 38
Slowest packet = 13630
Flit latency average = 19.9744
	minimum = 7
	maximum = 38
Slowest flit = 13630
Fragmentation average = 0
	minimum = 0
	maximum = 0
Injected packet rate average = 0.019125
	minimum = 0.012 (at node 0)
	maximum = 0.027 (at node 2)
Accepted packet rate average = 0.0195
	minimum = 0.013 (at node 0)
	maximum = 0.026 (at node 8)
Injected flit rate average = 0.019125
	minimum = 0.012 (at node 0)
	maximum = 0.027 (at node 2)
Accepted flit rate average= 0.0195
	minimum = 0.013 (at node 0)
	maximum = 0.026 (at node 8)
Injected packet length average = 1
Accepted packet length average = 1
Total in-flight flits = 4 (0 measured)
latency change    = 0.0142779
throughput change = 0.0208333
Warmed up ...Time used is 3000 cycles
Class 0:
Packet latency average = 19.6765
	minimum = 7
	maximum = 41
Network latency average = 19.6765
	minimum = 7
	maximum = 41
Slowest packet = 13928
Flit latency average = 19.7064
	minimum = 7
	maximum = 41
Slowest flit = 13928
Fragmentation average = 0
	minimum = 0
	maximum = 0
Injected packet rate average = 0.0218125
	minimum = 0.015 (at node 7)
	maximum = 0.028 (at node 8)
Accepted packet rate average = 0.0215
	minimum = 0.015 (at node 13)
	maximum = 0.027 (at node 2)
Injected flit rate average = 0.0218125
	minimum = 0.015 (at node 7)
	maximum = 0.028 (at node 8)
Accepted flit rate average= 0.0215
	minimum = 0.015 (at node 13)
	maximum = 0.027 (at node 2)
Injected packet length average = 1
Accepted packet length average = 1
Total in-flight flits = 9 (9 measured)
latency change    = 0.0151393
throughput change = 0.0930233
Class 0:
Packet latency average = 19.5113
	minimum = 7
	maximum = 41
Network latency average = 19.5113
	minimum = 7
	maximum = 41
Slowest packet = 13928
Flit latency average = 19.5277
	minimum = 7
	maximum = 41
Slowest flit = 13928
Fragmentation average = 0
	minimum = 0
	maximum = 0
Injected packet rate average = 0.0209375
	minimum = 0.017 (at node 13)
	maximum = 0.0265 (at node 3)
Accepted packet rate average = 0.0208438
	minimum = 0.0165 (at node 7)
	maximum = 0.0255 (at node 12)
Injected flit rate average = 0.0209375
	minimum = 0.017 (at node 13)
	maximum = 0.0265 (at node 3)
Accepted flit rate average= 0.0208438
	minimum = 0.0165 (at node 7)
	maximum = 0.0255 (at node 12)
Injected packet length average = 1
Accepted packet length average = 1
Total in-flight flits = 7 (7 measured)
latency change    = 0.00846475
throughput change = 0.0314843
Class 0:
Packet latency average = 19.8465
	minimum = 7
	maximum = 41
Network latency average = 19.8465
	minimum = 7
	maximum = 41
Slowest packet = 13928
Flit latency average = 19.8563
	minimum = 7
	maximum = 41
Slowest flit = 13928
Fragmentation average = 0
	minimum = 0
	maximum = 0
Injected packet rate average = 0.020625
	minimum = 0.0173333 (at node 5)
	maximum = 0.026 (at node 3)
Accepted packet rate average = 0.0205833
	minimum = 0.0173333 (at node 5)
	maximum = 0.026 (at node 12)
Injected flit rate average = 0.020625
	minimum = 0.0173333 (at node 5)
	maximum = 0.026 (at node 3)
Accepted flit rate average= 0.0205833
	minimum = 0.0173333 (at node 5)
	maximum = 0.026 (at node 12)
Injected packet length average = 1
Accepted packet length average = 1
Total in-flight flits = 6 (6 measured)
latency change    = 0.0168912
throughput change = 0.0126518
Class 0:
Packet latency average = 19.9204
	minimum = 7
	maximum = 41
Network latency average = 19.9204
	minimum = 7
	maximum = 41
Slowest packet = 13928
Flit latency average = 19.9277
	minimum = 7
	maximum = 41
Slowest flit = 13928
Fragmentation average = 0
	minimum = 0
	maximum = 0
Injected packet rate average = 0.0201563
	minimum = 0.01725 (at node 5)
	maximum = 0.02525 (at node 3)
Accepted packet rate average = 0.0200938
	minimum = 0.01725 (at node 5)
	maximum = 0.02475 (at node 12)
Injected flit rate average = 0.0201563
	minimum = 0.01725 (at node 5)
	maximum = 0.02525 (at node 3)
Accepted flit rate average= 0.0200938
	minimum = 0.01725 (at node 5)
	maximum = 0.02475 (at node 12)
Injected packet length average = 1
Accepted packet length average = 1
Total in-flight flits = 8 (8 measured)
latency change    = 0.00370936
throughput change = 0.024365
Draining all recorded packets ...
Draining remaining packets ...
Time taken is 7048 cycles
Class 0:
Packet latency average = 20.164
	minimum = 7
	maximum = 41
Network latency average = 20.164
	minimum = 7
	maximum = 41
Slowest packet = 15117
Flit latency average = 20.164
	minimum = 7
	maximum = 41
Slowest flit = 15117
Fragmentation average = 0
	minimum = 0
	maximum = 0
Injected packet rate average = 0.0196875
	minimum = 0.012 (at node 6)
	maximum = 0.03 (at node 3)
Accepted packet rate average = 0.0194375
	minimum = 0.011 (at node 9)
	maximum = 0.029 (at node 12)
Injected flit rate average = 0.0196875
	minimum = 0.012 (at node 6)
	maximum = 0.03 (at node 3)
Accepted flit rate average= 0.0194375
	minimum = 0.011 (at node 9)
	maximum = 0.029 (at node 12)
Injected packet length average = 1
Accepted packet length average = 1
Total in-flight flits = 4 (0 measured)
latency change    = 1
throughput change = 1
Class 0:
Packet latency average = 19.6695
	minimum = 7
	maximum = 41
Network latency average = 19.6695
	minimum = 7
	maximum = 41
Slowest packet = 15117
Flit latency average = 19.6695
	minimum = 7
	maximum = 41
Slowest flit = 15117
Fragmentation average = 0
	minimum = 0
	maximum = 0
Injected packet rate average = 0.01875
	minimum = 0.0165 (at node 1)
	maximum = 0.0235 (at node 0)
Accepted packet rate average = 0.018625
	minimum = 0.016 (at node 4)
	maximum = 0.0235 (at node 0)
Injected flit rate average = 0.01875
	minimum = 0.0165 (at node 1)
	maximum = 0.0235 (at node 0)
Accepted flit rate average= 0.018625
	minimum = 0.016 (at node 4)
	maximum = 0.0235 (at node 0)
Injected packet length average = 1
Accepted packet length average = 1
Total in-flight flits = 4 (0 measured)
latency change    = 0.0251417
throughput change = 0.0436242
Class 0:
Packet latency average = 19.8437
	minimum = 7
	maximum = 44
Network latency average = 19.8437
	minimum = 7
	maximum = 44
Slowest packet = 15898
Flit latency average = 19.8437
	minimum = 7
	maximum = 44
Slowest flit = 15898
Fragmentation average = 0
	minimum = 0
	maximum = 0
Injected packet rate average = 0.02125
	minimum = 0.014 (at node 14)
	maximum = 0.033 (at node 4)
Accepted packet rate average = 0.0211875
	minimum = 0.014 (at node 9)
	maximum = 0.033 (at node 1)
Injected flit rate average = 0.02125
	minimum = 0.014 (at node 14)
	maximum = 0.033 (at node 4)
Accepted flit rate average= 0.0211875
	minimum = 0.014 (at node 9)
	maximum = 0.033 (at node 1)
Injected packet length average = 1
Accepted packet length average = 1
Total in-flight flits = 5 (0 measured)
latency change    = 0.00877836
throughput change = 0.120944
Warmed up ...Time used is 3000 cycles
Class 0:
Packet latency average = 19.5732
	minimum = 7
	maximum = 40
Network latency average = 19.5732
	minimum = 7
	maximum = 40
Slowest packet = 16283
Flit latency average = 19.5946
	minimum = 7
	maximum = 40
Slowest flit = 16283
Fragmentation average = 0
	minimum = 0
	maximum = 0
Injected packet rate average = 0.0209375
	minimum = 0.015 (at node 5)
	maximum = 0.028 (at node 11)
Accepted packet rate average = 0.0208125
	minimum = 0.014 (at node 5)
	maximum = 0.028 (at node 14)
Injected flit rate average = 0.0209375
	minimum = 0.015 (at node 5)
	maximum = 0.028 (at node 11)
Accepted flit rate average= 0.0208125
	minimum = 0.014 (at node 5)
	maximum = 0.028 (at node 14)
Injected packet length average = 1
Accepted packet length average = 1
Total in-flight flits = 7 (7 measured)
latency change    = 0.0138193
throughput change = 0.018018
Class 0:
Packet latency average = 19.3563
	minimum = 7
	maximum = 40
Network latency average = 19.3563
	minimum = 7
	maximum = 40
Slowest packet = 16283
Flit latency average = 19.3685
	minimum = 7
	maximum = 40
Slowest flit = 16283
Fragmentation average = 0
	minimum = 0
	maximum = 0
Injected packet rate average = 0.021125
	minimum = 0.015 (at node 12)
	maximum = 0.0255 (at node 6)
Accepted packet rate average = 0.0210313
	minimum = 0.0135 (at node 3)
	maximum = 0.0255 (at node 9)
Injected flit rate average = 0.021125
	minimum = 0.015 (at node 12)
	maximum = 0.0255 (at node 6)
Accepted flit rate average= 0.0210313
	minimum = 0.0135 (at node 3)
	maximum = 0.0255 (at node 9)
Injected packet length average = 1
Accepted packet length average = 1
Total in-flight flits = 8 (8 measured)
latency change    = 0.0112048
throughput change = 0.0104012
Class 0:
Packet latency average = 19.3242
	minimum = 7
	maximum = 40
Network latency average = 19.3242
	minimum = 7
	maximum = 40
Slowest packet = 16283
Flit latency average = 19.3327
	minimum = 7
	maximum = 40
Slowest flit = 16283
Fragmentation average = 0
	minimum = 0
	maximum = 0
Injected packet rate average = 0.0206458
	minimum = 0.0166667 (at node 11)
	maximum = 0.025 (at node 6)
Accepted packet rate average = 0.0206042
	minimum = 0.0166667 (at node 14)
	maximum = 0.0253333 (at node 9)
Injected flit rate average = 0.0206458
	minimum = 0.0166667 (at node 11)
	maximum = 0.025 (at node 6)
Accepted flit rate average= 0.0206042
	minimum = 0.0166667 (at node 14)
	maximum = 0.0253333 (at node 9)
Injected packet length average = 1
Accepted packet length average = 1
Total in-flight flits = 7 (7 measured)
latency change    = 0.00166115
throughput change = 0.020728
Draining all recorded packets ...
Draining remaining packets ...
Time taken is 6045 cycles
Class 0:
Packet latency average = 20.2829
	minimum = 7
	maximum = 39
Network latency average = 20.2829
	minimum = 7
	maximum = 39
Slowest packet = 17070
Flit latency average = 20.2829
	minimum = 7
	maximum = 39
Slowest flit = 17070
Fragmentation average = 0
	minimum = 0
	maximum = 0
Injected packet rate average = 0.0195
	minimum = 0.011 (at node 10)
	maximum = 0.03 (at node 12)
Accepted packet rate average = 0.019
	minimum = 0.01 (at node 10)
	maximum = 0.03 (at node 3)
Injected flit rate average = 0.0195
	minimum = 0.011 (at node 10)
	maximum = 0.03 (at node 12)
Accepted flit rate average= 0.019
	minimum = 0.01 (at node 10)
	maximum = 0.03 (at node 3)
Injected packet length average = 1
Accepted packet length average = 1
Total in-flight flits = 8 (0 measured)
latency change    = 1
throughput change = 1
Class 0:
Packet latency average = 20.0743
	minimum = 7
	maximum = 42
Network latency average = 20.0743
	minimum = 7
	maximum = 42
Slowest packet = 17332
Flit latency average = 20.0743
	minimum = 7
	maximum = 42
Slowest flit = 17332
Fragmentation average = 0
	minimum = 0
	maximum = 0
Injected packet rate average = 0.0194687
	minimum = 0.013 (at node 10)
	maximum = 0.024 (at node 12)
Accepted packet rate average = 0.0193437
	minimum = 0.013 (at node 10)
	maximum = 0.024 (at node 3)
Injected flit rate average = 0.0194687
	minimum = 0.013 (at node 10)
	maximum = 0.024 (at node 12)
Accepted flit rate average= 0.0193437
	minimum = 0.013 (at node 10)
	maximum = 0.024 (at node 3)
Injected packet length average = 1
Accepted packet length average = 1
Total in-flight flits = 4 (0 measured)
latency change    = 0.0103905
throughput change = 0.0177706
Class 0:
Packet latency average = 20.632
	minimum = 7
	maximum = 42
Network latency average = 20.632
	minimum = 7
	maximum = 42
Slowest packet = 17920
Flit latency average = 20.632
	minimum = 7
	maximum = 42
Slowest flit = 17920
Fragmentation average = 0
	minimum = 0
	maximum = 0
Injected packet rate average = 0.02125
	minimum = 0.013 (at node 6)
	maximum = 0.031 (at node 13)
Accepted packet rate average = 0.0210625
	minimum = 0.013 (at node 9)
	maximum = 0.031 (at node 7)
Injected flit rate average = 0.02125
	minimum = 0.013 (at node 6)
	maximum = 0.031 (at node 13)
Accepted flit rate average= 0.0210625
	minimum = 0.013 (at node 9)
	maximum = 0.031 (at node 7)
Injected packet length average = 1
Accepted packet length average = 1
Total in-flight flits = 7 (0 measured)
latency change    = 0.0270324
throughput change = 0.0816024
Warmed up ...Time used is 3000 cycles
Class 0:
Packet latency average = 19.2331
	minimum = 7
	maximum = 40
Network latency average = 19.2331
	minimum = 7
	maximum = 40
Slowest packet = 18177
Flit latency average = 19.3964
	minimum = 7
	maximum = 40
Slowest flit = 18177
Fragmentation average = 0
	minimum = 0
	maximum = 0
Injected packet rate average = 0.0206875
	minimum = 0.015 (at node 14)
	maximum = 0.026 (at node 6)
Accepted packet rate average = 0.0208125
	minimum = 0.015 (at node 11)
	maximum = 0.026 (at node 7)
Injected flit rate average = 0.0206875
	minimum = 0.015 (at node 14)
	maximum = 0.026 (at node 6)
Accepted flit rate average= 0.0208125
	minimum = 0.015 (at node 11)
	maximum = 0.026 (at node 7)
Injected packet length average = 1
Accepted packet length average = 1
Total in-flight flits = 5 (5 measured)
latency change    = 0.0727348
throughput change = 0.012012
Class 0:
Packet latency average = 19.6735
	minimum = 7
	maximum = 42
Network latency average = 19.6735
	minimum = 7
	maximum = 42
Slowest packet = 18525
Flit latency average = 19.7531
	minimum = 7
	maximum = 42
Slowest flit = 18525
Fragmentation average = 0
	minimum = 0
	maximum = 0
Injected packet rate average = 0.0200313
	minimum = 0.016 (at node 14)
	maximum = 0.024 (at node 3)
Accepted packet rate average = 0.020125
	minimum = 0.016 (at node 11)
	maximum = 0.0245 (at node 12)
Injected flit rate average = 0.0200313
	minimum = 0.016 (at node 14)
	maximum = 0.024 (at node 3)
Accepted flit rate average= 0.020125
	minimum = 0.016 (at node 11)
	maximum = 0.0245 (at node 12)
Injected packet length average = 1
Accepted packet length average = 1
Total in-flight flits = 4 (4 measured)
latency change    = 0.0223825
throughput change = 0.0341615
Class 0:
Packet latency average = 19.8019
	minimum = 7
	maximum = 42
Network latency average = 19.8019
	minimum = 7
	maximum = 42
Slowest packet = 18525
Flit latency average = 19.8538
	minimum = 7
	maximum = 42
Slowest flit = 18525
Fragmentation average = 0
	minimum = 0
	maximum = 0
Injected packet rate average = 0.0202292
	minimum = 0.0163333 (at node 14)
	maximum = 0.0236667 (at node 7)
Accepted packet rate average = 0.0202292
	minimum = 0.016 (at node 11)
	maximum = 0.0233333 (at node 9)
Injected flit rate average = 0.0202292
	minimum = 0.0163333 (at node 14)
	maximum = 0.0236667 (at node 7)
Accepted flit rate average= 0.0202292
	minimum = 0.016 (at node 11)
	maximum = 0.0233333 (at node 9)
Injected packet length average = 1
Accepted packet length average = 1
Total in-flight flits = 7 (7 measured)
latency change    = 0.00648413
throughput change = 0.00514933
Class 0:
Packet latency average = 19.7556
	minimum = 7
	maximum = 42
Network latency average = 19.7556
	minimum = 7
	maximum = 42
Slowest packet = 18525
Flit latency average = 19.796
	minimum = 7
	maximum = 42
Slowest flit = 18525
Fragmentation average = 0
	minimum = 0
	maximum = 0
Injected packet rate average = 0.0196094
	minimum = 0.0155 (at node 14)
	maximum = 0.02225 (at node 3)
Accepted packet rate average = 0.0196094
	minimum = 0.0155 (at node 11)
	maximum = 0.0225 (at node 12)
Injected flit rate average = 0.0196094
	minimum = 0.0155 (at node 14)
	maximum = 0.02225 (at node 3)
Accepted flit rate average= 0.0196094
	minimum = 0.0155 (at node 11)
	maximum = 0.0225 (at node 12)
Injected packet length average = 1
Accepted packet length average = 1
Total in-flight flits = 7 (7 measured)
latency change    = 0.00234152
throughput change = 0.0316069
Draining all recorded packets ...
Draining remaining packets ...
Time taken is 7068 cycles
Class 0:
Packet latency average = 19.7405
	minimum = 7
	maximum = 50
Network latency average = 19.7405
	minimum = 7
	maximum = 50
Slowest packet = 19410
Flit latency average = 19.7405
	minimum = 7
	maximum = 50
Slowest flit = 19410
Fragmentation average = 0
	minimum = 0
	maximum = 0
Injected packet rate average = 0.021625
	minimum = 0.015 (at node 6)
	maximum = 0.029 (at node 4)
Accepted packet rate average = 0.0214375
	minimum = 0.015 (at node 9)
	maximum = 0.029 (at node 1)
Injected flit rate average = 0.021625
	minimum = 0.015 (at node 6)
	maximum = 0.029 (at node 4)
Accepted flit rate average= 0.0214375
	minimum = 0.015 (at node 9)
	maximum = 0.029 (at node 1)
Injected packet length average = 1
Accepted packet length average = 1
Total in-flight flits = 3 (0 measured)
latency change    = 1
throughput change = 1
Class 0:
Packet latency average = 19.4234
	minimum = 7
	maximum = 50
Network latency average = 19.4234
	minimum = 7
	maximum = 50
Slowest packet = 19410
Flit latency average = 19.4234
	minimum = 7
	maximum = 50
Slowest flit = 19410
Fragmentation average = 0
	minimum = 0
	maximum = 0
Injected packet rate average = 0.0200938
	minimum = 0.015 (at node 13)
	maximum = 0.0255 (at node 4)
Accepted packet rate average = 0.02
	minimum = 0.0145 (at node 7)
	maximum = 0.0255 (at node 1)
Injected flit rate average = 0.0200938
	minimum = 0.015 (at node 13)
	maximum = 0.0255 (at node 4)
Accepted flit rate average= 0.02
	minimum = 0.0145 (at node 7)
	maximum = 0.0255 (at node 1)
Injected packet length average = 1
Accepted packet length average = 1
Total in-flight flits = 3 (0 measured)
latency change    = 0.016325
throughput change = 0.071875
Class 0:
Packet latency average = 19.5969
	minimum = 7
	maximum = 37
Network latency average = 19.5969
	minimum = 7
	maximum = 37
Slowest packet = 19898
Flit latency average = 19.5969
	minimum = 7
	maximum = 37
Slowest flit = 19898
Fragmentation average = 0
	minimum = 0
	maximum = 0
Injected packet rate average = 0.0209375
	minimum = 0.015 (at node 9)
	maximum = 0.028 (at node 2)
Accepted packet rate average = 0.0203125
	minimum = 0.014 (at node 6)
	maximum = 0.028 (at node 8)
Injected flit rate average = 0.0209375
	minimum = 0.015 (at node 9)
	maximum = 0.028 (at node 2)
Accepted flit rate average= 0.0203125
	minimum = 0.014 (at node 6)
	maximum = 0.028 (at node 8)
Injected packet length average = 1
Accepted packet length average = 1
Total in-flight flits = 13 (0 measured)
latency change    = 0.00885269
throughput change = 0.0153846
Warmed up ...Time used is 3000 cycles
Class 0:
Packet latency average = 19.2384
	minimum = 7
	maximum = 42
Network latency average = 19.2384
	minimum = 7
	maximum = 42
Slowest packet = 20335
Flit latency average = 19.3365
	minimum = 7
	maximum = 42
Slowest flit = 20335
Fragmentation average = 0
	minimum = 0
	maximum = 0
Injected packet rate average = 0.01925
	minimum = 0.012 (at node 0)
	maximum = 0.024 (at node 4)
Accepted packet rate average = 0.0196875
	minimum = 0.014 (at node 0)
	maximum = 0.024 (at node 1)
Injected flit rate average = 0.01925
	minimum = 0.012 (at node 0)
	maximum = 0.024 (at node 4)
Accepted flit rate average= 0.0196875
	minimum = 0.014 (at node 0)
	maximum = 0.024 (at node 1)
Injected packet length average = 1
Accepted packet length average = 1
Total in-flight flits = 6 (6 measured)
latency change    = 0.0186352
throughput change = 0.031746
Class 0:
Packet latency average = 19.6006
	minimum = 7
	maximum = 42
Network latency average = 19.6006
	minimum = 7
	maximum = 42
Slowest packet = 20335
Flit latency average = 19.642
	minimum = 7
	maximum = 42
Slowest flit = 20335
Fragmentation average = 0
	minimum = 0
	maximum = 0
Injected packet rate average = 0.0196875
	minimum = 0.0155 (at node 0)
	maximum = 0.027 (at node 6)
Accepted packet rate average = 0.0198125
	minimum = 0.0165 (at node 0)
	maximum = 0.0265 (at node 9)
Injected flit rate average = 0.0196875
	minimum = 0.0155 (at node 0)
	maximum = 0.027 (at node 6)
Accepted flit rate average= 0.0198125
	minimum = 0.0165 (at node 0)
	maximum = 0.0265 (at node 9)
Injected packet length average = 1
Accepted packet length average = 1
Total in-flight flits = 9 (9 measured)
latency change    = 0.0184807
throughput change = 0.00630915
Class 0:
Packet latency average = 19.8949
	minimum = 7
	maximum = 43
Network latency average = 19.8949
	minimum = 7
	maximum = 43
Slowest packet = 20840
Flit latency average = 19.9179
	minimum = 7
	maximum = 43
Slowest flit = 20840
Fragmentation average = 0
	minimum = 0
	maximum = 0
Injected packet rate average = 0.0201042
	minimum = 0.0166667 (at node 0)
	maximum = 0.0266667 (at node 12)
Accepted packet rate average = 0.0202917
	minimum = 0.017 (at node 0)
	maximum = 0.0273333 (at node 3)
Injected flit rate average = 0.0201042
	minimum = 0.0166667 (at node 0)
	maximum = 0.0266667 (at node 12)
Accepted flit rate average= 0.0202917
	minimum = 0.017 (at node 0)
	maximum = 0.0273333 (at node 3)
Injected packet length average = 1
Accepted packet length average = 1
Total in-flight flits = 4 (4 measured)
latency change    = 0.0147906
throughput change = 0.023614
Draining all recorded packets ...
Draining remaining packets ...
Time taken is 6060 cycles
Class 0:
Packet latency average = 19.3221
	minimum = 7
	maximum = 37
Network latency average = 19.3221
	minimum = 7
	maximum = 37
Slowest packet = 21210
Flit latency average = 19.3221
	minimum = 7
	maximum = 37
Slowest flit = 21210
Fragmentation average = 0
	minimum = 0
	maximum = 0
Injected packet rate average = 0.01925
	minimum = 0.011 (at node 10)
	maximum = 0.024 (at node 6)
Accepted packet rate average = 0.018625
	minimum = 0.011 (at node 10)
	maximum = 0.024 (at node 9)
Injected flit rate average = 0.01925
	minimum = 0.011 (at node 10)
	maximum = 0.024 (at node 6)
Accepted flit rate average= 0.018625
	minimum = 0.011 (at node 10)
	maximum = 0.024 (at node 9)
Injected packet length average = 1
Accepted packet length average = 1
Total in-flight flits = 10 (0 measured)
latency change    = 1
throughput change = 1
Class 0:
Packet latency average = 19.7918
	minimum = 7
	maximum = 43
Network latency average = 19.7918
	minimum = 7
	maximum = 43
Slowest packet = 21609
Flit latency average = 19.7918
	minimum = 7
	maximum = 43
Slowest flit = 21609
Fragmentation average = 0
	minimum = 0
	maximum = 0
Injected packet rate average = 0.0193437
	minimum = 0.012 (at node 10)
	maximum = 0.0255 (at node 8)
Accepted packet rate average = 0.0190625
	minimum = 0.012 (at node 10)
	maximum = 0.0245 (at node 2)
Injected flit rate average = 0.0193437
	minimum = 0.012 (at node 10)
	maximum = 0.0255 (at node 8)
Accepted flit rate average= 0.0190625
	minimum = 0.012 (at node 10)
	maximum = 0.0245 (at node 2)
Injected packet length average = 1
Accepted packet length average = 1
Total in-flight flits = 9 (0 measured)
latency change    = 0.0237298
throughput change = 0.0229508
Class 0:
Packet latency average = 19.3012
	minimum = 7
	maximum = 38
Network latency average = 19.3012
	minimum = 7
	maximum = 38
Slowest packet = 22019
Flit latency average = 19.3012
	minimum = 7
	maximum = 38
Slowest flit = 22019
Fragmentation average = 0
	minimum = 0
	maximum = 0
Injected packet rate average = 0.0205625
	minimum = 0.011 (at node 8)
	maximum = 0.027 (at node 4)
Accepted packet rate average = 0.02075
	minimum = 0.012 (at node 2)
	maximum = 0.028 (at node 1)
Injected flit rate average = 0.0205625
	minimum = 0.011 (at node 8)
	maximum = 0.027 (at node 4)
Accepted flit rate average= 0.02075
	minimum = 0.012 (at node 2)
	maximum = 0.028 (at node 1)
Injected packet length average = 1
Accepted packet length average = 1
Total in-flight flits = 6 (0 measured)
latency change    = 0.025418
throughput change = 0.0813253
Warmed up ...Time used is 3000 cycles
Class 0:
Packet latency average = 20.1484
	minimum = 7
	maximum = 47
Network latency average = 20.1484
	minimum = 7
	maximum = 47
Slowest packet = 22394
Flit latency average = 20.1808
	minimum = 7
	maximum = 47
Slowest flit = 22394
Fragmentation average = 0
	minimum = 0
	maximum = 0
Injected packet rate average = 0.0215
	minimum = 0.015 (at node 1)
	maximum = 0.031 (at node 4)
Accepted packet rate average = 0.0214375
	minimum = 0.016 (at node 4)
	maximum = 0.03 (at node 1)
Injected flit rate average = 0.0215
	minimum = 0.015 (at node 1)
	maximum = 0.031 (at node 4)
Accepted flit rate average= 0.0214375
	minimum = 0.016 (at node 4)
	maximum = 0.03 (at node 1)
Injected packet length average = 1
Accepted packet length average = 1
Total in-flight flits = 7 (7 measured)
latency change    = 0.0420462
throughput change = 0.03207
Class 0:
Packet latency average = 19.8383
	minimum = 7
	maximum = 47
Network latency average = 19.8383
	minimum = 7
	maximum = 47
Slowest packet = 22394
Flit latency average = 19.8582
	minimum = 7
	maximum = 47
Slowest flit = 22394
Fragmentation average = 0
	minimum = 0
	maximum = 0
Injected packet rate average = 0.0202188
	minimum = 0.017 (at node 8)
	maximum = 0.0265 (at node 4)
Accepted packet rate average = 0.0202813
	minimum = 0.017 (at node 15)
	maximum = 0.0265 (at node 1)
Injected flit rate average = 0.0202188
	minimum = 0.017 (at node 8)
	maximum = 0.0265 (at node 4)
Accepted flit rate average= 0.0202813
	minimum = 0.017 (at node 15)
	maximum = 0.0265 (at node 1)
Injected packet length average = 1
Accepted packet length average = 1
Total in-flight flits = 4 (4 measured)
latency change    = 0.0156319
throughput change = 0.0570108
Class 0:
Packet latency average = 19.8999
	minimum = 7
	maximum = 47
Network latency average = 19.8999
	minimum = 7
	maximum = 47
Slowest packet = 22394
Flit latency average = 19.9131
	minimum = 7
	maximum = 47
Slowest flit = 22394
Fragmentation average = 0
	minimum = 0
	maximum = 0
Injected packet rate average = 0.0199167
	minimum = 0.0166667 (at node 1)
	maximum = 0.025 (at node 3)
Accepted packet rate average = 0.0198958
	minimum = 0.017 (at node 4)
	maximum = 0.025 (at node 12)
Injected flit rate average = 0.0199167
	minimum = 0.0166667 (at node 1)
	maximum = 0.025 (at node 3)
Accepted flit rate average= 0.0198958
	minimum = 0.017 (at node 4)
	maximum = 0.025 (at node 12)
Injected packet length average = 1
Accepted packet length average = 1
Total in-flight flits = 7 (7 measured)
latency change    = 0.00309733
throughput change = 0.0193717
Class 0:
Packet latency average = 19.8761
	minimum = 7
	maximum = 47
Network latency average = 19.8761
	minimum = 7
	maximum = 47
Slowest packet = 22394
Flit latency average = 19.8861
	minimum = 7
	maximum = 47
Slowest flit = 22394
Fragmentation average = 0
	minimum = 0
	maximum = 0
Injected packet rate average = 0.0199531
	minimum = 0.017 (at node 1)
	maximum = 0.025 (at node 3)
Accepted packet rate average = 0.0198906
	minimum = 0.017 (at node 4)
	maximum = 0.025 (at node 12)
Injected flit rate average = 0.0199531
	minimum = 0.017 (at node 1)
	maximum = 0.025 (at node 3)
Accepted flit rate average= 0.0198906
	minimum = 0.017 (at node 4)
	maximum = 0.025 (at node 12)
Injected packet length average = 1
Accepted packet length average = 1
Total in-flight flits = 10 (10 measured)
latency change    = 0.00119789
throughput change = 0.000261849
Class 0:
Packet latency average = 19.8671
	minimum = 7
	maximum = 47
Network latency average = 19.8671
	minimum = 7
	maximum = 47
Slowest packet = 22394
Flit latency average = 19.8752
	minimum = 7
	maximum = 47
Slowest flit = 22394
Fragmentation average = 0
	minimum = 0
	maximum = 0
Injected packet rate average = 0.0198125
	minimum = 0.0178 (at node 1)
	maximum = 0.0238 (at node 3)
Accepted packet rate average = 0.0197375
	minimum = 0.0174 (at node 13)
	maximum = 0.0236 (at node 12)
Injected flit rate average = 0.0198125
	minimum = 0.0178 (at node 1)
	maximum = 0.0238 (at node 3)
Accepted flit rate average= 0.0197375
	minimum = 0.0174 (at node 13)
	maximum = 0.0236 (at node 12)
Injected packet length average = 1
Accepted packet length average = 1
Total in-flight flits = 12 (12 measured)
latency change    = 0.000450612
throughput change = 0.00775807
Draining all recorded packets ...
Draining remaining packets ...
Time taken is 8063 cycles
Class 0:
Packet latency average = 20.231
	minimum = 7
	maximum = 45
Network latency average = 20.231
	minimum = 7
	maximum = 45
Slowest packet = 23937
Flit latency average = 20.231
	minimum = 7
	maximum = 45
Slowest flit = 23937
Fragmentation average = 0
	minimum = 0
	maximum = 0
Injected packet rate average = 0.021125
	minimum = 0.016 (at node 1)
	maximum = 0.033 (at node 12)
Accepted packet rate average = 0.0205625
	minimum = 0.015 (at node 11)
	maximum = 0.033 (at node 3)
Injected flit rate average = 0.021125
	minimum = 0.016 (at node 1)
	maximum = 0.033 (at node 12)
Accepted flit rate average= 0.0205625
	minimum = 0.015 (at node 11)
	maximum = 0.033 (at node 3)
Injected packet length average = 1
Accepted packet length average = 1
Total in-flight flits = 9 (0 measured)
latency change    = 1
throughput change = 1
Class 0:
Packet latency average = 19.7116
	minimum = 7
	maximum = 45
Network latency average = 19.7116
	minimum = 7
	maximum = 45
Slowest packet = 23937
Flit latency average = 19.7116
	minimum = 7
	maximum = 45
Slowest flit = 23937
Fragmentation average = 0
	minimum = 0
	maximum = 0
Injected packet rate average = 0.0200625
	minimum = 0.0145 (at node 14)
	maximum = 0.026 (at node 12)
Accepted packet rate average = 0.0199375
	minimum = 0.0145 (at node 11)
	maximum = 0.0255 (at node 3)
Injected flit rate average = 0.0200625
	minimum = 0.0145 (at node 14)
	maximum = 0.026 (at node 12)
Accepted flit rate average= 0.0199375
	minimum = 0.0145 (at node 11)
	maximum = 0.0255 (at node 3)
Injected packet length average = 1
Accepted packet length average = 1
Total in-flight flits = 4 (0 measured)
latency change    = 0.0263502
throughput change = 0.031348
Class 0:
Packet latency average = 19.3533
	minimum = 7
	maximum = 41
Network latency average = 19.3533
	minimum = 7
	maximum = 41
Slowest packet = 24598
Flit latency average = 19.3533
	minimum = 7
	maximum = 41
Slowest flit = 24598
Fragmentation average = 0
	minimum = 0
	maximum = 0
Injected packet rate average = 0.0210625
	minimum = 0.012 (at node 13)
	maximum = 0.027 (at node 10)
Accepted packet rate average = 0.020875
	minimum = 0.012 (at node 7)
	maximum = 0.027 (at node 3)
Injected flit rate average = 0.0210625
	minimum = 0.012 (at node 13)
	maximum = 0.027 (at node 10)
Accepted flit rate average= 0.020875
	minimum = 0.012 (at node 7)
	maximum = 0.027 (at node 3)
Injected packet length average = 1
Accepted packet length average = 1
Total in-flight flits = 7 (0 measured)
latency change    = 0.0185139
throughput change = 0.0449102
Warmed up ...Time used is 3000 cycles
Class 0:
Packet latency average = 19.3168
	minimum = 7
	maximum = 39
Network latency average = 19.3168
	minimum = 7
	maximum = 39
Slowest packet = 24802
Flit latency average = 19.3891
	minimum = 7
	maximum = 39
Slowest flit = 24802
Fragmentation average = 0
	minimum = 0
	maximum = 0
Injected packet rate average = 0.020625
	minimum = 0.015 (at node 7)
	maximum = 0.026 (at node 2)
Accepted packet rate average = 0.0205625
	minimum = 0.016 (at node 13)
	maximum = 0.026 (at node 14)
Injected flit rate average = 0.020625
	minimum = 0.015 (at node 7)
	maximum = 0.026 (at node 2)
Accepted flit rate average= 0.0205625
	minimum = 0.016 (at node 13)
	maximum = 0.026 (at node 14)
Injected packet length average = 1
Accepted packet length average = 1
Total in-flight flits = 8 (8 measured)
latency change    = 0.00189075
throughput change = 0.0151976
Class 0:
Packet latency average = 19.5728
	minimum = 7
	maximum = 39
Network latency average = 19.5728
	minimum = 7
	maximum = 39
Slowest packet = 24802
Flit latency average = 19.6072
	minimum = 7
	maximum = 39
Slowest flit = 24802
Fragmentation average = 0
	minimum = 0
	maximum = 0
Injected packet rate average = 0.02
	minimum = 0.0145 (at node 7)
	maximum = 0.024 (at node 12)
Accepted packet rate average = 0.0199688
	minimum = 0.015 (at node 13)
	maximum = 0.0235 (at node 2)
Injected flit rate average = 0.02
	minimum = 0.0145 (at node 7)
	maximum = 0.024 (at node 12)
Accepted flit rate average= 0.0199688
	minimum = 0.015 (at node 13)
	maximum = 0.0235 (at node 2)
Injected packet length average = 1
Accepted packet length average = 1
Total in-flight flits = 8 (8 measured)
latency change    = 0.0130801
throughput change = 0.029734
Class 0:
Packet latency average = 19.8159
	minimum = 7
	maximum = 39
Network latency average = 19.8159
	minimum = 7
	maximum = 39
Slowest packet = 24802
Flit latency average = 19.8376
	minimum = 7
	maximum = 39
Slowest flit = 24802
Fragmentation average = 0
	minimum = 0
	maximum = 0
Injected packet rate average = 0.0194167
	minimum = 0.017 (at node 3)
	maximum = 0.0233333 (at node 12)
Accepted packet rate average = 0.0195
	minimum = 0.017 (at node 5)
	maximum = 0.0236667 (at node 3)
Injected flit rate average = 0.0194167
	minimum = 0.017 (at node 3)
	maximum = 0.0233333 (at node 12)
Accepted flit rate average= 0.0195
	minimum = 0.017 (at node 5)
	maximum = 0.0236667 (at node 3)
Injected packet length average = 1
Accepted packet length average = 1
Total in-flight flits = 3 (3 measured)
latency change    = 0.0122702
throughput change = 0.0240385
Draining all recorded packets ...
Draining remaining packets ...
Time taken is 6033 cycles
Class 0:
Packet latency average = 20.3312
	minimum = 7
	maximum = 43
Network latency average = 20.3312
	minimum = 7
	maximum = 43
Slowest packet = 25821
Flit latency average = 20.3312
	minimum = 7
	maximum = 43
Slowest flit = 25821
Fragmentation average = 0
	minimum = 0
	maximum = 0
Injected packet rate average = 0.02
	minimum = 0.013 (at node 5)
	maximum = 0.027 (at node 7)
Accepted packet rate average = 0.019625
	minimum = 0.013 (at node 5)
	maximum = 0.026 (at node 2)
Injected flit rate average = 0.02
	minimum = 0.013 (at node 5)
	maximum = 0.027 (at node 7)
Accepted flit rate average= 0.019625
	minimum = 0.013 (at node 5)
	maximum = 0.026 (at node 2)
Injected packet length average = 1
Accepted packet length average = 1
Total in-flight flits = 6 (0 measured)
latency change    = 1
throughput change = 1
Class 0:
Packet latency average = 20.0065
	minimum = 7
	maximum = 43
Network latency average = 20.0065
	minimum = 7
	maximum = 43
Slowest packet = 25821
Flit latency average = 20.0065
	minimum = 7
	maximum = 43
Slowest flit = 25821
Fragmentation average = 0
	minimum = 0
	maximum = 0
Injected packet rate average = 0.0196875
	minimum = 0.012 (at node 10)
	maximum = 0.0245 (at node 8)
Accepted packet rate average = 0.019375
	minimum = 0.012 (at node 10)
	maximum = 0.024 (at node 2)
Injected flit rate average = 0.0196875
	minimum = 0.012 (at node 10)
	maximum = 0.0245 (at node 8)
Accepted flit rate average= 0.019375
	minimum = 0.012 (at node 10)
	maximum = 0.024 (at node 2)
Injected packet length average = 1
Accepted packet length average = 1
Total in-flight flits = 10 (0 measured)
latency change    = 0.0162327
throughput change = 0.0129032
Class 0:
Packet latency average = 19.8758
	minimum = 7
	maximum = 40
Network latency average = 19.8758
	minimum = 7
	maximum = 40
Slowest packet = 26545
Flit latency average = 19.8758
	minimum = 7
	maximum = 40
Slowest flit = 26545
Fragmentation average = 0
	minimum = 0
	maximum = 0
Injected packet rate average = 0.020125
	minimum = 0.009 (at node 5)
	maximum = 0.029 (at node 6)
Accepted packet rate average = 0.020125
	minimum = 0.009 (at node 5)
	maximum = 0.03 (at node 9)
Injected flit rate average = 0.020125
	minimum = 0.009 (at node 5)
	maximum = 0.029 (at node 6)
Accepted flit rate average= 0.020125
	minimum = 0.009 (at node 5)
	maximum = 0.03 (at node 9)
Injected packet length average = 1
Accepted packet length average = 1
Total in-flight flits = 10 (0 measured)
latency change    = 0.0065746
throughput change = 0.0372671
Warmed up ...Time used is 3000 cycles
Class 0:
Packet latency average = 18.7883
	minimum = 7
	maximum = 37
Network latency average = 18.7883
	minimum = 7
	maximum = 37
Slowest packet = 26615
Flit latency average = 18.858
	minimum = 7
	maximum = 37
Slowest flit = 26603
Fragmentation average = 0
	minimum = 0
	maximum = 0
Injected packet rate average = 0.0194375
	minimum = 0.011 (at node 6)
	maximum = 0.029 (at node 4)
Accepted packet rate average = 0.0198125
	minimum = 0.011 (at node 9)
	maximum = 0.029 (at node 1)
Injected flit rate average = 0.0194375
	minimum = 0.011 (at node 6)
	maximum = 0.029 (at node 4)
Accepted flit rate average= 0.0198125
	minimum = 0.011 (at node 9)
	maximum = 0.029 (at node 1)
Injected packet length average = 1
Accepted packet length average = 1
Total in-flight flits = 4 (4 measured)
latency change    = 0.057882
throughput change = 0.0157729
Class 0:
Packet latency average = 18.8421
	minimum = 7
	maximum = 41
Network latency average = 18.8421
	minimum = 7
	maximum = 41
Slowest packet = 27158
Flit latency average = 18.875
	minimum = 7
	maximum = 41
Slowest flit = 27158
Fragmentation average = 0
	minimum = 0
	maximum = 0
Injected packet rate average = 0.0204063
	minimum = 0.0175 (at node 2)
	maximum = 0.0285 (at node 1)
Accepted packet rate average = 0.0205
	minimum = 0.0165 (at node 7)
	maximum = 0.029 (at node 4)
Injected flit rate average = 0.0204063
	minimum = 0.0175 (at node 2)
	maximum = 0.0285 (at node 1)
Accepted flit rate average= 0.0205
	minimum = 0.0165 (at node 7)
	maximum = 0.029 (at node 4)
Injected packet length average = 1
Accepted packet length average = 1
Total in-flight flits = 7 (7 measured)
latency change    = 0.00285699
throughput change = 0.0335366
Class 0:
Packet latency average = 19.1688
	minimum = 7
	maximum = 41
Network latency average = 19.1688
	minimum = 7
	maximum = 41
Slowest packet = 27158
Flit latency average = 19.1879
	minimum = 7
	maximum = 41
Slowest flit = 27158
Fragmentation average = 0
	minimum = 0
	maximum = 0
Injected packet rate average = 0.0198333
	minimum = 0.016 (at node 2)
	maximum = 0.0236667 (at node 1)
Accepted packet rate average = 0.0199583
	minimum = 0.016 (at node 8)
	maximum = 0.0243333 (at node 4)
Injected flit rate average = 0.0198333
	minimum = 0.016 (at node 2)
	maximum = 0.0236667 (at node 1)
Accepted flit rate average= 0.0199583
	minimum = 0.016 (at node 8)
	maximum = 0.0243333 (at node 4)
Injected packet length average = 1
Accepted packet length average = 1
Total in-flight flits = 4 (4 measured)
latency change    = 0.0170418
throughput change = 0.0271399
Class 0:
Packet latency average = 19.2616
	minimum = 7
	maximum = 43
Network latency average = 19.2616
	minimum = 7
	maximum = 43
Slowest packet = 27783
Flit latency average = 19.2752
	minimum = 7
	maximum = 43
Slowest flit = 27783
Fragmentation average = 0
	minimum = 0
	maximum = 0
Injected packet rate average = 0.0198906
	minimum = 0.01675 (at node 2)
	maximum = 0.02325 (at node 1)
Accepted packet rate average = 0.0199844
	minimum = 0.01675 (at node 8)
	maximum = 0.02375 (at node 4)
Injected flit rate average = 0.0198906
	minimum = 0.01675 (at node 2)
	maximum = 0.02325 (at node 1)
Accepted flit rate average= 0.0199844
	minimum = 0.01675 (at node 8)
	maximum = 0.02375 (at node 4)
Injected packet length average = 1
Accepted packet length average = 1
Total in-flight flits = 4 (4 measured)
latency change    = 0.00482031
throughput change = 0.0013031
Draining all recorded packets ...
Draining remaining packets ...
Time taken is 7051 cycles
Class 0:
Packet latency average = 19.5894
	minimum = 7
	maximum = 38
Network latency average = 19.5894
	minimum = 7
	maximum = 38
Slowest packet = 27993
Flit latency average = 19.5894
	minimum = 7
	maximum = 38
Slowest flit = 27993
Fragmentation average = 0
	minimum = 0
	maximum = 0
Injected packet rate average = 0.0190625
	minimum = 0.009 (at node 8)
	maximum = 0.028 (at node 13)
Accepted packet rate average = 0.018875
	minimum = 0.009 (at node 2)
	maximum = 0.027 (at node 4)
Injected flit rate average = 0.0190625
	minimum = 0.009 (at node 8)
	maximum = 0.028 (at node 13)
Accepted flit rate average= 0.018875
	minimum = 0.009 (at node 2)
	maximum = 0.027 (at node 4)
Injected packet length average = 1
Accepted packet length average = 1
Total in-flight flits = 3 (0 measured)
latency change    = 1
throughput change = 1
Class 0:
Packet latency average = 19.8067
	minimum = 7
	maximum = 38
Network latency average = 19.8067
	minimum = 7
	maximum = 38
Slowest packet = 27993
Flit latency average = 19.8067
	minimum = 7
	maximum = 38
Slowest flit = 27993
Fragmentation average = 0
	minimum = 0
	maximum = 0
Injected packet rate average = 0.01975
	minimum = 0.0145 (at node 8)
	maximum = 0.027 (at node 13)
Accepted packet rate average = 0.0195625
	minimum = 0.0145 (at node 2)
	maximum = 0.026 (at node 7)
Injected flit rate average = 0.01975
	minimum = 0.0145 (at node 8)
	maximum = 0.027 (at node 13)
Accepted flit rate average= 0.0195625
	minimum = 0.0145 (at node 2)
	maximum = 0.026 (at node 7)
Injected packet length average = 1
Accepted packet length average = 1
Total in-flight flits = 6 (0 measured)
latency change    = 0.0109713
throughput change = 0.0351438
Class 0:
Packet latency average = 19.8208
	minimum = 7
	maximum = 41
Network latency average = 19.8208
	minimum = 7
	maximum = 41
Slowest packet = 28784
Flit latency average = 19.8208
	minimum = 7
	maximum = 41
Slowest flit = 28784
Fragmentation average = 0
	minimum = 0
	maximum = 0
Injected packet rate average = 0.0200625
	minimum = 0.011 (at node 1)
	maximum = 0.028 (at node 8)
Accepted packet rate average = 0.019875
	minimum = 0.01 (at node 4)
	maximum = 0.028 (at node 2)
Injected flit rate average = 0.0200625
	minimum = 0.011 (at node 1)
	maximum = 0.028 (at node 8)
Accepted flit rate average= 0.019875
	minimum = 0.01 (at node 4)
	maximum = 0.028 (at node 2)
Injected packet length average = 1
Accepted packet length average = 1
Total in-flight flits = 9 (0 measured)
latency change    = 0.000708623
throughput change = 0.0157233
Warmed up ...Time used is 3000 cycles
Class 0:
Packet latency average = 18.6401
	minimum = 7
	maximum = 37
Network latency average = 18.6401
	minimum = 7
	maximum = 37
Slowest packet = 28854
Flit latency average = 18.6913
	minimum = 7
	maximum = 37
Slowest flit = 28841
Fragmentation average = 0
	minimum = 0
	maximum = 0
Injected packet rate average = 0.018375
	minimum = 0.013 (at node 11)
	maximum = 0.025 (at node 0)
Accepted packet rate average = 0.018625
	minimum = 0.014 (at node 14)
	maximum = 0.025 (at node 0)
Injected flit rate average = 0.018375
	minimum = 0.013 (at node 11)
	maximum = 0.025 (at node 0)
Accepted flit rate average= 0.018625
	minimum = 0.014 (at node 14)
	maximum = 0.025 (at node 0)
Injected packet length average = 1
Accepted packet length average = 1
Total in-flight flits = 5 (5 measured)
latency change    = 0.0633373
throughput change = 0.0671141
Class 0:
Packet latency average = 19.0667
	minimum = 7
	maximum = 41
Network latency average = 19.0667
	minimum = 7
	maximum = 41
Slowest packet = 29416
Flit latency average = 19.0849
	minimum = 7
	maximum = 41
Slowest flit = 29416
Fragmentation average = 0
	minimum = 0
	maximum = 0
Injected packet rate average = 0.0193437
	minimum = 0.015 (at node 8)
	maximum = 0.023 (at node 0)
Accepted packet rate average = 0.0195
	minimum = 0.015 (at node 2)
	maximum = 0.023 (at node 0)
Injected flit rate average = 0.0193437
	minimum = 0.015 (at node 8)
	maximum = 0.023 (at node 0)
Accepted flit rate average= 0.0195
	minimum = 0.015 (at node 2)
	maximum = 0.023 (at node 0)
Injected packet length average = 1
Accepted packet length average = 1
[...]
Slowest flit = 211475
Fragmentation average = 0
	minimum = 0
	maximum = 0
Injected packet rate average = 0.0185625
	minimum = 0.006 (at node 0)
	maximum = 0.027 (at node 4)
Accepted packet rate average = 0.0181875
	minimum = 0.006 (at node 0)
	maximum = 0.027 (at node 1)
Injected flit rate average = 0.0185625
	minimum = 0.006 (at node 0)
	maximum = 0.027 (at node 4)
Accepted flit rate average= 0.0181875
	minimum = 0.006 (at node 0)
	maximum = 0.027 (at node 1)
Injected packet length average = 1
Accepted packet length average = 1
Total in-flight flits = 6 (0 measured)
latency change    = 1
throughput change = 1
Class 0:
Packet latency average = 19.6883
	minimum = 7
	maximum = 41
Network latency average = 19.6883
	minimum = 7
	maximum = 41
Slowest packet = 211475
Flit latency average = 19.6883
	minimum = 7
	maximum = 41
Slowest flit = 211475
Fragmentation average = 0
	minimum = 0
	maximum = 0
Injected packet rate average = 0.0194062
	minimum = 0.009 (at node 0)
	maximum = 0.0245 (at node 5)
Accepted packet rate average = 0.01925
	minimum = 0.0085 (at node 0)
	maximum = 0.0245 (at node 5)
Injected flit rate average = 0.0194062
	minimum = 0.009 (at node 0)
	maximum = 0.0245 (at node 5)
Accepted flit rate average= 0.01925
	minimum = 0.0085 (at node 0)
	maximum = 0.0245 (at node 5)
Injected packet length average = 1
Accepted packet length average = 1
Total in-flight flits = 5 (0 measured)
latency change    = 0.0116421
throughput change = 0.0551948
Class 0:
Packet latency average = 20.2136
	minimum = 7
	maximum = 46
Network latency average = 20.2136
	minimum = 7
	maximum = 46
Slowest packet = 212262
Flit latency average = 20.2136
	minimum = 7
	maximum = 46
Slowest flit = 212262
Fragmentation average = 0
	minimum = 0
	maximum = 0
Injected packet rate average = 0.019375
	minimum = 0.009 (at node 5)
	maximum = 0.024 (at node 4)
Accepted packet rate average = 0.0193125
	minimum = 0.009 (at node 5)
	maximum = 0.024 (at node 1)
Injected flit rate average = 0.019375
	minimum = 0.009 (at node 5)
	maximum = 0.024 (at node 4)
Accepted flit rate average= 0.0193125
	minimum = 0.009 (at node 5)
	maximum = 0.024 (at node 1)
Injected packet length average = 1
Accepted packet length average = 1
Total in-flight flits = 6 (0 measured)
latency change    = 0.0259865
throughput change = 0.00323625
Warmed up ...Time used is 3000 cycles
Class 0:
Packet latency average = 18.8571
	minimum = 7
	maximum = 38
Network latency average = 18.8571
	minimum = 7
	maximum = 38
Slowest packet = 212436
Flit latency average = 18.9731
	minimum = 7
	maximum = 38
Slowest flit = 212436
Fragmentation average = 0
	minimum = 0
	maximum = 0
Injected packet rate average = 0.020875
	minimum = 0.015 (at node 1)
	maximum = 0.03 (at node 15)
Accepted packet rate average = 0.0209375
	minimum = 0.015 (at node 4)
	maximum = 0.03 (at node 15)
Injected flit rate average = 0.020875
	minimum = 0.015 (at node 1)
	maximum = 0.03 (at node 15)
Accepted flit rate average= 0.0209375
	minimum = 0.015 (at node 4)
	maximum = 0.03 (at node 15)
Injected packet length average = 1
Accepted packet length average = 1
Total in-flight flits = 5 (5 measured)
latency change    = 0.0719329
throughput change = 0.0776119
Class 0:
Packet latency average = 19.281
	minimum = 7
	maximum = 38
Network latency average = 19.281
	minimum = 7
	maximum = 38
Slowest packet = 212436
Flit latency average = 19.3381
	minimum = 7
	maximum = 38
Slowest flit = 212436
Fragmentation average = 0
	minimum = 0
	maximum = 0
Injected packet rate average = 0.019875
	minimum = 0.012 (at node 1)
	maximum = 0.026 (at node 4)
Accepted packet rate average = 0.019875
	minimum = 0.012 (at node 4)
	maximum = 0.0255 (at node 1)
Injected flit rate average = 0.019875
	minimum = 0.012 (at node 1)
	maximum = 0.026 (at node 4)
Accepted flit rate average= 0.019875
	minimum = 0.012 (at node 4)
	maximum = 0.0255 (at node 1)
Injected packet length average = 1
Accepted packet length average = 1
Total in-flight flits = 6 (6 measured)
latency change    = 0.0219807
throughput change = 0.0534591
Class 0:
Packet latency average = 19.2616
	minimum = 7
	maximum = 38
Network latency average = 19.2616
	minimum = 7
	maximum = 38
Slowest packet = 212436
Flit latency average = 19.3005
	minimum = 7
	maximum = 38
Slowest flit = 212436
Fragmentation average = 0
	minimum = 0
	maximum = 0
Injected packet rate average = 0.0194167
	minimum = 0.0146667 (at node 1)
	maximum = 0.026 (at node 4)
Accepted packet rate average = 0.0194792
	minimum = 0.0146667 (at node 4)
	maximum = 0.0256667 (at node 1)
Injected flit rate average = 0.0194167
	minimum = 0.0146667 (at node 1)
	maximum = 0.026 (at node 4)
Accepted flit rate average= 0.0194792
	minimum = 0.0146667 (at node 4)
	maximum = 0.0256667 (at node 1)
Injected packet length average = 1
Accepted packet length average = 1
Total in-flight flits = 3 (3 measured)
latency change    = 0.00100619
throughput change = 0.0203209
Class 0:
Packet latency average = 19.3372
	minimum = 7
	maximum = 39
Network latency average = 19.3372
	minimum = 7
	maximum = 39
Slowest packet = 213333
Flit latency average = 19.3668
	minimum = 7
	maximum = 39
Slowest flit = 213333
Fragmentation average = 0
	minimum = 0
	maximum = 0
Injected packet rate average = 0.0190156
	minimum = 0.015 (at node 3)
	maximum = 0.02375 (at node 4)
Accepted packet rate average = 0.019
	minimum = 0.015 (at node 4)
	maximum = 0.02375 (at node 1)
Injected flit rate average = 0.0190156
	minimum = 0.015 (at node 3)
	maximum = 0.02375 (at node 4)
Accepted flit rate average= 0.019
	minimum = 0.015 (at node 4)
	maximum = 0.02375 (at node 1)
Injected packet length average = 1
Accepted packet length average = 1
Total in-flight flits = 7 (7 measured)
latency change    = 0.00391052
throughput change = 0.0252193
Class 0:
Packet latency average = 19.3406
	minimum = 7
	maximum = 39
Network latency average = 19.3406
	minimum = 7
	maximum = 39
Slowest packet = 213333
Flit latency average = 19.3636
	minimum = 7
	maximum = 39
Slowest flit = 213333
Fragmentation average = 0
	minimum = 0
	maximum = 0
Injected packet rate average = 0.0195375
	minimum = 0.0166 (at node 11)
	maximum = 0.023 (at node 4)
Accepted packet rate average = 0.019525
	minimum = 0.0166 (at node 14)
	maximum = 0.023 (at node 1)
Injected flit rate average = 0.0195375
	minimum = 0.0166 (at node 11)
	maximum = 0.023 (at node 4)
Accepted flit rate average= 0.019525
	minimum = 0.0166 (at node 14)
	maximum = 0.023 (at node 1)
Injected packet length average = 1
Accepted packet length average = 1
Total in-flight flits = 7 (7 measured)
latency change    = 0.000177186
throughput change = 0.0268886
Draining all recorded packets ...
Draining remaining packets ...
Time taken is 8058 cycles
Class 0:
Packet latency average = 18.8879
	minimum = 7
	maximum = 38
Network latency average = 18.8879
	minimum = 7
	maximum = 38
Slowest packet = 213988
Flit latency average = 18.8879
	minimum = 7
	maximum = 38
Slowest flit = 213988
Fragmentation average = 0
	minimum = 0
	maximum = 0
Injected packet rate average = 0.0220625
	minimum = 0.016 (at node 12)
	maximum = 0.034 (at node 5)
Accepted packet rate average = 0.02175
	minimum = 0.016 (at node 3)
	maximum = 0.034 (at node 5)
Injected flit rate average = 0.0220625
	minimum = 0.016 (at node 12)
	maximum = 0.034 (at node 5)
Accepted flit rate average= 0.02175
	minimum = 0.016 (at node 3)
	maximum = 0.034 (at node 5)
Injected packet length average = 1
Accepted packet length average = 1
Total in-flight flits = 5 (0 measured)
latency change    = 1
throughput change = 1
Class 0:
Packet latency average = 19.0255
	minimum = 7
	maximum = 45
Network latency average = 19.0255
	minimum = 7
	maximum = 45
Slowest packet = 214409
Flit latency average = 19.0255
	minimum = 7
	maximum = 45
Slowest flit = 214409
Fragmentation average = 0
	minimum = 0
	maximum = 0
Injected packet rate average = 0.0210313
	minimum = 0.0145 (at node 15)
	maximum = 0.028 (at node 1)
Accepted packet rate average = 0.0208125
	minimum = 0.0145 (at node 15)
	maximum = 0.0275 (at node 4)
Injected flit rate average = 0.0210313
	minimum = 0.0145 (at node 15)
	maximum = 0.028 (at node 1)
Accepted flit rate average= 0.0208125
	minimum = 0.0145 (at node 15)
	maximum = 0.0275 (at node 4)
Injected packet length average = 1
Accepted packet length average = 1
Total in-flight flits = 7 (0 measured)
latency change    = 0.0072321
throughput change = 0.045045
Class 0:
Packet latency average = 19.7907
	minimum = 7
	maximum = 41
Network latency average = 19.7907
	minimum = 7
	maximum = 41
Slowest packet = 214858
Flit latency average = 19.7907
	minimum = 7
	maximum = 41
Slowest flit = 214858
Fragmentation average = 0
	minimum = 0
	maximum = 0
Injected packet rate average = 0.0189375
	minimum = 0.014 (at node 4)
	maximum = 0.033 (at node 6)
Accepted packet rate average = 0.0188125
	minimum = 0.014 (at node 1)
	maximum = 0.033 (at node 9)
Injected flit rate average = 0.0189375
	minimum = 0.014 (at node 4)
	maximum = 0.033 (at node 6)
Accepted flit rate average= 0.0188125
	minimum = 0.014 (at node 1)
	maximum = 0.033 (at node 9)
Injected packet length average = 1
Accepted packet length average = 1
Total in-flight flits = 9 (0 measured)
latency change    = 0.0386632
throughput change = 0.106312
Warmed up ...Time used is 3000 cycles
Class 0:
Packet latency average = 20.3906
	minimum = 7
	maximum = 37
Network latency average = 20.3906
	minimum = 7
	maximum = 37
Slowest packet = 214919
Flit latency average = 20.5714
	minimum = 7
	maximum = 37
Slowest flit = 214889
Fragmentation average = 0
	minimum = 0
	maximum = 0
Injected packet rate average = 0.020375
	minimum = 0.014 (at node 0)
	maximum = 0.028 (at node 2)
Accepted packet rate average = 0.0205625
	minimum = 0.014 (at node 0)
	maximum = 0.029 (at node 8)
Injected flit rate average = 0.020375
	minimum = 0.014 (at node 0)
	maximum = 0.028 (at node 2)
Accepted flit rate average= 0.0205625
	minimum = 0.014 (at node 0)
	maximum = 0.029 (at node 8)
Injected packet length average = 1
Accepted packet length average = 1
Total in-flight flits = 6 (6 measured)
latency change    = 0.0294217
throughput change = 0.0851064
Class 0:
Packet latency average = 20.2652
	minimum = 7
	maximum = 38
Network latency average = 20.2652
	minimum = 7
	maximum = 38
Slowest packet = 215307
Flit latency average = 20.3585
	minimum = 7
	maximum = 38
Slowest flit = 215307
Fragmentation average = 0
	minimum = 0
	maximum = 0
Injected packet rate average = 0.02025
	minimum = 0.015 (at node 0)
	maximum = 0.024 (at node 1)
Accepted packet rate average = 0.0203125
	minimum = 0.015 (at node 0)
	maximum = 0.0245 (at node 4)
Injected flit rate average = 0.02025
	minimum = 0.015 (at node 0)
	maximum = 0.024 (at node 1)
Accepted flit rate average= 0.0203125
	minimum = 0.015 (at node 0)
	maximum = 0.0245 (at node 4)
Injected packet length average = 1
Accepted packet length average = 1
Total in-flight flits = 7 (7 measured)
latency change    = 0.00618865
throughput change = 0.0123077
Class 0:
Packet latency average = 20.3556
	minimum = 7
	maximum = 46
Network latency average = 20.3556
	minimum = 7
	maximum = 46
Slowest packet = 215730
Flit latency average = 20.4182
	minimum = 7
	maximum = 46
Slowest flit = 215730
Fragmentation average = 0
	minimum = 0
	maximum = 0
Injected packet rate average = 0.0197917
	minimum = 0.014 (at node 4)
	maximum = 0.0236667 (at node 2)
Accepted packet rate average = 0.019875
	minimum = 0.014 (at node 1)
	maximum = 0.024 (at node 8)
Injected flit rate average = 0.0197917
	minimum = 0.014 (at node 4)
	maximum = 0.0236667 (at node 2)
Accepted flit rate average= 0.019875
	minimum = 0.014 (at node 1)
	maximum = 0.024 (at node 8)
Injected packet length average = 1
Accepted packet length average = 1
Total in-flight flits = 5 (5 measured)
latency change    = 0.00443834
throughput change = 0.0220126
Class 0:
Packet latency average = 20.1947
	minimum = 7
	maximum = 46
Network latency average = 20.1947
	minimum = 7
	maximum = 46
Slowest packet = 215730
Flit latency average = 20.2438
	minimum = 7
	maximum = 46
Slowest flit = 215730
Fragmentation average = 0
	minimum = 0
	maximum = 0
Injected packet rate average = 0.0194687
	minimum = 0.01375 (at node 4)
	maximum = 0.02275 (at node 12)
Accepted packet rate average = 0.0194844
	minimum = 0.01375 (at node 1)
	maximum = 0.0225 (at node 3)
Injected flit rate average = 0.0194687
	minimum = 0.01375 (at node 4)
	maximum = 0.02275 (at node 12)
Accepted flit rate average= 0.0194844
	minimum = 0.01375 (at node 1)
	maximum = 0.0225 (at node 3)
Injected packet length average = 1
Accepted packet length average = 1
Total in-flight flits = 8 (8 measured)
latency change    = 0.00796679
throughput change = 0.0200481
Draining all recorded packets ...
Draining remaining packets ...
Time taken is 7063 cycles
Class 0:
Packet latency average = 19.2761
	minimum = 7
	maximum = 37
Network latency average = 19.2761
	minimum = 7
	maximum = 37
Slowest packet = 216166
Flit latency average = 19.2761
	minimum = 7
	maximum = 37
Slowest flit = 216166
Fragmentation average = 0
	minimum = 0
	maximum = 0
Injected packet rate average = 0.01875
	minimum = 0.012 (at node 10)
	maximum = 0.028 (at node 15)
Accepted packet rate average = 0.0185625
	minimum = 0.012 (at node 3)
	maximum = 0.027 (at node 15)
Injected flit rate average = 0.01875
	minimum = 0.012 (at node 10)
	maximum = 0.028 (at node 15)
Accepted flit rate average= 0.0185625
	minimum = 0.012 (at node 3)
	maximum = 0.027 (at node 15)
Injected packet length average = 1
Accepted packet length average = 1
Total in-flight flits = 3 (0 measured)
latency change    = 1
throughput change = 1
Class 0:
Packet latency average = 19.4927
	minimum = 7
	maximum = 42
Network latency average = 19.4927
	minimum = 7
	maximum = 42
Slowest packet = 216572
Flit latency average = 19.4927
	minimum = 7
	maximum = 42
Slowest flit = 216572
Fragmentation average = 0
	minimum = 0
	maximum = 0
Injected packet rate average = 0.0198438
	minimum = 0.0145 (at node 12)
	maximum = 0.0235 (at node 8)
Accepted packet rate average = 0.0193437
	minimum = 0.014 (at node 3)
	maximum = 0.023 (at node 6)
Injected flit rate average = 0.0198438
	minimum = 0.0145 (at node 12)
	maximum = 0.0235 (at node 8)
Accepted flit rate average= 0.0193437
	minimum = 0.014 (at node 3)
	maximum = 0.023 (at node 6)
Injected packet length average = 1
Accepted packet length average = 1
Total in-flight flits = 16 (0 measured)
latency change    = 0.0111137
throughput change = 0.0403877
Class 0:
Packet latency average = 20.8923
	minimum = 7
	maximum = 48
Network latency average = 20.8923
	minimum = 7
	maximum = 48
Slowest packet = 216787
Flit latency average = 20.8923
	minimum = 7
	maximum = 48
Slowest flit = 216787
Fragmentation average = 0
	minimum = 0
	maximum = 0
Injected packet rate average = 0.019625
	minimum = 0.014 (at node 11)
	maximum = 0.027 (at node 4)
Accepted packet rate average = 0.0203125
	minimum = 0.014 (at node 14)
	maximum = 0.028 (at node 3)
Injected flit rate average = 0.019625
	minimum = 0.014 (at node 11)
	maximum = 0.027 (at node 4)
Accepted flit rate average= 0.0203125
	minimum = 0.014 (at node 14)
	maximum = 0.028 (at node 3)
Injected packet length average = 1
Accepted packet length average = 1
Total in-flight flits = 5 (0 measured)
latency change    = 0.0669901
throughput change = 0.0476923
Warmed up ...Time used is 3000 cycles
Class 0:
Packet latency average = 19.7169
	minimum = 7
	maximum = 40
Network latency average = 19.7169
	minimum = 7
	maximum = 40
Slowest packet = 217134
Flit latency average = 19.8845
	minimum = 7
	maximum = 40
Slowest flit = 217134
Fragmentation average = 0
	minimum = 0
	maximum = 0
Injected packet rate average = 0.0171875
	minimum = 0.013 (at node 3)
	maximum = 0.022 (at node 10)
Accepted packet rate average = 0.0173125
	minimum = 0.013 (at node 1)
	maximum = 0.022 (at node 13)
Injected flit rate average = 0.0171875
	minimum = 0.013 (at node 3)
	maximum = 0.022 (at node 10)
Accepted flit rate average= 0.0173125
	minimum = 0.013 (at node 1)
	maximum = 0.022 (at node 13)
Injected packet length average = 1
Accepted packet length average = 1
Total in-flight flits = 3 (3 measured)
latency change    = 0.0596136
throughput change = 0.173285
Class 0:
Packet latency average = 19.6178
	minimum = 7
	maximum = 40
Network latency average = 19.6178
	minimum = 7
	maximum = 40
Slowest packet = 217134
Flit latency average = 19.699
	minimum = 7
	maximum = 40
Slowest flit = 217134
Fragmentation average = 0
	minimum = 0
	maximum = 0
Injected packet rate average = 0.018125
	minimum = 0.015 (at node 3)
	maximum = 0.0225 (at node 7)
Accepted packet rate average = 0.0180625
	minimum = 0.0155 (at node 0)
	maximum = 0.023 (at node 13)
Injected flit rate average = 0.018125
	minimum = 0.015 (at node 3)
	maximum = 0.0225 (at node 7)
Accepted flit rate average= 0.0180625
	minimum = 0.0155 (at node 0)
	maximum = 0.023 (at node 13)
Injected packet length average = 1
Accepted packet length average = 1
Total in-flight flits = 7 (7 measured)
latency change    = 0.00505208
throughput change = 0.0415225
Class 0:
Packet latency average = 19.3951
	minimum = 7
	maximum = 44
Network latency average = 19.3951
	minimum = 7
	maximum = 44
Slowest packet = 217680
Flit latency average = 19.4484
	minimum = 7
	maximum = 44
Slowest flit = 217680
Fragmentation average = 0
	minimum = 0
	maximum = 0
Injected packet rate average = 0.0187917
	minimum = 0.0136667 (at node 3)
	maximum = 0.0226667 (at node 7)
Accepted packet rate average = 0.0187708
	minimum = 0.0143333 (at node 12)
	maximum = 0.0223333 (at node 3)
Injected flit rate average = 0.0187917
	minimum = 0.0136667 (at node 3)
	maximum = 0.0226667 (at node 7)
Accepted flit rate average= 0.0187708
	minimum = 0.0143333 (at node 12)
	maximum = 0.0223333 (at node 3)
Injected packet length average = 1
Accepted packet length average = 1
Total in-flight flits = 6 (6 measured)
latency change    = 0.0114829
throughput change = 0.0377358
Class 0:
Packet latency average = 19.6732
	minimum = 7
	maximum = 46
Network latency average = 19.6732
	minimum = 7
	maximum = 46
Slowest packet = 218209
Flit latency average = 19.7109
	minimum = 7
	maximum = 46
Slowest flit = 218209
Fragmentation average = 0
	minimum = 0
	maximum = 0
Injected packet rate average = 0.0192812
	minimum = 0.01675 (at node 1)
	maximum = 0.02325 (at node 12)
Accepted packet rate average = 0.0192969
	minimum = 0.01675 (at node 4)
	maximum = 0.02325 (at node 3)
Injected flit rate average = 0.0192812
	minimum = 0.01675 (at node 1)
	maximum = 0.02325 (at node 12)
Accepted flit rate average= 0.0192969
	minimum = 0.01675 (at node 4)
	maximum = 0.02325 (at node 3)
Injected packet length average = 1
Accepted packet length average = 1
Total in-flight flits = 4 (4 measured)
latency change    = 0.0141351
throughput change = 0.0272605
Draining all recorded packets ...
Draining remaining packets ...
Time taken is 7064 cycles
====== Overall Traffic Statistics ======
====== Traffic class 0 ======
Packet latency average = 19.6217 (100 samples)
	minimum = 7 (100 samples)
	maximum = 43.89 (100 samples)
Network latency average = 19.6217 (100 samples)
	minimum = 7 (100 samples)
	maximum = 43.89 (100 samples)
Flit latency average = 19.6438 (100 samples)
	minimum = 7 (100 samples)
	maximum = 43.9 (100 samples)
Fragmentation average = 0 (100 samples)
	minimum = 0 (100 samples)
	maximum = 0 (100 samples)
Injected packet rate average = 0.0200575 (100 samples)
	minimum = 0.0160943 (100 samples)
	maximum = 0.0244083 (100 samples)
Accepted packet rate average = 0.0200587 (100 samples)
	minimum = 0.0160943 (100 samples)
	maximum = 0.0244048 (100 samples)
Injected flit rate average = 0.0200575 (100 samples)
	minimum = 0.0160943 (100 samples)
	maximum = 0.0244083 (100 samples)
Accepted flit rate average = 0.0200587 (100 samples)
	minimum = 0.0160943 (100 samples)
	maximum = 0.0244048 (100 samples)
Injected packet size average = 1 (100 samples)
Accepted packet size average = 1 (100 samples)
Hops average = 3.51057 (100 samples)
Total run time 9.48719
