BEGIN Configuration File: /tmp/bs_1138183_72439.cfg
topology = mesh;
k = 4;
n = 2;
routing_function = valiant;
num_vcs = 4;
vc_buf_size = 4;
wait_for_tail_credit = 1;
vc_allocator = islip;
sw_allocator = islip;
alloc_iters = 1;
credit_delay = 2;
routing_delay = 1;
vc_alloc_delay = 1;
sw_alloc_delay = 1;
input_speedup = 2;
output_speedup = 1;
internal_speedup = 1.0;
traffic = hotspot;
packet_size = 1;
sim_type = latency;
injection_rate = 0.01;
warmup_periods = 3;
sample_period = 1000;
sim_count = 100;
seed = 0;

END Configuration File: /tmp/bs_1138183_72439.cfg
Class 0:
Packet latency average = 33.4934
	minimum = 12
	maximum = 74
Network latency average = 33.4934
	minimum = 12
	maximum = 74
Slowest packet = 64
Flit latency average = 33.4934
	minimum = 12
	maximum = 74
Slowest flit = 64
Fragmentation average = 0
	minimum = 0
	maximum = 0
Injected packet rate average = 0.00975
	minimum = 0.004 (at node 11)
	maximum = 0.014 (at node 13)
Accepted packet rate average = 0.0095
	minimum = 0 (at node 0)
	maximum = 0.152 (at node 11)
Injected flit rate average = 0.00975
	minimum = 0.004 (at node 11)
	maximum = 0.014 (at node 13)
Accepted flit rate average= 0.0095
	minimum = 0 (at node 0)
	maximum = 0.152 (at node 11)
Injected packet length average = 1
Accepted packet length average = 1
Total in-flight flits = 4 (0 measured)
latency change    = 1
throughput change = 1
Class 0:
Packet latency average = 33.5344
	minimum = 12
	maximum = 74
Network latency average = 33.5344
	minimum = 12
	maximum = 74
Slowest packet = 64
Flit latency average = 33.5344
	minimum = 12
	maximum = 74
Slowest flit = 64
Fragmentation average = 0
	minimum = 0
	maximum = 0
Injected packet rate average = 0.009625
	minimum = 0.006 (at node 11)
	maximum = 0.0125 (at node 0)
Accepted packet rate average = 0.00953125
	minimum = 0 (at node 0)
	maximum = 0.1525 (at node 11)
Injected flit rate average = 0.009625
	minimum = 0.006 (at node 11)
	maximum = 0.0125 (at node 0)
Accepted flit rate average= 0.00953125
	minimum = 0 (at node 0)
	maximum = 0.1525 (at node 11)
Injected packet length average = 1
Accepted packet length average = 1
Total in-flight flits = 3 (0 measured)
latency change    = 0.00122278
throughput change = 0.00327869
Class 0:
Packet latency average = 32.175
	minimum = 7
	maximum = 70
Network latency average = 32.175
	minimum = 7
	maximum = 70
Slowest packet = 370
Flit latency average = 32.175
	minimum = 7
	maximum = 70
Slowest flit = 370
Fragmentation average = 0
	minimum = 0
	maximum = 0
Injected packet rate average = 0.01
	minimum = 0.006 (at node 0)
	maximum = 0.012 (at node 3)
Accepted packet rate average = 0.01
	minimum = 0 (at node 0)
	maximum = 0.16 (at node 11)
Injected flit rate average = 0.01
	minimum = 0.006 (at node 0)
	maximum = 0.012 (at node 3)
Accepted flit rate average= 0.01
	minimum = 0 (at node 0)
	maximum = 0.16 (at node 11)
Injected packet length average = 1
Accepted packet length average = 1
Total in-flight flits = 3 (0 measured)
latency change    = 0.042251
throughput change = 0.046875
Warmed up ...Time used is 3000 cycles
Class 0:
Packet latency average = 34.8714
	minimum = 7
	maximum = 62
Network latency average = 34.8714
	minimum = 7
	maximum = 62
Slowest packet = 486
Flit latency average = 34.8951
	minimum = 7
	maximum = 62
Slowest flit = 486
Fragmentation average = 0
	minimum = 0
	maximum = 0
Injected packet rate average = 0.0091875
	minimum = 0.005 (at node 1)
	maximum = 0.015 (at node 4)
Accepted packet rate average = 0.0089375
	minimum = 0 (at node 0)
	maximum = 0.143 (at node 11)
Injected flit rate average = 0.0091875
	minimum = 0.005 (at node 1)
	maximum = 0.015 (at node 4)
Accepted flit rate average= 0.0089375
	minimum = 0 (at node 0)
	maximum = 0.143 (at node 11)
Injected packet length average = 1
Accepted packet length average = 1
Total in-flight flits = 7 (7 measured)
latency change    = 0.0773249
throughput change = 0.118881
Class 0:
Packet latency average = 33.0761
	minimum = 7
	maximum = 62
Network latency average = 33.0761
	minimum = 7
	maximum = 62
Slowest packet = 486
Flit latency average = 33.1062
	minimum = 7
	maximum = 62
Slowest flit = 486
Fragmentation average = 0
	minimum = 0
	maximum = 0
Injected packet rate average = 0.00909375
	minimum = 0.007 (at node 12)
	maximum = 0.0125 (at node 10)
Accepted packet rate average = 0.009125
	minimum = 0 (at node 0)
	maximum = 0.146 (at node 11)
Injected flit rate average = 0.00909375
	minimum = 0.007 (at node 12)
	maximum = 0.0125 (at node 10)
Accepted flit rate average= 0.009125
	minimum = 0 (at node 0)
	maximum = 0.146 (at node 11)
Injected packet length average = 1
Accepted packet length average = 1
Total in-flight flits = 2 (2 measured)
latency change    = 0.0542779
throughput change = 0.0205479
Class 0:
Packet latency average = 33.1919
	minimum = 7
	maximum = 62
Network latency average = 33.1919
	minimum = 7
	maximum = 62
Slowest packet = 486
Flit latency average = 33.2108
	minimum = 7
	maximum = 62
Slowest flit = 486
Fragmentation average = 0
	minimum = 0
	maximum = 0
Injected packet rate average = 0.009375
	minimum = 0.00766667 (at node 2)
	maximum = 0.013 (at node 3)
Accepted packet rate average = 0.00929167
	minimum = 0 (at node 0)
	maximum = 0.148667 (at node 11)
Injected flit rate average = 0.009375
	minimum = 0.00766667 (at node 2)
	maximum = 0.013 (at node 3)
Accepted flit rate average= 0.00929167
	minimum = 0 (at node 0)
	maximum = 0.148667 (at node 11)
Injected packet length average = 1
Accepted packet length average = 1
Total in-flight flits = 7 (7 measured)
latency change    = 0.00348727
throughput change = 0.0179372
Class 0:
Packet latency average = 32.9819
	minimum = 7
	maximum = 62
Network latency average = 32.9819
	minimum = 7
	maximum = 62
Slowest packet = 486
Flit latency average = 32.9967
	minimum = 7
	maximum = 62
Slowest flit = 486
Fragmentation average = 0
	minimum = 0
	maximum = 0
Injected packet rate average = 0.00954687
	minimum = 0.007 (at node 2)
	maximum = 0.01375 (at node 3)
Accepted packet rate average = 0.00954687
	minimum = 0 (at node 0)
	maximum = 0.15275 (at node 11)
Injected flit rate average = 0.00954687
	minimum = 0.007 (at node 2)
	maximum = 0.01375 (at node 3)
Accepted flit rate average= 0.00954687
	minimum = 0 (at node 0)
	maximum = 0.15275 (at node 11)
Injected packet length average = 1
Accepted packet length average = 1
Total in-flight flits = 3 (3 measured)
latency change    = 0.00636609
throughput change = 0.0267321
Class 0:
Packet latency average = 32.8312
	minimum = 7
	maximum = 63
Network latency average = 32.8312
	minimum = 7
	maximum = 63
Slowest packet = 1127
Flit latency average = 32.8434
	minimum = 7
	maximum = 63
Slowest flit = 1127
Fragmentation average = 0
	minimum = 0
	maximum = 0
Injected packet rate average = 0.0097875
	minimum = 0.0076 (at node 2)
	maximum = 0.0132 (at node 3)
Accepted packet rate average = 0.0097375
	minimum = 0 (at node 0)
	maximum = 0.1558 (at node 11)
Injected flit rate average = 0.0097875
	minimum = 0.0076 (at node 2)
	maximum = 0.0132 (at node 3)
Accepted flit rate average= 0.0097375
	minimum = 0 (at node 0)
	maximum = 0.1558 (at node 11)
Injected packet length average = 1
Accepted packet length average = 1
Total in-flight flits = 7 (7 measured)
latency change    = 0.00459083
throughput change = 0.0195764
Draining all recorded packets ...
Draining remaining packets ...
Time taken is 8067 cycles
Class 0:
Packet latency average = 32.2473
	minimum = 7
	maximum = 64
Network latency average = 32.2473
	minimum = 7
	maximum = 64
Slowest packet = 1302
Flit latency average = 32.2473
	minimum = 7
	maximum = 64
Slowest flit = 1302
Fragmentation average = 0
	minimum = 0
	maximum = 0
Injected packet rate average = 0.01175
	minimum = 0.009 (at node 8)
	maximum = 0.015 (at node 1)
Accepted packet rate average = 0.011375
	minimum = 0 (at node 0)
	maximum = 0.182 (at node 11)
Injected flit rate average = 0.01175
	minimum = 0.009 (at node 8)
	maximum = 0.015 (at node 1)
Accepted flit rate average= 0.011375
	minimum = 0 (at node 0)
	maximum = 0.182 (at node 11)
Injected packet length average = 1
Accepted packet length average = 1
Total in-flight flits = 6 (0 measured)
latency change    = 1
throughput change = 1
Class 0:
Packet latency average = 32.6019
	minimum = 7
	maximum = 64
Network latency average = 32.6019
	minimum = 7
	maximum = 64
Slowest packet = 1302
Flit latency average = 32.6019
	minimum = 7
	maximum = 64
Slowest flit = 1302
Fragmentation average = 0
	minimum = 0
	maximum = 0
Injected packet rate average = 0.0103438
	minimum = 0.007 (at node 5)
	maximum = 0.0135 (at node 1)
Accepted packet rate average = 0.010125
	minimum = 0 (at node 0)
	maximum = 0.162 (at node 11)
Injected flit rate average = 0.0103438
	minimum = 0.007 (at node 5)
	maximum = 0.0135 (at node 1)
Accepted flit rate average= 0.010125
	minimum = 0 (at node 0)
	maximum = 0.162 (at node 11)
Injected packet length average = 1
Accepted packet length average = 1
Total in-flight flits = 7 (0 measured)
latency change    = 0.0108767
throughput change = 0.123457
Class 0:
Packet latency average = 31.5951
	minimum = 7
	maximum = 63
Network latency average = 31.5951
	minimum = 7
	maximum = 63
Slowest packet = 1620
Flit latency average = 31.5951
	minimum = 7
	maximum = 63
Slowest flit = 1620
Fragmentation average = 0
	minimum = 0
	maximum = 0
Injected packet rate average = 0.01
	minimum = 0.006 (at node 2)
	maximum = 0.015 (at node 11)
Accepted packet rate average = 0.0101875
	minimum = 0 (at node 0)
	maximum = 0.163 (at node 11)
Injected flit rate average = 0.01
	minimum = 0.006 (at node 2)
	maximum = 0.015 (at node 11)
Accepted flit rate average= 0.0101875
	minimum = 0 (at node 0)
	maximum = 0.163 (at node 11)
Injected packet length average = 1
Accepted packet length average = 1
Total in-flight flits = 4 (0 measured)
latency change    = 0.0318644
throughput change = 0.00613497
Warmed up ...Time used is 3000 cycles
Class 0:
Packet latency average = 32.8834
	minimum = 12
	maximum = 79
Network latency average = 32.8834
	minimum = 12
	maximum = 79
Slowest packet = 1857
Flit latency average = 32.9222
	minimum = 12
	maximum = 79
Slowest flit = 1857
Fragmentation average = 0
	minimum = 0
	maximum = 0
Injected packet rate average = 0.0106875
	minimum = 0.006 (at node 6)
	maximum = 0.015 (at node 2)
Accepted packet rate average = 0.0104375
	minimum = 0 (at node 0)
	maximum = 0.167 (at node 11)
Injected flit rate average = 0.0106875
	minimum = 0.006 (at node 6)
	maximum = 0.015 (at node 2)
Accepted flit rate average= 0.0104375
	minimum = 0 (at node 0)
	maximum = 0.167 (at node 11)
Injected packet length average = 1
Accepted packet length average = 1
Total in-flight flits = 8 (8 measured)
latency change    = 0.0391791
throughput change = 0.0239521
Class 0:
Packet latency average = 32.7825
	minimum = 7
	maximum = 79
Network latency average = 32.7825
	minimum = 7
	maximum = 79
Slowest packet = 1857
Flit latency average = 32.803
	minimum = 7
	maximum = 79
Slowest flit = 1857
Fragmentation average = 0
	minimum = 0
	maximum = 0
Injected packet rate average = 0.0105313
	minimum = 0.008 (at node 10)
	maximum = 0.014 (at node 2)
Accepted packet rate average = 0.0104688
	minimum = 0 (at node 0)
	maximum = 0.1675 (at node 11)
Injected flit rate average = 0.0105313
	minimum = 0.008 (at node 10)
	maximum = 0.014 (at node 2)
Accepted flit rate average= 0.0104688
	minimum = 0 (at node 0)
	maximum = 0.1675 (at node 11)
Injected packet length average = 1
Accepted packet length average = 1
Total in-flight flits = 6 (6 measured)
latency change    = 0.00307964
throughput change = 0.00298507
Class 0:
Packet latency average = 32.1996
	minimum = 7
	maximum = 79
Network latency average = 32.1996
	minimum = 7
	maximum = 79
Slowest packet = 1857
Flit latency average = 32.2182
	minimum = 7
	maximum = 79
Slowest flit = 1857
Fragmentation average = 0
	minimum = 0
	maximum = 0
Injected packet rate average = 0.0103542
	minimum = 0.00733333 (at node 14)
	maximum = 0.0136667 (at node 7)
Accepted packet rate average = 0.0103125
	minimum = 0 (at node 0)
	maximum = 0.165 (at node 11)
Injected flit rate average = 0.0103542
	minimum = 0.00733333 (at node 14)
	maximum = 0.0136667 (at node 7)
Accepted flit rate average= 0.0103125
	minimum = 0 (at node 0)
	maximum = 0.165 (at node 11)
Injected packet length average = 1
Accepted packet length average = 1
Total in-flight flits = 6 (6 measured)
latency change    = 0.0181022
throughput change = 0.0151515
Draining all recorded packets ...
Draining remaining packets ...
Time taken is 6055 cycles
Class 0:
Packet latency average = 32.4662
	minimum = 7
	maximum = 68
Network latency average = 32.4662
	minimum = 7
	maximum = 68
Slowest packet = 2386
Flit latency average = 32.4662
	minimum = 7
	maximum = 68
Slowest flit = 2386
Fragmentation average = 0
	minimum = 0
	maximum = 0
Injected packet rate average = 0.0095
	minimum = 0.006 (at node 3)
	maximum = 0.013 (at node 9)
Accepted packet rate average = 0.00925
	minimum = 0 (at node 0)
	maximum = 0.148 (at node 11)
Injected flit rate average = 0.0095
	minimum = 0.006 (at node 3)
	maximum = 0.013 (at node 9)
Accepted flit rate average= 0.00925
	minimum = 0 (at node 0)
	maximum = 0.148 (at node 11)
Injected packet length average = 1
Accepted packet length average = 1
Total in-flight flits = 4 (0 measured)
latency change    = 1
throughput change = 1
Class 0:
Packet latency average = 32.4363
	minimum = 7
	maximum = 68
Network latency average = 32.4363
	minimum = 7
	maximum = 68
Slowest packet = 2386
Flit latency average = 32.4363
	minimum = 7
	maximum = 68
Slowest flit = 2386
Fragmentation average = 0
	minimum = 0
	maximum = 0
Injected packet rate average = 0.00990625
	minimum = 0.0065 (at node 0)
	maximum = 0.013 (at node 5)
Accepted packet rate average = 0.0098125
	minimum = 0 (at node 0)
	maximum = 0.157 (at node 11)
Injected flit rate average = 0.00990625
	minimum = 0.0065 (at node 0)
	maximum = 0.013 (at node 5)
Accepted flit rate average= 0.0098125
	minimum = 0 (at node 0)
	maximum = 0.157 (at node 11)
Injected packet length average = 1
Accepted packet length average = 1
Total in-flight flits = 3 (0 measured)
latency change    = 0.00092213
throughput change = 0.0573248
Class 0:
Packet latency average = 31.6832
	minimum = 7
	maximum = 58
Network latency average = 31.6832
	minimum = 7
	maximum = 58
Slowest packet = 2583
Flit latency average = 31.6832
	minimum = 7
	maximum = 58
Slowest flit = 2583
Fragmentation average = 0
	minimum = 0
	maximum = 0
Injected packet rate average = 0.0103125
	minimum = 0.005 (at node 7)
	maximum = 0.014 (at node 11)
Accepted packet rate average = 0.0100625
	minimum = 0 (at node 0)
	maximum = 0.161 (at node 11)
Injected flit rate average = 0.0103125
	minimum = 0.005 (at node 7)
	maximum = 0.014 (at node 11)
Accepted flit rate average= 0.0100625
	minimum = 0 (at node 0)
	maximum = 0.161 (at node 11)
Injected packet length average = 1
Accepted packet length average = 1
Total in-flight flits = 7 (0 measured)
latency change    = 0.0237689
throughput change = 0.0248447
Warmed up ...Time used is 3000 cycles
Class 0:
Packet latency average = 32.6131
	minimum = 12
	maximum = 62
Network latency average = 32.6131
	minimum = 12
	maximum = 62
Slowest packet = 2750
Flit latency average = 32.5139
	minimum = 12
	maximum = 62
Slowest flit = 2750
Fragmentation average = 0
	minimum = 0
	maximum = 0
Injected packet rate average = 0.00875
	minimum = 0.004 (at node 2)
	maximum = 0.014 (at node 11)
Accepted packet rate average = 0.009
	minimum = 0 (at node 0)
	maximum = 0.144 (at node 11)
Injected flit rate average = 0.00875
	minimum = 0.004 (at node 2)
	maximum = 0.014 (at node 11)
Accepted flit rate average= 0.009
	minimum = 0 (at node 0)
	maximum = 0.144 (at node 11)
Injected packet length average = 1
Accepted packet length average = 1
Total in-flight flits = 3 (3 measured)
latency change    = 0.0285133
throughput change = 0.118056
Class 0:
Packet latency average = 33.7543
	minimum = 7
	maximum = 63
Network latency average = 33.7543
	minimum = 7
	maximum = 63
Slowest packet = 2910
Flit latency average = 33.6791
	minimum = 7
	maximum = 63
Slowest flit = 2910
Fragmentation average = 0
	minimum = 0
	maximum = 0
Injected packet rate average = 0.009125
	minimum = 0.003 (at node 9)
	maximum = 0.0145 (at node 11)
Accepted packet rate average = 0.00925
	minimum = 0 (at node 0)
	maximum = 0.148 (at node 11)
Injected flit rate average = 0.009125
	minimum = 0.003 (at node 9)
	maximum = 0.0145 (at node 11)
Accepted flit rate average= 0.00925
	minimum = 0 (at node 0)
	maximum = 0.148 (at node 11)
Injected packet length average = 1
Accepted packet length average = 1
Total in-flight flits = 3 (3 measured)
latency change    = 0.0338086
throughput change = 0.027027
Class 0:
Packet latency average = 33.6458
	minimum = 7
	maximum = 63
Network latency average = 33.6458
	minimum = 7
	maximum = 63
Slowest packet = 2910
Flit latency average = 33.5968
	minimum = 7
	maximum = 63
Slowest flit = 2910
Fragmentation average = 0
	minimum = 0
	maximum = 0
Injected packet rate average = 0.0090625
	minimum = 0.00466667 (at node 9)
	maximum = 0.0133333 (at node 11)
Accepted packet rate average = 0.00914583
	minimum = 0 (at node 0)
	maximum = 0.146333 (at node 11)
Injected flit rate average = 0.0090625
	minimum = 0.00466667 (at node 9)
	maximum = 0.0133333 (at node 11)
Accepted flit rate average= 0.00914583
	minimum = 0 (at node 0)
	maximum = 0.146333 (at node 11)
Injected packet length average = 1
Accepted packet length average = 1
Total in-flight flits = 3 (3 measured)
latency change    = 0.00322453
throughput change = 0.0113895
Class 0:
Packet latency average = 33.5473
	minimum = 7
	maximum = 72
Network latency average = 33.5473
	minimum = 7
	maximum = 72
Slowest packet = 3262
Flit latency average = 33.5125
	minimum = 7
	maximum = 72
Slowest flit = 3262
Fragmentation average = 0
	minimum = 0
	maximum = 0
Injected packet rate average = 0.00929687
	minimum = 0.006 (at node 2)
	maximum = 0.01225 (at node 11)
Accepted packet rate average = 0.00935937
	minimum = 0 (at node 0)
	maximum = 0.14975 (at node 11)
Injected flit rate average = 0.00929687
	minimum = 0.006 (at node 2)
	maximum = 0.01225 (at node 11)
Accepted flit rate average= 0.00935937
	minimum = 0 (at node 0)
	maximum = 0.14975 (at node 11)
Injected packet length average = 1
Accepted packet length average = 1
Total in-flight flits = 3 (3 measured)
latency change    = 0.00293723
throughput change = 0.0228158
Draining all recorded packets ...
Draining remaining packets ...
Time taken is 7099 cycles
Class 0:
Packet latency average = 33.8793
	minimum = 7
	maximum = 62
Network latency average = 33.8793
	minimum = 7
	maximum = 62
Slowest packet = 3336
Flit latency average = 33.8793
	minimum = 7
	maximum = 62
Slowest flit = 3336
Fragmentation average = 0
	minimum = 0
	maximum = 0
Injected packet rate average = 0.011
	minimum = 0.007 (at node 1)
	maximum = 0.015 (at node 0)
Accepted packet rate average = 0.010875
	minimum = 0 (at node 0)
	maximum = 0.174 (at node 11)
Injected flit rate average = 0.011
	minimum = 0.007 (at node 1)
	maximum = 0.015 (at node 0)
Accepted flit rate average= 0.010875
	minimum = 0 (at node 0)
	maximum = 0.174 (at node 11)
Injected packet length average = 1
Accepted packet length average = 1
Total in-flight flits = 2 (0 measured)
latency change    = 1
throughput change = 1
Class 0:
Packet latency average = 32.9263
	minimum = 7
	maximum = 62
Network latency average = 32.9263
	minimum = 7
	maximum = 62
Slowest packet = 3336
Flit latency average = 32.9263
	minimum = 7
	maximum = 62
Slowest flit = 3336
Fragmentation average = 0
	minimum = 0
	maximum = 0
Injected packet rate average = 0.00990625
	minimum = 0.006 (at node 2)
	maximum = 0.0125 (at node 0)
Accepted packet rate average = 0.00975
	minimum = 0 (at node 0)
	maximum = 0.156 (at node 11)
Injected flit rate average = 0.00990625
	minimum = 0.006 (at node 2)
	maximum = 0.0125 (at node 0)
Accepted flit rate average= 0.00975
	minimum = 0 (at node 0)
	maximum = 0.156 (at node 11)
Injected packet length average = 1
Accepted packet length average = 1
Total in-flight flits = 5 (0 measured)
latency change    = 0.0289443
throughput change = 0.115385
Class 0:
Packet latency average = 32.669
	minimum = 7
	maximum = 58
Network latency average = 32.669
	minimum = 7
	maximum = 58
Slowest packet = 3658
Flit latency average = 32.669
	minimum = 7
	maximum = 58
Slowest flit = 3658
Fragmentation average = 0
	minimum = 0
	maximum = 0
Injected packet rate average = 0.009
	minimum = 0.005 (at node 2)
	maximum = 0.017 (at node 11)
Accepted packet rate average = 0.0090625
	minimum = 0 (at node 0)
	maximum = 0.145 (at node 11)
Injected flit rate average = 0.009
	minimum = 0.005 (at node 2)
	maximum = 0.017 (at node 11)
Accepted flit rate average= 0.0090625
	minimum = 0 (at node 0)
	maximum = 0.145 (at node 11)
Injected packet length average = 1
Accepted packet length average = 1
Total in-flight flits = 4 (0 measured)
latency change    = 0.00787648
throughput change = 0.0758621
Warmed up ...Time used is 3000 cycles
Class 0:
Packet latency average = 32.9388
	minimum = 12
	maximum = 57
Network latency average = 32.9388
	minimum = 12
	maximum = 57
Slowest packet = 3799
Flit latency average = 33.1788
	minimum = 12
	maximum = 57
Slowest flit = 3799
Fragmentation average = 0
	minimum = 0
	maximum = 0
Injected packet rate average = 0.0095
	minimum = 0.002 (at node 10)
	maximum = 0.013 (at node 4)
Accepted packet rate average = 0.0094375
	minimum = 0 (at node 0)
	maximum = 0.151 (at node 11)
Injected flit rate average = 0.0095
	minimum = 0.002 (at node 10)
	maximum = 0.013 (at node 4)
Accepted flit rate average= 0.0094375
	minimum = 0 (at node 0)
	maximum = 0.151 (at node 11)
Injected packet length average = 1
Accepted packet length average = 1
Total in-flight flits = 5 (5 measured)
latency change    = 0.00819126
throughput change = 0.0397351
Class 0:
Packet latency average = 32.4985
	minimum = 7
	maximum = 57
Network latency average = 32.4985
	minimum = 7
	maximum = 57
Slowest packet = 3799
Flit latency average = 32.6133
	minimum = 7
	maximum = 57
Slowest flit = 3799
Fragmentation average = 0
	minimum = 0
	maximum = 0
Injected packet rate average = 0.0104688
	minimum = 0.0055 (at node 12)
	maximum = 0.014 (at node 11)
Accepted packet rate average = 0.0103438
	minimum = 0 (at node 0)
	maximum = 0.1655 (at node 11)
Injected flit rate average = 0.0104688
	minimum = 0.0055 (at node 12)
	maximum = 0.014 (at node 11)
Accepted flit rate average= 0.0103438
	minimum = 0 (at node 0)
	maximum = 0.1655 (at node 11)
Injected packet length average = 1
Accepted packet length average = 1
Total in-flight flits = 8 (8 measured)
latency change    = 0.0135485
throughput change = 0.0876133
Class 0:
Packet latency average = 32.1046
	minimum = 7
	maximum = 57
Network latency average = 32.1046
	minimum = 7
	maximum = 57
Slowest packet = 3799
Flit latency average = 32.1867
	minimum = 7
	maximum = 57
Slowest flit = 3799
Fragmentation average = 0
	minimum = 0
	maximum = 0
Injected packet rate average = 0.0101042
	minimum = 0.007 (at node 12)
	maximum = 0.013 (at node 8)
Accepted packet rate average = 0.0100417
	minimum = 0 (at node 0)
	maximum = 0.160667 (at node 11)
Injected flit rate average = 0.0101042
	minimum = 0.007 (at node 12)
	maximum = 0.013 (at node 8)
Accepted flit rate average= 0.0100417
	minimum = 0 (at node 0)
	maximum = 0.160667 (at node 11)
Injected packet length average = 1
Accepted packet length average = 1
Total in-flight flits = 7 (7 measured)
latency change    = 0.0122683
throughput change = 0.030083
Class 0:
Packet latency average = 32.5915
	minimum = 7
	maximum = 62
Network latency average = 32.5915
	minimum = 7
	maximum = 62
Slowest packet = 4332
Flit latency average = 32.6501
	minimum = 7
	maximum = 62
Slowest flit = 4332
Fragmentation average = 0
	minimum = 0
	maximum = 0
Injected packet rate average = 0.0100625
	minimum = 0.00775 (at node 12)
	maximum = 0.013 (at node 8)
Accepted packet rate average = 0.0100469
	minimum = 0 (at node 0)
	maximum = 0.16075 (at node 11)
Injected flit rate average = 0.0100625
	minimum = 0.00775 (at node 12)
	maximum = 0.013 (at node 8)
Accepted flit rate average= 0.0100469
	minimum = 0 (at node 0)
	maximum = 0.16075 (at node 11)
Injected packet length average = 1
Accepted packet length average = 1
Total in-flight flits = 5 (5 measured)
latency change    = 0.0149409
throughput change = 0.000518403
Class 0:
Packet latency average = 32.6281
	minimum = 7
	maximum = 80
Network latency average = 32.6281
	minimum = 7
	maximum = 80
Slowest packet = 4463
Flit latency average = 32.6745
	minimum = 7
	maximum = 80
Slowest flit = 4463
Fragmentation average = 0
	minimum = 0
	maximum = 0
Injected packet rate average = 0.010125
	minimum = 0.0082 (at node 6)
	maximum = 0.0138 (at node 8)
Accepted packet rate average = 0.0101
	minimum = 0 (at node 0)
	maximum = 0.1616 (at node 11)
Injected flit rate average = 0.010125
	minimum = 0.0082 (at node 6)
	maximum = 0.0138 (at node 8)
Accepted flit rate average= 0.0101
	minimum = 0 (at node 0)
	maximum = 0.1616 (at node 11)
Injected packet length average = 1
Accepted packet length average = 1
Total in-flight flits = 6 (6 measured)
latency change    = 0.00112051
throughput change = 0.0052599
Draining all recorded packets ...
Draining remaining packets ...
Time taken is 8064 cycles
Class 0:
Packet latency average = 34.3355
	minimum = 12
	maximum = 68
Network latency average = 34.3355
	minimum = 12
	maximum = 68
Slowest packet = 4679
Flit latency average = 34.3355
	minimum = 12
	maximum = 68
Slowest flit = 4679
Fragmentation average = 0
	minimum = 0
	maximum = 0
Injected packet rate average = 0.009875
	minimum = 0.003 (at node 0)
	maximum = 0.015 (at node 13)
Accepted packet rate average = 0.0096875
	minimum = 0 (at node 0)
	maximum = 0.155 (at node 11)
Injected flit rate average = 0.009875
	minimum = 0.003 (at node 0)
	maximum = 0.015 (at node 13)
Accepted flit rate average= 0.0096875
	minimum = 0 (at node 0)
	maximum = 0.155 (at node 11)
Injected packet length average = 1
Accepted packet length average = 1
Total in-flight flits = 3 (0 measured)
latency change    = 1
throughput change = 1
Class 0:
Packet latency average = 33.0881
	minimum = 7
	maximum = 68
Network latency average = 33.0881
	minimum = 7
	maximum = 68
Slowest packet = 4679
Flit latency average = 33.0881
	minimum = 7
	maximum = 68
Slowest flit = 4679
Fragmentation average = 0
	minimum = 0
	maximum = 0
Injected packet rate average = 0.0100313
	minimum = 0.006 (at node 6)
	maximum = 0.013 (at node 10)
Accepted packet rate average = 0.0099375
	minimum = 0 (at node 0)
	maximum = 0.159 (at node 11)
Injected flit rate average = 0.0100313
	minimum = 0.006 (at node 6)
	maximum = 0.013 (at node 10)
Accepted flit rate average= 0.0099375
	minimum = 0 (at node 0)
	maximum = 0.159 (at node 11)
Injected packet length average = 1
Accepted packet length average = 1
Total in-flight flits = 3 (0 measured)
latency change    = 0.0377004
throughput change = 0.0251572
Class 0:
Packet latency average = 31.3006
	minimum = 8
	maximum = 60
Network latency average = 31.3006
	minimum = 8
	maximum = 60
Slowest packet = 5029
Flit latency average = 31.3006
	minimum = 8
	maximum = 60
Slowest flit = 5029
Fragmentation average = 0
	minimum = 0
	maximum = 0
Injected packet rate average = 0.0105
	minimum = 0.007 (at node 0)
	maximum = 0.015 (at node 15)
Accepted packet rate average = 0.0101875
	minimum = 0 (at node 0)
	maximum = 0.163 (at node 11)
Injected flit rate average = 0.0105
	minimum = 0.007 (at node 0)
	maximum = 0.015 (at node 15)
Accepted flit rate average= 0.0101875
	minimum = 0 (at node 0)
	maximum = 0.163 (at node 11)
Injected packet length average = 1
Accepted packet length average = 1
Total in-flight flits = 8 (0 measured)
latency change    = 0.0571055
throughput change = 0.0245399
Warmed up ...Time used is 3000 cycles
Class 0:
Packet latency average = 32.7832
	minimum = 7
	maximum = 63
Network latency average = 32.7832
	minimum = 7
	maximum = 63
Slowest packet = 5107
Flit latency average = 32.894
	minimum = 7
	maximum = 63
Slowest flit = 5107
Fragmentation average = 0
	minimum = 0
	maximum = 0
Injected packet rate average = 0.009125
	minimum = 0.006 (at node 4)
	maximum = 0.014 (at node 3)
Accepted packet rate average = 0.0094375
	minimum = 0 (at node 0)
	maximum = 0.151 (at node 11)
Injected flit rate average = 0.009125
	minimum = 0.006 (at node 4)
	maximum = 0.014 (at node 3)
Accepted flit rate average= 0.0094375
	minimum = 0 (at node 0)
	maximum = 0.151 (at node 11)
Injected packet length average = 1
Accepted packet length average = 1
Total in-flight flits = 3 (3 measured)
latency change    = 0.0452245
throughput change = 0.0794702
Class 0:
Packet latency average = 33.1296
	minimum = 7
	maximum = 68
Network latency average = 33.1296
	minimum = 7
	maximum = 68
Slowest packet = 5365
Flit latency average = 33.1748
	minimum = 7
	maximum = 68
Slowest flit = 5365
Fragmentation average = 0
	minimum = 0
	maximum = 0
Injected packet rate average = 0.00953125
	minimum = 0.006 (at node 4)
	maximum = 0.014 (at node 12)
Accepted packet rate average = 0.00965625
	minimum = 0 (at node 0)
	maximum = 0.1545 (at node 11)
Injected flit rate average = 0.00953125
	minimum = 0.006 (at node 4)
	maximum = 0.014 (at node 12)
Accepted flit rate average= 0.00965625
	minimum = 0 (at node 0)
	maximum = 0.1545 (at node 11)
Injected packet length average = 1
Accepted packet length average = 1
Total in-flight flits = 4 (4 measured)
latency change    = 0.0104544
throughput change = 0.0226537
Class 0:
Packet latency average = 33.1264
	minimum = 7
	maximum = 68
Network latency average = 33.1264
	minimum = 7
	maximum = 68
Slowest packet = 5365
Flit latency average = 33.1574
	minimum = 7
	maximum = 68
Slowest flit = 5365
Fragmentation average = 0
	minimum = 0
	maximum = 0
Injected packet rate average = 0.00929167
	minimum = 0.00666667 (at node 0)
	maximum = 0.0143333 (at node 12)
Accepted packet rate average = 0.00939583
	minimum = 0 (at node 0)
	maximum = 0.150333 (at node 11)
Injected flit rate average = 0.00929167
	minimum = 0.00666667 (at node 0)
	maximum = 0.0143333 (at node 12)
Accepted flit rate average= 0.00939583
	minimum = 0 (at node 0)
	maximum = 0.150333 (at node 11)
Injected packet length average = 1
Accepted packet length average = 1
Total in-flight flits = 3 (3 measured)
latency change    = 9.53098e-05
throughput change = 0.0277162
Class 0:
Packet latency average = 32.7563
	minimum = 7
	maximum = 68
Network latency average = 32.7563
	minimum = 7
	maximum = 68
Slowest packet = 5365
Flit latency average = 32.7844
	minimum = 7
	maximum = 68
Slowest flit = 5365
Fragmentation average = 0
	minimum = 0
	maximum = 0
Injected packet rate average = 0.00940625
	minimum = 0.00675 (at node 0)
	maximum = 0.01225 (at node 13)
Accepted packet rate average = 0.00942187
	minimum = 0 (at node 0)
	maximum = 0.15075 (at node 11)
Injected flit rate average = 0.00940625
	minimum = 0.00675 (at node 0)
	maximum = 0.01225 (at node 13)
Accepted flit rate average= 0.00942187
	minimum = 0 (at node 0)
	maximum = 0.15075 (at node 11)
Injected packet length average = 1
Accepted packet length average = 1
Total in-flight flits = 7 (7 measured)
latency change    = 0.0112988
throughput change = 0.00276396
Draining all recorded packets ...
Draining remaining packets ...
Time taken is 7068 cycles
Class 0:
Packet latency average = 32.8493
	minimum = 7
	maximum = 57
Network latency average = 32.8493
	minimum = 7
	maximum = 57
Slowest packet = 5816
Flit latency average = 32.8493
	minimum = 7
	maximum = 57
Slowest flit = 5816
Fragmentation average = 0
	minimum = 0
	maximum = 0
Injected packet rate average = 0.0098125
	minimum = 0.005 (at node 11)
	maximum = 0.014 (at node 8)
Accepted packet rate average = 0.009125
	minimum = 0 (at node 0)
	maximum = 0.146 (at node 11)
Injected flit rate average = 0.0098125
	minimum = 0.005 (at node 11)
	maximum = 0.014 (at node 8)
Accepted flit rate average= 0.009125
	minimum = 0 (at node 0)
	maximum = 0.146 (at node 11)
Injected packet length average = 1
Accepted packet length average = 1
Total in-flight flits = 11 (0 measured)
latency change    = 1
throughput change = 1
Class 0:
Packet latency average = 32.4539
	minimum = 7
	maximum = 58
Network latency average = 32.4539
	minimum = 7
	maximum = 58
Slowest packet = 5952
Flit latency average = 32.4539
	minimum = 7
	maximum = 58
Slowest flit = 5952
Fragmentation average = 0
	minimum = 0
	maximum = 0
Injected packet rate average = 0.00971875
	minimum = 0.006 (at node 6)
	maximum = 0.013 (at node 8)
Accepted packet rate average = 0.0095
	minimum = 0 (at node 0)
	maximum = 0.152 (at node 11)
Injected flit rate average = 0.00971875
	minimum = 0.006 (at node 6)
	maximum = 0.013 (at node 8)
Accepted flit rate average= 0.0095
	minimum = 0 (at node 0)
	maximum = 0.152 (at node 11)
Injected packet length average = 1
Accepted packet length average = 1
Total in-flight flits = 7 (0 measured)
latency change    = 0.0121824
throughput change = 0.0394737
Class 0:
Packet latency average = 31.0172
	minimum = 7
	maximum = 62
Network latency average = 31.0172
	minimum = 7
	maximum = 62
Slowest packet = 6158
Flit latency average = 31.0172
	minimum = 7
	maximum = 62
Slowest flit = 6158
Fragmentation average = 0
	minimum = 0
	maximum = 0
Injected packet rate average = 0.010875
	minimum = 0.005 (at node 1)
	maximum = 0.017 (at node 6)
Accepted packet rate average = 0.010875
	minimum = 0 (at node 0)
	maximum = 0.174 (at node 11)
Injected flit rate average = 0.010875
	minimum = 0.005 (at node 1)
	maximum = 0.017 (at node 6)
Accepted flit rate average= 0.010875
	minimum = 0 (at node 0)
	maximum = 0.174 (at node 11)
Injected packet length average = 1
Accepted packet length average = 1
Total in-flight flits = 7 (0 measured)
latency change    = 0.0463196
throughput change = 0.126437
Warmed up ...Time used is 3000 cycles
Class 0:
Packet latency average = 32.6972
	minimum = 7
	maximum = 57
Network latency average = 32.6972
	minimum = 7
	maximum = 57
Slowest packet = 6314
Flit latency average = 32.7181
	minimum = 7
	maximum = 57
Slowest flit = 6314
Fragmentation average = 0
	minimum = 0
	maximum = 0
Injected packet rate average = 0.009125
	minimum = 0.005 (at node 8)
	maximum = 0.014 (at node 1)
Accepted packet rate average = 0.0093125
	minimum = 0 (at node 0)
	maximum = 0.149 (at node 11)
Injected flit rate average = 0.009125
	minimum = 0.005 (at node 8)
	maximum = 0.014 (at node 1)
Accepted flit rate average= 0.0093125
	minimum = 0 (at node 0)
	maximum = 0.149 (at node 11)
Injected packet length average = 1
Accepted packet length average = 1
Total in-flight flits = 4 (4 measured)
latency change    = 0.0513788
throughput change = 0.167785
Class 0:
Packet latency average = 32.8205
	minimum = 7
	maximum = 62
Network latency average = 32.8205
	minimum = 7
	maximum = 62
Slowest packet = 6358
Flit latency average = 32.8276
	minimum = 7
	maximum = 62
Slowest flit = 6358
Fragmentation average = 0
	minimum = 0
	maximum = 0
Injected packet rate average = 0.00996875
	minimum = 0.006 (at node 5)
	maximum = 0.0145 (at node 2)
Accepted packet rate average = 0.00996875
	minimum = 0 (at node 0)
	maximum = 0.1595 (at node 11)
Injected flit rate average = 0.00996875
	minimum = 0.006 (at node 5)
	maximum = 0.0145 (at node 2)
Accepted flit rate average= 0.00996875
	minimum = 0 (at node 0)
	maximum = 0.1595 (at node 11)
Injected packet length average = 1
Accepted packet length average = 1
Total in-flight flits = 7 (7 measured)
latency change    = 0.0037577
throughput change = 0.0658307
Class 0:
Packet latency average = 33.3691
	minimum = 7
	maximum = 74
Network latency average = 33.3691
	minimum = 7
	maximum = 74
Slowest packet = 6572
Flit latency average = 33.3659
	minimum = 7
	maximum = 74
Slowest flit = 6572
Fragmentation average = 0
	minimum = 0
	maximum = 0
Injected packet rate average = 0.0101458
	minimum = 0.00733333 (at node 6)
	maximum = 0.0146667 (at node 2)
Accepted packet rate average = 0.01025
	minimum = 0 (at node 0)
	maximum = 0.164 (at node 11)
Injected flit rate average = 0.0101458
	minimum = 0.00733333 (at node 6)
	maximum = 0.0146667 (at node 2)
Accepted flit rate average= 0.01025
	minimum = 0 (at node 0)
	maximum = 0.164 (at node 11)
Injected packet length average = 1
Accepted packet length average = 1
Total in-flight flits = 2 (2 measured)
latency change    = 0.0164392
throughput change = 0.027439
Class 0:
Packet latency average = 33.1163
	minimum = 7
	maximum = 74
Network latency average = 33.1163
	minimum = 7
	maximum = 74
Slowest packet = 6572
Flit latency average = 33.1166
	minimum = 7
	maximum = 74
Slowest flit = 6572
Fragmentation average = 0
	minimum = 0
	maximum = 0
Injected packet rate average = 0.010125
	minimum = 0.0075 (at node 6)
	maximum = 0.01325 (at node 7)
Accepted packet rate average = 0.0101875
	minimum = 0 (at node 0)
	maximum = 0.163 (at node 11)
Injected flit rate average = 0.010125
	minimum = 0.0075 (at node 6)
	maximum = 0.01325 (at node 7)
Accepted flit rate average= 0.0101875
	minimum = 0 (at node 0)
	maximum = 0.163 (at node 11)
Injected packet length average = 1
Accepted packet length average = 1
Total in-flight flits = 3 (3 measured)
latency change    = 0.0076335
throughput change = 0.00613497
Class 0:
Packet latency average = 32.8818
	minimum = 7
	maximum = 74
Network latency average = 32.8818
	minimum = 7
	maximum = 74
Slowest packet = 6572
Flit latency average = 32.8841
	minimum = 7
	maximum = 74
Slowest flit = 6572
Fragmentation average = 0
	minimum = 0
	maximum = 0
Injected packet rate average = 0.0101125
	minimum = 0.0084 (at node 8)
	maximum = 0.0126 (at node 4)
Accepted packet rate average = 0.0101375
	minimum = 0 (at node 0)
	maximum = 0.1622 (at node 11)
Injected flit rate average = 0.0101125
	minimum = 0.0084 (at node 8)
	maximum = 0.0126 (at node 4)
Accepted flit rate average= 0.0101375
	minimum = 0 (at node 0)
	maximum = 0.1622 (at node 11)
Injected packet length average = 1
Accepted packet length average = 1
Total in-flight flits = 5 (5 measured)
latency change    = 0.00712972
throughput change = 0.00493218
Draining all recorded packets ...
Draining remaining packets ...
Time taken is 8073 cycles
Class 0:
Packet latency average = 31.0461
	minimum = 7
	maximum = 60
Network latency average = 31.0461
	minimum = 7
	maximum = 60
Slowest packet = 7015
Flit latency average = 31.0461
	minimum = 7
	maximum = 60
Slowest flit = 7015
Fragmentation average = 0
	minimum = 0
	maximum = 0
Injected packet rate average = 0.0098125
	minimum = 0.005 (at node 6)
	maximum = 0.017 (at node 8)
Accepted packet rate average = 0.0095
	minimum = 0 (at node 0)
	maximum = 0.152 (at node 11)
Injected flit rate average = 0.0098125
	minimum = 0.005 (at node 6)
	maximum = 0.017 (at node 8)
Accepted flit rate average= 0.0095
	minimum = 0 (at node 0)
	maximum = 0.152 (at node 11)
Injected packet length average = 1
Accepted packet length average = 1
Total in-flight flits = 5 (0 measured)
latency change    = 1
throughput change = 1
Class 0:
Packet latency average = 32.3457
	minimum = 7
	maximum = 68
Network latency average = 32.3457
	minimum = 7
	maximum = 68
Slowest packet = 7282
Flit latency average = 32.3457
	minimum = 7
	maximum = 68
Slowest flit = 7282
Fragmentation average = 0
	minimum = 0
	maximum = 0
Injected packet rate average = 0.0109687
	minimum = 0.0045 (at node 12)
	maximum = 0.0155 (at node 15)
Accepted packet rate average = 0.0109375
	minimum = 0 (at node 0)
	maximum = 0.175 (at node 11)
Injected flit rate average = 0.0109687
	minimum = 0.0045 (at node 12)
	maximum = 0.0155 (at node 15)
Accepted flit rate average= 0.0109375
	minimum = 0 (at node 0)
	maximum = 0.175 (at node 11)
Injected packet length average = 1
Accepted packet length average = 1
Total in-flight flits = 1 (0 measured)
latency change    = 0.0401803
throughput change = 0.131429
Class 0:
Packet latency average = 32.2632
	minimum = 7
	maximum = 57
Network latency average = 32.2632
	minimum = 7
	maximum = 57
Slowest packet = 7395
Flit latency average = 32.2632
	minimum = 7
	maximum = 57
Slowest flit = 7395
Fragmentation average = 0
	minimum = 0
	maximum = 0
Injected packet rate average = 0.009875
	minimum = 0.005 (at node 0)
	maximum = 0.015 (at node 7)
Accepted packet rate average = 0.0095
	minimum = 0 (at node 0)
	maximum = 0.152 (at node 11)
Injected flit rate average = 0.009875
	minimum = 0.005 (at node 0)
	maximum = 0.015 (at node 7)
Accepted flit rate average= 0.0095
	minimum = 0 (at node 0)
	maximum = 0.152 (at node 11)
Injected packet length average = 1
Accepted packet length average = 1
Total in-flight flits = 7 (0 measured)
latency change    = 0.00255884
throughput change = 0.151316
Warmed up ...Time used is 3000 cycles
Class 0:
Packet latency average = 33.8802
	minimum = 7
	maximum = 62
Network latency average = 33.8802
	minimum = 7
	maximum = 62
Slowest packet = 7522
Flit latency average = 34.023
	minimum = 7
	maximum = 62
Slowest flit = 7522
Fragmentation average = 0
	minimum = 0
	maximum = 0
Injected packet rate average = 0.0106875
	minimum = 0.005 (at node 3)
	maximum = 0.015 (at node 9)
Accepted packet rate average = 0.010875
	minimum = 0 (at node 0)
	maximum = 0.174 (at node 11)
Injected flit rate average = 0.0106875
	minimum = 0.005 (at node 3)
	maximum = 0.015 (at node 9)
Accepted flit rate average= 0.010875
	minimum = 0 (at node 0)
	maximum = 0.174 (at node 11)
Injected packet length average = 1
Accepted packet length average = 1
Total in-flight flits = 4 (4 measured)
latency change    = 0.0477293
throughput change = 0.126437
Class 0:
Packet latency average = 32.7344
	minimum = 7
	maximum = 62
Network latency average = 32.7344
	minimum = 7
	maximum = 62
Slowest packet = 7522
Flit latency average = 32.8349
	minimum = 7
	maximum = 62
Slowest flit = 7522
Fragmentation average = 0
	minimum = 0
	maximum = 0
Injected packet rate average = 0.010125
	minimum = 0.0065 (at node 10)
	maximum = 0.014 (at node 8)
Accepted packet rate average = 0.0102188
	minimum = 0 (at node 0)
	maximum = 0.1635 (at node 11)
Injected flit rate average = 0.010125
	minimum = 0.0065 (at node 10)
	maximum = 0.014 (at node 8)
Accepted flit rate average= 0.0102188
	minimum = 0 (at node 0)
	maximum = 0.1635 (at node 11)
Injected packet length average = 1
Accepted packet length average = 1
Total in-flight flits = 4 (4 measured)
latency change    = 0.0350049
throughput change = 0.0642202
Class 0:
Packet latency average = 32.877
	minimum = 7
	maximum = 62
Network latency average = 32.877
	minimum = 7
	maximum = 62
Slowest packet = 7522
Flit latency average = 32.9414
	minimum = 7
	maximum = 62
Slowest flit = 7522
Fragmentation average = 0
	minimum = 0
	maximum = 0
Injected packet rate average = 0.0102292
	minimum = 0.00766667 (at node 2)
	maximum = 0.0126667 (at node 6)
Accepted packet rate average = 0.0103125
	minimum = 0 (at node 0)
	maximum = 0.165 (at node 11)
Injected flit rate average = 0.0102292
	minimum = 0.00766667 (at node 2)
	maximum = 0.0126667 (at node 6)
Accepted flit rate average= 0.0103125
	minimum = 0 (at node 0)
	maximum = 0.165 (at node 11)
Injected packet length average = 1
Accepted packet length average = 1
Total in-flight flits = 3 (3 measured)
latency change    = 0.00433963
throughput change = 0.00909091
Class 0:
Packet latency average = 33.2227
	minimum = 7
	maximum = 62
Network latency average = 33.2227
	minimum = 7
	maximum = 62
Slowest packet = 7522
Flit latency average = 33.2681
	minimum = 7
	maximum = 62
Slowest flit = 7522
Fragmentation average = 0
	minimum = 0
	maximum = 0
Injected packet rate average = 0.010125
	minimum = 0.00775 (at node 10)
	maximum = 0.01275 (at node 8)
Accepted packet rate average = 0.0101406
	minimum = 0 (at node 0)
	maximum = 0.16225 (at node 11)
Injected flit rate average = 0.010125
	minimum = 0.00775 (at node 10)
	maximum = 0.01275 (at node 8)
Accepted flit rate average= 0.0101406
	minimum = 0 (at node 0)
	maximum = 0.16225 (at node 11)
Injected packet length average = 1
Accepted packet length average = 1
Total in-flight flits = 6 (6 measured)
latency change    = 0.0104053
throughput change = 0.0169492
Class 0:
Packet latency average = 33.1122
	minimum = 7
	maximum = 62
Network latency average = 33.1122
	minimum = 7
	maximum = 62
Slowest packet = 7522
Flit latency average = 33.1491
	minimum = 7
	maximum = 62
Slowest flit = 7522
Fragmentation average = 0
	minimum = 0
	maximum = 0
Injected packet rate average = 0.0102
	minimum = 0.0078 (at node 10)
	maximum = 0.0124 (at node 8)
Accepted packet rate average = 0.010225
	minimum = 0 (at node 0)
	maximum = 0.1636 (at node 11)
Injected flit rate average = 0.0102
	minimum = 0.0078 (at node 10)
	maximum = 0.0124 (at node 8)
Accepted flit rate average= 0.010225
	minimum = 0 (at node 0)
	maximum = 0.1636 (at node 11)
Injected packet length average = 1
Accepted packet length average = 1
Total in-flight flits = 5 (5 measured)
latency change    = 0.00333817
throughput change = 0.00825183
Draining all recorded packets ...
Draining remaining packets ...
Time taken is 8063 cycles
Class 0:
Packet latency average = 33.5033
	minimum = 7
	maximum = 62
Network latency average = 33.5033
	minimum = 7
	maximum = 62
Slowest packet = 8356
Flit latency average = 33.5033
	minimum = 7
	maximum = 62
Slowest flit = 8356
Fragmentation average = 0
	minimum = 0
	maximum = 0
Injected packet rate average = 0.009625
	minimum = 0.003 (at node 4)
	maximum = 0.019 (at node 15)
Accepted packet rate average = 0.0095625
	minimum = 0 (at node 0)
	maximum = 0.153 (at node 11)
Injected flit rate average = 0.009625
	minimum = 0.003 (at node 4)
	maximum = 0.019 (at node 15)
Accepted flit rate average= 0.0095625
	minimum = 0 (at node 0)
	maximum = 0.153 (at node 11)
Injected packet length average = 1
Accepted packet length average = 1
Total in-flight flits = 1 (0 measured)
latency change    = 1
throughput change = 1
Class 0:
Packet latency average = 32.8296
	minimum = 7
	maximum = 62
Network latency average = 32.8296
	minimum = 7
	maximum = 62
Slowest packet = 8356
Flit latency average = 32.8296
	minimum = 7
	maximum = 62
Slowest flit = 8356
Fragmentation average = 0
	minimum = 0
	maximum = 0
Injected packet rate average = 0.0098125
	minimum = 0.006 (at node 10)
	maximum = 0.0145 (at node 2)
Accepted packet rate average = 0.00971875
	minimum = 0 (at node 0)
	maximum = 0.1555 (at node 11)
Injected flit rate average = 0.0098125
	minimum = 0.006 (at node 10)
	maximum = 0.0145 (at node 2)
Accepted flit rate average= 0.00971875
	minimum = 0 (at node 0)
	maximum = 0.1555 (at node 11)
Injected packet length average = 1
Accepted packet length average = 1
Total in-flight flits = 3 (0 measured)
latency change    = 0.0205207
throughput change = 0.0160772
Class 0:
Packet latency average = 33.2958
	minimum = 7
	maximum = 62
Network latency average = 33.2958
	minimum = 7
	maximum = 62
Slowest packet = 8778
Flit latency average = 33.2958
	minimum = 7
	maximum = 62
Slowest flit = 8778
Fragmentation average = 0
	minimum = 0
	maximum = 0
Injected packet rate average = 0.0090625
	minimum = 0.004 (at node 1)
	maximum = 0.015 (at node 3)
Accepted packet rate average = 0.008875
	minimum = 0 (at node 0)
	maximum = 0.142 (at node 11)
Injected flit rate average = 0.0090625
	minimum = 0.004 (at node 1)
	maximum = 0.015 (at node 3)
Accepted flit rate average= 0.008875
	minimum = 0 (at node 0)
	maximum = 0.142 (at node 11)
Injected packet length average = 1
Accepted packet length average = 1
Total in-flight flits = 6 (0 measured)
latency change    = 0.0140016
throughput change = 0.0950704
Warmed up ...Time used is 3000 cycles
Class 0:
Packet latency average = 33.4615
	minimum = 7
	maximum = 66
Network latency average = 33.4615
	minimum = 7
	maximum = 66
Slowest packet = 8837
Flit latency average = 33.9664
	minimum = 7
	maximum = 66
Slowest flit = 8837
Fragmentation average = 0
	minimum = 0
	maximum = 0
Injected packet rate average = 0.00925
	minimum = 0.004 (at node 1)
	maximum = 0.016 (at node 13)
Accepted packet rate average = 0.0093125
	minimum = 0 (at node 0)
	maximum = 0.149 (at node 11)
Injected flit rate average = 0.00925
	minimum = 0.004 (at node 1)
	maximum = 0.016 (at node 13)
Accepted flit rate average= 0.0093125
	minimum = 0 (at node 0)
	maximum = 0.149 (at node 11)
Injected packet length average = 1
Accepted packet length average = 1
Total in-flight flits = 5 (5 measured)
latency change    = 0.00495386
throughput change = 0.0469799
Class 0:
Packet latency average = 32.6598
	minimum = 7
	maximum = 66
Network latency average = 32.6598
	minimum = 7
	maximum = 66
Slowest packet = 8837
Flit latency average = 32.9293
	minimum = 7
	maximum = 66
Slowest flit = 8837
Fragmentation average = 0
	minimum = 0
	maximum = 0
Injected packet rate average = 0.00915625
	minimum = 0.0055 (at node 12)
	maximum = 0.0145 (at node 15)
Accepted packet rate average = 0.00928125
	minimum = 0 (at node 0)
	maximum = 0.1485 (at node 11)
Injected flit rate average = 0.00915625
	minimum = 0.0055 (at node 12)
	maximum = 0.0145 (at node 15)
Accepted flit rate average= 0.00928125
	minimum = 0 (at node 0)
	maximum = 0.1485 (at node 11)
Injected packet length average = 1
Accepted packet length average = 1
Total in-flight flits = 2 (2 measured)
latency change    = 0.0245484
throughput change = 0.003367
Class 0:
Packet latency average = 32.7506
	minimum = 7
	maximum = 66
Network latency average = 32.7506
	minimum = 7
	maximum = 66
Slowest packet = 8837
Flit latency average = 32.9253
	minimum = 7
	maximum = 66
Slowest flit = 8837
Fragmentation average = 0
	minimum = 0
	maximum = 0
Injected packet rate average = 0.00939583
	minimum = 0.00666667 (at node 4)
	maximum = 0.012 (at node 15)
Accepted packet rate average = 0.00947917
	minimum = 0 (at node 0)
	maximum = 0.151667 (at node 11)
Injected flit rate average = 0.00939583
	minimum = 0.00666667 (at node 4)
	maximum = 0.012 (at node 15)
Accepted flit rate average= 0.00947917
	minimum = 0 (at node 0)
	maximum = 0.151667 (at node 11)
Injected packet length average = 1
Accepted packet length average = 1
Total in-flight flits = 2 (2 measured)
latency change    = 0.00277134
throughput change = 0.0208791
Draining all recorded packets ...
Draining remaining packets ...
Time taken is 6052 cycles
Class 0:
Packet latency average = 31.6689
	minimum = 7
	maximum = 57
Network latency average = 31.6689
	minimum = 7
	maximum = 57
Slowest packet = 9263
Flit latency average = 31.6689
	minimum = 7
	maximum = 57
Slowest flit = 9263
Fragmentation average = 0
	minimum = 0
	maximum = 0
Injected packet rate average = 0.00975
	minimum = 0.005 (at node 3)
	maximum = 0.016 (at node 5)
Accepted packet rate average = 0.00925
	minimum = 0 (at node 0)
	maximum = 0.148 (at node 11)
Injected flit rate average = 0.00975
	minimum = 0.005 (at node 3)
	maximum = 0.016 (at node 5)
Accepted flit rate average= 0.00925
	minimum = 0 (at node 0)
	maximum = 0.148 (at node 11)
Injected packet length average = 1
Accepted packet length average = 1
Total in-flight flits = 8 (0 measured)
latency change    = 1
throughput change = 1
Class 0:
Packet latency average = 32.5877
	minimum = 7
	maximum = 63
Network latency average = 32.5877
	minimum = 7
	maximum = 63
Slowest packet = 9467
Flit latency average = 32.5877
	minimum = 7
	maximum = 63
Slowest flit = 9467
Fragmentation average = 0
	minimum = 0
	maximum = 0
Injected packet rate average = 0.0098125
	minimum = 0.007 (at node 8)
	maximum = 0.0145 (at node 7)
Accepted packet rate average = 0.009625
	minimum = 0 (at node 0)
	maximum = 0.154 (at node 11)
Injected flit rate average = 0.0098125
	minimum = 0.007 (at node 8)
	maximum = 0.0145 (at node 7)
Accepted flit rate average= 0.009625
	minimum = 0 (at node 0)
	maximum = 0.154 (at node 11)
Injected packet length average = 1
Accepted packet length average = 1
Total in-flight flits = 6 (0 measured)
latency change    = 0.028193
throughput change = 0.038961
Class 0:
Packet latency average = 32.4759
	minimum = 12
	maximum = 57
Network latency average = 32.4759
	minimum = 12
	maximum = 57
Slowest packet = 9638
Flit latency average = 32.4759
	minimum = 12
	maximum = 57
Slowest flit = 9638
Fragmentation average = 0
	minimum = 0
	maximum = 0
Injected packet rate average = 0.0100625
	minimum = 0.006 (at node 4)
	maximum = 0.014 (at node 2)
Accepted packet rate average = 0.010375
	minimum = 0 (at node 0)
	maximum = 0.166 (at node 11)
Injected flit rate average = 0.0100625
	minimum = 0.006 (at node 4)
	maximum = 0.014 (at node 2)
Accepted flit rate average= 0.010375
	minimum = 0 (at node 0)
	maximum = 0.166 (at node 11)
Injected packet length average = 1
Accepted packet length average = 1
Total in-flight flits = 1 (0 measured)
latency change    = 0.00344128
throughput change = 0.0722892
Warmed up ...Time used is 3000 cycles
Class 0:
Packet latency average = 32.9732
	minimum = 7
	maximum = 69
Network latency average = 32.9732
	minimum = 7
	maximum = 69
Slowest packet = 9742
Flit latency average = 33.0667
	minimum = 7
	maximum = 69
Slowest flit = 9742
Fragmentation average = 0
	minimum = 0
	maximum = 0
Injected packet rate average = 0.0095625
	minimum = 0.002 (at node 7)
	maximum = 0.018 (at node 12)
Accepted packet rate average = 0.009375
	minimum = 0 (at node 0)
	maximum = 0.15 (at node 11)
Injected flit rate average = 0.0095625
	minimum = 0.002 (at node 7)
	maximum = 0.018 (at node 12)
Accepted flit rate average= 0.009375
	minimum = 0 (at node 0)
	maximum = 0.15 (at node 11)
Injected packet length average = 1
Accepted packet length average = 1
Total in-flight flits = 4 (4 measured)
latency change    = 0.0150805
throughput change = 0.106667
Class 0:
Packet latency average = 32.3333
	minimum = 7
	maximum = 69
Network latency average = 32.3333
	minimum = 7
	maximum = 69
Slowest packet = 9742
Flit latency average = 32.3826
	minimum = 7
	maximum = 69
Slowest flit = 9742
Fragmentation average = 0
	minimum = 0
	maximum = 0
Injected packet rate average = 0.009375
	minimum = 0.004 (at node 7)
	maximum = 0.014 (at node 12)
Accepted packet rate average = 0.0093125
	minimum = 0 (at node 0)
	maximum = 0.149 (at node 11)
Injected flit rate average = 0.009375
	minimum = 0.004 (at node 7)
	maximum = 0.014 (at node 12)
Accepted flit rate average= 0.0093125
	minimum = 0 (at node 0)
	maximum = 0.149 (at node 11)
Injected packet length average = 1
Accepted packet length average = 1
Total in-flight flits = 3 (3 measured)
latency change    = 0.0197883
throughput change = 0.00671141
Class 0:
Packet latency average = 32.2436
	minimum = 7
	maximum = 69
Network latency average = 32.2436
	minimum = 7
	maximum = 69
Slowest packet = 9742
Flit latency average = 32.2751
	minimum = 7
	maximum = 69
Slowest flit = 9742
Fragmentation average = 0
	minimum = 0
	maximum = 0
Injected packet rate average = 0.0099375
	minimum = 0.00533333 (at node 7)
	maximum = 0.0126667 (at node 12)
Accepted packet rate average = 0.00977083
	minimum = 0 (at node 0)
	maximum = 0.156333 (at node 11)
Injected flit rate average = 0.0099375
	minimum = 0.00533333 (at node 7)
	maximum = 0.0126667 (at node 12)
Accepted flit rate average= 0.00977083
	minimum = 0 (at node 0)
	maximum = 0.156333 (at node 11)
Injected packet length average = 1
Accepted packet length average = 1
Total in-flight flits = 9 (9 measured)
latency change    = 0.0027833
throughput change = 0.0469083
Class 0:
Packet latency average = 32.3266
	minimum = 7
	maximum = 69
Network latency average = 32.3266
	minimum = 7
	maximum = 69
Slowest packet = 9742
Flit latency average = 32.3514
	minimum = 7
	maximum = 69
Slowest flit = 9742
Fragmentation average = 0
	minimum = 0
	maximum = 0
Injected packet rate average = 0.009375
	minimum = 0.006 (at node 7)
	maximum = 0.01125 (at node 3)
Accepted packet rate average = 0.00925
	minimum = 0 (at node 0)
	maximum = 0.148 (at node 11)
Injected flit rate average = 0.009375
	minimum = 0.006 (at node 7)
	maximum = 0.01125 (at node 3)
Accepted flit rate average= 0.00925
	minimum = 0 (at node 0)
	maximum = 0.148 (at node 11)
Injected packet length average = 1
Accepted packet length average = 1
Total in-flight flits = 9 (9 measured)
latency change    = 0.00256679
throughput change = 0.0563063
Class 0:
Packet latency average = 32.431
	minimum = 7
	maximum = 69
Network latency average = 32.431
	minimum = 7
	maximum = 69
Slowest packet = 9742
Flit latency average = 32.4499
	minimum = 7
	maximum = 69
Slowest flit = 9742
Fragmentation average = 0
	minimum = 0
	maximum = 0
Injected packet rate average = 0.0096625
	minimum = 0.0076 (at node 7)
	maximum = 0.0112 (at node 4)
Accepted packet rate average = 0.0096125
	minimum = 0 (at node 0)
	maximum = 0.1538 (at node 11)
Injected flit rate average = 0.0096625
	minimum = 0.0076 (at node 7)
	maximum = 0.0112 (at node 4)
Accepted flit rate average= 0.0096125
	minimum = 0 (at node 0)
	maximum = 0.1538 (at node 11)
Injected packet length average = 1
Accepted packet length average = 1
Total in-flight flits = 5 (5 measured)
latency change    = 0.0032199
throughput change = 0.0377113
Class 0:
Packet latency average = 32.5314
	minimum = 7
	maximum = 73
Network latency average = 32.5314
	minimum = 7
	maximum = 73
Slowest packet = 10536
Flit latency average = 32.5473
	minimum = 7
	maximum = 73
Slowest flit = 10536
Fragmentation average = 0
	minimum = 0
	maximum = 0
Injected packet rate average = 0.00953125
	minimum = 0.00816667 (at node 7)
	maximum = 0.0111667 (at node 10)
Accepted packet rate average = 0.00947917
	minimum = 0 (at node 0)
	maximum = 0.151667 (at node 11)
Injected flit rate average = 0.00953125
	minimum = 0.00816667 (at node 7)
	maximum = 0.0111667 (at node 10)
Accepted flit rate average= 0.00947917
	minimum = 0 (at node 0)
	maximum = 0.151667 (at node 11)
Injected packet length average = 1
Accepted packet length average = 1
Total in-flight flits = 6 (6 measured)
latency change    = 0.00308513
throughput change = 0.0140659
Class 0:
Packet latency average = 32.4173
	minimum = 7
	maximum = 73
Network latency average = 32.4173
	minimum = 7
	maximum = 73
Slowest packet = 10536
Flit latency average = 32.4308
	minimum = 7
	maximum = 73
Slowest flit = 10536
Fragmentation average = 0
	minimum = 0
	maximum = 0
Injected packet rate average = 0.00963393
	minimum = 0.00814286 (at node 0)
	maximum = 0.0112857 (at node 10)
Accepted packet rate average = 0.00961607
	minimum = 0 (at node 0)
	maximum = 0.153857 (at node 11)
Injected flit rate average = 0.00963393
	minimum = 0.00814286 (at node 0)
	maximum = 0.0112857 (at node 10)
Accepted flit rate average= 0.00961607
	minimum = 0 (at node 0)
	maximum = 0.153857 (at node 11)
Injected packet length average = 1
Accepted packet length average = 1
Total in-flight flits = 3 (3 measured)
latency change    = 0.00351871
throughput change = 0.0142371
Draining all recorded packets ...
Draining remaining packets ...
Time taken is 10081 cycles
Class 0:
Packet latency average = 32.6592
	minimum = 12
	maximum = 66
Network latency average = 32.6592
	minimum = 12
	maximum = 66
Slowest packet = 10908
Flit latency average = 32.6592
	minimum = 12
	maximum = 66
Slowest flit = 10908
Fragmentation average = 0
	minimum = 0
	maximum = 0
Injected packet rate average = 0.0114375
	minimum = 0.007 (at node 3)
	maximum = 0.019 (at node 8)
Accepted packet rate average = 0.0111875
	minimum = 0 (at node 0)
	maximum = 0.179 (at node 11)
Injected flit rate average = 0.0114375
	minimum = 0.007 (at node 3)
	maximum = 0.019 (at node 8)
Accepted flit rate average= 0.0111875
	minimum = 0 (at node 0)
	maximum = 0.179 (at node 11)
Injected packet length average = 1
Accepted packet length average = 1
Total in-flight flits = 4 (0 measured)
latency change    = 1
throughput change = 1
Class 0:
Packet latency average = 32.0704
	minimum = 7
	maximum = 66
Network latency average = 32.0704
	minimum = 7
	maximum = 66
Slowest packet = 10908
Flit latency average = 32.0704
	minimum = 7
	maximum = 66
Slowest flit = 10908
Fragmentation average = 0
	minimum = 0
	maximum = 0
Injected packet rate average = 0.0107188
	minimum = 0.006 (at node 12)
	maximum = 0.016 (at node 8)
Accepted packet rate average = 0.0106563
	minimum = 0 (at node 0)
	maximum = 0.1705 (at node 11)
Injected flit rate average = 0.0107188
	minimum = 0.006 (at node 12)
	maximum = 0.016 (at node 8)
Accepted flit rate average= 0.0106563
	minimum = 0 (at node 0)
	maximum = 0.1705 (at node 11)
Injected packet length average = 1
Accepted packet length average = 1
Total in-flight flits = 2 (0 measured)
latency change    = 0.0183608
throughput change = 0.0498534
Class 0:
Packet latency average = 33.8268
	minimum = 12
	maximum = 62
Network latency average = 33.8268
	minimum = 12
	maximum = 62
Slowest packet = 11175
Flit latency average = 33.8268
	minimum = 12
	maximum = 62
Slowest flit = 11175
Fragmentation average = 0
	minimum = 0
	maximum = 0
Injected packet rate average = 0.0115
	minimum = 0.006 (at node 7)
	maximum = 0.019 (at node 5)
Accepted packet rate average = 0.0111875
	minimum = 0 (at node 0)
	maximum = 0.179 (at node 11)
Injected flit rate average = 0.0115
	minimum = 0.006 (at node 7)
	maximum = 0.019 (at node 5)
Accepted flit rate average= 0.0111875
	minimum = 0 (at node 0)
	maximum = 0.179 (at node 11)
Injected packet length average = 1
Accepted packet length average = 1
Total in-flight flits = 7 (0 measured)
latency change    = 0.0519243
throughput change = 0.047486
Warmed up ...Time used is 3000 cycles
Class 0:
Packet latency average = 32.1477
	minimum = 12
	maximum = 59
Network latency average = 32.1477
	minimum = 12
	maximum = 59
Slowest packet = 11345
Flit latency average = 32.6987
	minimum = 12
	maximum = 75
Slowest flit = 11340
Fragmentation average = 0
	minimum = 0
	maximum = 0
Injected packet rate average = 0.009375
	minimum = 0.002 (at node 11)
	maximum = 0.016 (at node 1)
Accepted packet rate average = 0.00975
	minimum = 0 (at node 0)
	maximum = 0.156 (at node 11)
Injected flit rate average = 0.009375
	minimum = 0.002 (at node 11)
	maximum = 0.016 (at node 1)
Accepted flit rate average= 0.00975
	minimum = 0 (at node 0)
	maximum = 0.156 (at node 11)
Injected packet length average = 1
Accepted packet length average = 1
Total in-flight flits = 1 (1 measured)
latency change    = 0.0522329
throughput change = 0.147436
Class 0:
Packet latency average = 32.4497
	minimum = 12
	maximum = 63
Network latency average = 32.4497
	minimum = 12
	maximum = 63
Slowest packet = 11563
Flit latency average = 32.7246
	minimum = 12
	maximum = 75
Slowest flit = 11340
Fragmentation average = 0
	minimum = 0
	maximum = 0
Injected packet rate average = 0.0094375
	minimum = 0.0035 (at node 11)
	maximum = 0.0135 (at node 1)
Accepted packet rate average = 0.00953125
	minimum = 0 (at node 0)
	maximum = 0.1525 (at node 11)
Injected flit rate average = 0.0094375
	minimum = 0.0035 (at node 11)
	maximum = 0.0135 (at node 1)
Accepted flit rate average= 0.00953125
	minimum = 0 (at node 0)
	maximum = 0.1525 (at node 11)
Injected packet length average = 1
Accepted packet length average = 1
Total in-flight flits = 4 (4 measured)
latency change    = 0.00930714
throughput change = 0.0229508
Class 0:
Packet latency average = 32.7002
	minimum = 7
	maximum = 64
Network latency average = 32.7002
	minimum = 7
	maximum = 64
Slowest packet = 11776
Flit latency average = 32.8811
	minimum = 7
	maximum = 75
Slowest flit = 11340
Fragmentation average = 0
	minimum = 0
	maximum = 0
Injected packet rate average = 0.00941667
	minimum = 0.00366667 (at node 11)
	maximum = 0.013 (at node 12)
Accepted packet rate average = 0.00945833
	minimum = 0 (at node 0)
	maximum = 0.151333 (at node 11)
Injected flit rate average = 0.00941667
	minimum = 0.00366667 (at node 11)
	maximum = 0.013 (at node 12)
Accepted flit rate average= 0.00945833
	minimum = 0 (at node 0)
	maximum = 0.151333 (at node 11)
Injected packet length average = 1
Accepted packet length average = 1
Total in-flight flits = 5 (5 measured)
latency change    = 0.00766231
throughput change = 0.00770925
Class 0:
Packet latency average = 32.4494
	minimum = 7
	maximum = 64
Network latency average = 32.4494
	minimum = 7
	maximum = 64
Slowest packet = 11776
Flit latency average = 32.5869
	minimum = 7
	maximum = 75
Slowest flit = 11340
Fragmentation average = 0
	minimum = 0
	maximum = 0
Injected packet rate average = 0.00951562
	minimum = 0.00475 (at node 11)
	maximum = 0.01175 (at node 12)
Accepted packet rate average = 0.00953125
	minimum = 0 (at node 0)
	maximum = 0.1525 (at node 11)
Injected flit rate average = 0.00951562
	minimum = 0.00475 (at node 11)
	maximum = 0.01175 (at node 12)
Accepted flit rate average= 0.00953125
	minimum = 0 (at node 0)
	maximum = 0.1525 (at node 11)
Injected packet length average = 1
Accepted packet length average = 1
Total in-flight flits = 6 (6 measured)
latency change    = 0.00772908
throughput change = 0.00765027
Draining all recorded packets ...
Draining remaining packets ...
Time taken is 7057 cycles
Class 0:
Packet latency average = 31.8313
	minimum = 12
	maximum = 56
Network latency average = 31.8313
	minimum = 12
	maximum = 56
Slowest packet = 11990
Flit latency average = 31.8313
	minimum = 12
	maximum = 56
Slowest flit = 11990
Fragmentation average = 0
	minimum = 0
	maximum = 0
Injected packet rate average = 0.0101875
	minimum = 0.005 (at node 1)
	maximum = 0.019 (at node 12)
Accepted packet rate average = 0.01
	minimum = 0 (at node 0)
	maximum = 0.16 (at node 11)
Injected flit rate average = 0.0101875
	minimum = 0.005 (at node 1)
	maximum = 0.019 (at node 12)
Accepted flit rate average= 0.01
	minimum = 0 (at node 0)
	maximum = 0.16 (at node 11)
Injected packet length average = 1
Accepted packet length average = 1
Total in-flight flits = 3 (0 measured)
latency change    = 1
throughput change = 1
Class 0:
Packet latency average = 31.6178
	minimum = 7
	maximum = 56
Network latency average = 31.6178
	minimum = 7
	maximum = 56
Slowest packet = 11990
Flit latency average = 31.6178
	minimum = 7
	maximum = 56
Slowest flit = 11990
Fragmentation average = 0
	minimum = 0
	maximum = 0
Injected packet rate average = 0.01
	minimum = 0.0065 (at node 8)
	maximum = 0.0135 (at node 12)
Accepted packet rate average = 0.0098125
	minimum = 0 (at node 0)
	maximum = 0.157 (at node 11)
Injected flit rate average = 0.01
	minimum = 0.0065 (at node 8)
	maximum = 0.0135 (at node 12)
Accepted flit rate average= 0.0098125
	minimum = 0 (at node 0)
	maximum = 0.157 (at node 11)
Injected packet length average = 1
Accepted packet length average = 1
Total in-flight flits = 6 (0 measured)
latency change    = 0.00674985
throughput change = 0.0191083
Class 0:
Packet latency average = 32.1226
	minimum = 12
	maximum = 62
Network latency average = 32.1226
	minimum = 12
	maximum = 62
Slowest packet = 12377
Flit latency average = 32.1226
	minimum = 12
	maximum = 62
Slowest flit = 12377
Fragmentation average = 0
	minimum = 0
	maximum = 0
Injected packet rate average = 0.0095
	minimum = 0.003 (at node 12)
	maximum = 0.016 (at node 1)
Accepted packet rate average = 0.0096875
	minimum = 0 (at node 0)
	maximum = 0.155 (at node 11)
Injected flit rate average = 0.0095
	minimum = 0.003 (at node 12)
	maximum = 0.016 (at node 1)
Accepted flit rate average= 0.0096875
	minimum = 0 (at node 0)
	maximum = 0.155 (at node 11)
Injected packet length average = 1
Accepted packet length average = 1
Total in-flight flits = 3 (0 measured)
latency change    = 0.0157131
throughput change = 0.0129032
Warmed up ...Time used is 3000 cycles
Class 0:
Packet latency average = 33.8462
	minimum = 7
	maximum = 62
Network latency average = 33.8462
	minimum = 7
	maximum = 62
Slowest packet = 12451
Flit latency average = 33.9012
	minimum = 7
	maximum = 62
Slowest flit = 12451
Fragmentation average = 0
	minimum = 0
	maximum = 0
Injected packet rate average = 0.01075
	minimum = 0.005 (at node 5)
	maximum = 0.016 (at node 10)
Accepted packet rate average = 0.01075
	minimum = 0 (at node 0)
	maximum = 0.172 (at node 11)
Injected flit rate average = 0.01075
	minimum = 0.005 (at node 5)
	maximum = 0.016 (at node 10)
Accepted flit rate average= 0.01075
	minimum = 0 (at node 0)
	maximum = 0.172 (at node 11)
Injected packet length average = 1
Accepted packet length average = 1
Total in-flight flits = 3 (3 measured)
latency change    = 0.0509238
throughput change = 0.0988372
Class 0:
Packet latency average = 32.8571
	minimum = 7
	maximum = 62
Network latency average = 32.8571
	minimum = 7
	maximum = 62
Slowest packet = 12451
Flit latency average = 32.8938
	minimum = 7
	maximum = 62
Slowest flit = 12451
Fragmentation average = 0
	minimum = 0
	maximum = 0
Injected packet rate average = 0.0106875
	minimum = 0.0075 (at node 5)
	maximum = 0.0135 (at node 12)
Accepted packet rate average = 0.0105938
	minimum = 0 (at node 0)
	maximum = 0.1695 (at node 11)
Injected flit rate average = 0.0106875
	minimum = 0.0075 (at node 5)
	maximum = 0.0135 (at node 12)
Accepted flit rate average= 0.0105938
	minimum = 0 (at node 0)
	maximum = 0.1695 (at node 11)
Injected packet length average = 1
Accepted packet length average = 1
Total in-flight flits = 6 (6 measured)
latency change    = 0.0301003
throughput change = 0.0147493
Class 0:
Packet latency average = 32.3996
	minimum = 7
	maximum = 62
Network latency average = 32.3996
	minimum = 7
	maximum = 62
Slowest packet = 12451
Flit latency average = 32.4269
	minimum = 7
	maximum = 62
Slowest flit = 12451
Fragmentation average = 0
	minimum = 0
	maximum = 0
Injected packet rate average = 0.0106042
	minimum = 0.008 (at node 14)
	maximum = 0.014 (at node 3)
Accepted packet rate average = 0.0105417
	minimum = 0 (at node 0)
	maximum = 0.168667 (at node 11)
Injected flit rate average = 0.0106042
	minimum = 0.008 (at node 14)
	maximum = 0.014 (at node 3)
Accepted flit rate average= 0.0105417
	minimum = 0 (at node 0)
	maximum = 0.168667 (at node 11)
Injected packet length average = 1
Accepted packet length average = 1
Total in-flight flits = 6 (6 measured)
latency change    = 0.0141218
throughput change = 0.00494071
Class 0:
Packet latency average = 32.2255
	minimum = 7
	maximum = 62
Network latency average = 32.2255
	minimum = 7
	maximum = 62
Slowest packet = 12451
Flit latency average = 32.2477
	minimum = 7
	maximum = 62
Slowest flit = 12451
Fragmentation average = 0
	minimum = 0
	maximum = 0
Injected packet rate average = 0.0101094
	minimum = 0.00775 (at node 5)
	maximum = 0.01375 (at node 12)
Accepted packet rate average = 0.0100938
	minimum = 0 (at node 0)
	maximum = 0.1615 (at node 11)
Injected flit rate average = 0.0101094
	minimum = 0.00775 (at node 5)
	maximum = 0.01375 (at node 12)
Accepted flit rate average= 0.0100938
	minimum = 0 (at node 0)
	maximum = 0.1615 (at node 11)
Injected packet length average = 1
Accepted packet length average = 1
Total in-flight flits = 4 (4 measured)
latency change    = 0.00540246
throughput change = 0.0443756
Draining all recorded packets ...
Draining remaining packets ...
Time taken is 7086 cycles
Class 0:
Packet latency average = 32.948
	minimum = 7
	maximum = 62
Network latency average = 32.948
	minimum = 7
	maximum = 62
Slowest packet = 13176
Flit latency average = 32.948
	minimum = 7
	maximum = 62
Slowest flit = 13176
Fragmentation average = 0
	minimum = 0
	maximum = 0
Injected packet rate average = 0.0109375
	minimum = 0.006 (at node 1)
	maximum = 0.016 (at node 0)
Accepted packet rate average = 0.0108125
	minimum = 0 (at node 0)
	maximum = 0.173 (at node 11)
Injected flit rate average = 0.0109375
	minimum = 0.006 (at node 1)
	maximum = 0.016 (at node 0)
Accepted flit rate average= 0.0108125
	minimum = 0 (at node 0)
	maximum = 0.173 (at node 11)
Injected packet length average = 1
Accepted packet length average = 1
Total in-flight flits = 2 (0 measured)
latency change    = 1
throughput change = 1
Class 0:
Packet latency average = 33.3591
	minimum = 7
	maximum = 62
Network latency average = 33.3591
	minimum = 7
	maximum = 62
Slowest packet = 13176
Flit latency average = 33.3591
	minimum = 7
	maximum = 62
Slowest flit = 13176
Fragmentation average = 0
	minimum = 0
	maximum = 0
Injected packet rate average = 0.0106563
	minimum = 0.0075 (at node 14)
	maximum = 0.015 (at node 0)
Accepted packet rate average = 0.0105313
	minimum = 0 (at node 0)
	maximum = 0.1685 (at node 11)
Injected flit rate average = 0.0106563
	minimum = 0.0075 (at node 14)
	maximum = 0.015 (at node 0)
Accepted flit rate average= 0.0105313
	minimum = 0 (at node 0)
	maximum = 0.1685 (at node 11)
Injected packet length average = 1
Accepted packet length average = 1
Total in-flight flits = 4 (0 measured)
latency change    = 0.0123227
throughput change = 0.0267062
Class 0:
Packet latency average = 32.1469
	minimum = 12
	maximum = 65
Network latency average = 32.1469
	minimum = 12
	maximum = 65
Slowest packet = 13431
Flit latency average = 32.1469
	minimum = 12
	maximum = 65
Slowest flit = 13431
Fragmentation average = 0
	minimum = 0
	maximum = 0
Injected packet rate average = 0.0113125
	minimum = 0.006 (at node 8)
	maximum = 0.017 (at node 13)
Accepted packet rate average = 0.0110625
	minimum = 0 (at node 0)
	maximum = 0.177 (at node 11)
Injected flit rate average = 0.0113125
	minimum = 0.006 (at node 8)
	maximum = 0.017 (at node 13)
Accepted flit rate average= 0.0110625
	minimum = 0 (at node 0)
	maximum = 0.177 (at node 11)
Injected packet length average = 1
Accepted packet length average = 1
Total in-flight flits = 8 (0 measured)
latency change    = 0.0377068
throughput change = 0.0480226
Warmed up ...Time used is 3000 cycles
Class 0:
Packet latency average = 32.2071
	minimum = 12
	maximum = 57
Network latency average = 32.2071
	minimum = 12
	maximum = 57
Slowest packet = 13662
Flit latency average = 32.4392
	minimum = 12
	maximum = 57
Slowest flit = 13662
Fragmentation average = 0
	minimum = 0
	maximum = 0
Injected packet rate average = 0.0091875
	minimum = 0.005 (at node 0)
	maximum = 0.018 (at node 2)
Accepted packet rate average = 0.00925
	minimum = 0 (at node 0)
	maximum = 0.148 (at node 11)
Injected flit rate average = 0.0091875
	minimum = 0.005 (at node 0)
	maximum = 0.018 (at node 2)
Accepted flit rate average= 0.00925
	minimum = 0 (at node 0)
	maximum = 0.148 (at node 11)
Injected packet length average = 1
Accepted packet length average = 1
Total in-flight flits = 7 (7 measured)
latency change    = 0.00187071
throughput change = 0.195946
Class 0:
Packet latency average = 32.3476
	minimum = 12
	maximum = 61
Network latency average = 32.3476
	minimum = 12
	maximum = 61
Slowest packet = 13898
Flit latency average = 32.4464
	minimum = 12
	maximum = 61
Slowest flit = 13898
Fragmentation average = 0
	minimum = 0
	maximum = 0
Injected packet rate average = 0.0103438
	minimum = 0.0065 (at node 1)
	maximum = 0.0175 (at node 2)
Accepted packet rate average = 0.0105
	minimum = 0 (at node 0)
	maximum = 0.168 (at node 11)
Injected flit rate average = 0.0103438
	minimum = 0.0065 (at node 1)
	maximum = 0.0175 (at node 2)
Accepted flit rate average= 0.0105
	minimum = 0 (at node 0)
	maximum = 0.168 (at node 11)
Injected packet length average = 1
Accepted packet length average = 1
Total in-flight flits = 3 (3 measured)
latency change    = 0.00434092
throughput change = 0.119048
Class 0:
Packet latency average = 32.6245
	minimum = 12
	maximum = 61
Network latency average = 32.6245
	minimum = 12
	maximum = 61
Slowest packet = 13898
Flit latency average = 32.6888
	minimum = 12
	maximum = 61
Slowest flit = 13898
Fragmentation average = 0
	minimum = 0
	maximum = 0
Injected packet rate average = 0.0100208
	minimum = 0.00733333 (at node 1)
	maximum = 0.0136667 (at node 2)
Accepted packet rate average = 0.0100417
	minimum = 0 (at node 0)
	maximum = 0.160667 (at node 11)
Injected flit rate average = 0.0100208
	minimum = 0.00733333 (at node 1)
	maximum = 0.0136667 (at node 2)
Accepted flit rate average= 0.0100417
	minimum = 0 (at node 0)
	maximum = 0.160667 (at node 11)
Injected packet length average = 1
Accepted packet length average = 1
Total in-flight flits = 7 (7 measured)
latency change    = 0.00848785
throughput change = 0.0456432
Class 0:
Packet latency average = 32.6464
	minimum = 7
	maximum = 63
Network latency average = 32.6464
	minimum = 7
	maximum = 63
Slowest packet = 14185
Flit latency average = 32.6951
	minimum = 7
	maximum = 63
Slowest flit = 14185
Fragmentation average = 0
	minimum = 0
	maximum = 0
Injected packet rate average = 0.00982813
	minimum = 0.00775 (at node 7)
	maximum = 0.01225 (at node 2)
Accepted packet rate average = 0.00989063
	minimum = 0 (at node 0)
	maximum = 0.15825 (at node 11)
Injected flit rate average = 0.00982813
	minimum = 0.00775 (at node 7)
	maximum = 0.01225 (at node 2)
Accepted flit rate average= 0.00989063
	minimum = 0 (at node 0)
	maximum = 0.15825 (at node 11)
Injected packet length average = 1
Accepted packet length average = 1
Total in-flight flits = 4 (4 measured)
latency change    = 0.000671664
throughput change = 0.0152712
Class 0:
Packet latency average = 32.9695
	minimum = 7
	maximum = 72
Network latency average = 32.9695
	minimum = 7
	maximum = 72
Slowest packet = 14310
Flit latency average = 33.005
	minimum = 7
	maximum = 72
Slowest flit = 14310
Fragmentation average = 0
	minimum = 0
	maximum = 0
Injected packet rate average = 0.009875
	minimum = 0.0082 (at node 9)
	maximum = 0.0118 (at node 3)
Accepted packet rate average = 0.0099375
	minimum = 0 (at node 0)
	maximum = 0.159 (at node 11)
Injected flit rate average = 0.009875
	minimum = 0.0082 (at node 9)
	maximum = 0.0118 (at node 3)
Accepted flit rate average= 0.0099375
	minimum = 0 (at node 0)
	maximum = 0.159 (at node 11)
Injected packet length average = 1
Accepted packet length average = 1
Total in-flight flits = 3 (3 measured)
latency change    = 0.0098001
throughput change = 0.00471698
Draining all recorded packets ...
Draining remaining packets ...
Time taken is 8067 cycles
Class 0:
Packet latency average = 32.3239
	minimum = 7
	maximum = 64
Network latency average = 32.3239
	minimum = 7
	maximum = 64
Slowest packet = 14484
Flit latency average = 32.3239
	minimum = 7
	maximum = 64
Slowest flit = 14484
Fragmentation average = 0
	minimum = 0
	maximum = 0
Injected packet rate average = 0.0090625
	minimum = 0.003 (at node 12)
	maximum = 0.022 (at node 8)
Accepted packet rate average = 0.008875
	minimum = 0 (at node 0)
	maximum = 0.142 (at node 11)
Injected flit rate average = 0.0090625
	minimum = 0.003 (at node 12)
	maximum = 0.022 (at node 8)
Accepted flit rate average= 0.008875
	minimum = 0 (at node 0)
	maximum = 0.142 (at node 11)
Injected packet length average = 1
Accepted packet length average = 1
Total in-flight flits = 3 (0 measured)
latency change    = 1
throughput change = 1
Class 0:
Packet latency average = 32.3981
	minimum = 7
	maximum = 64
Network latency average = 32.3981
	minimum = 7
	maximum = 64
Slowest packet = 14484
Flit latency average = 32.3981
	minimum = 7
	maximum = 64
Slowest flit = 14484
Fragmentation average = 0
	minimum = 0
	maximum = 0
Injected packet rate average = 0.00975
	minimum = 0.007 (at node 15)
	maximum = 0.0165 (at node 8)
Accepted packet rate average = 0.00965625
	minimum = 0 (at node 0)
	maximum = 0.1545 (at node 11)
Injected flit rate average = 0.00975
	minimum = 0.007 (at node 15)
	maximum = 0.0165 (at node 8)
Accepted flit rate average= 0.00965625
	minimum = 0 (at node 0)
	maximum = 0.1545 (at node 11)
Injected packet length average = 1
Accepted packet length average = 1
Total in-flight flits = 3 (0 measured)
latency change    = 0.00228762
throughput change = 0.0809061
Class 0:
Packet latency average = 32.1944
	minimum = 12
	maximum = 71
Network latency average = 32.1944
	minimum = 12
	maximum = 71
Slowest packet = 14750
Flit latency average = 32.1944
	minimum = 12
	maximum = 71
Slowest flit = 14750
Fragmentation average = 0
	minimum = 0
	maximum = 0
Injected packet rate average = 0.0089375
	minimum = 0.003 (at node 6)
	maximum = 0.016 (at node 4)
Accepted packet rate average = 0.009
	minimum = 0 (at node 0)
	maximum = 0.144 (at node 11)
Injected flit rate average = 0.0089375
	minimum = 0.003 (at node 6)
	maximum = 0.016 (at node 4)
Accepted flit rate average= 0.009
	minimum = 0 (at node 0)
	maximum = 0.144 (at node 11)
Injected packet length average = 1
[...]
	minimum = 12
	maximum = 62
Network latency average = 33.6144
	minimum = 12
	maximum = 62
Slowest packet = 114672
Flit latency average = 33.6144
	minimum = 12
	maximum = 62
Slowest flit = 114672
Fragmentation average = 0
	minimum = 0
	maximum = 0
Injected packet rate average = 0.0099375
	minimum = 0.006 (at node 2)
	maximum = 0.02 (at node 13)
Accepted packet rate average = 0.0095625
	minimum = 0 (at node 0)
	maximum = 0.153 (at node 11)
Injected flit rate average = 0.0099375
	minimum = 0.006 (at node 2)
	maximum = 0.02 (at node 13)
Accepted flit rate average= 0.0095625
	minimum = 0 (at node 0)
	maximum = 0.153 (at node 11)
Injected packet length average = 1
Accepted packet length average = 1
Total in-flight flits = 6 (0 measured)
latency change    = 1
throughput change = 1
Class 0:
Packet latency average = 32.4551
	minimum = 12
	maximum = 62
Network latency average = 32.4551
	minimum = 12
	maximum = 62
Slowest packet = 114672
Flit latency average = 32.4551
	minimum = 12
	maximum = 62
Slowest flit = 114672
Fragmentation average = 0
	minimum = 0
	maximum = 0
Injected packet rate average = 0.0098125
	minimum = 0.007 (at node 2)
	maximum = 0.014 (at node 3)
Accepted packet rate average = 0.00975
	minimum = 0 (at node 0)
	maximum = 0.156 (at node 11)
Injected flit rate average = 0.0098125
	minimum = 0.007 (at node 2)
	maximum = 0.014 (at node 3)
Accepted flit rate average= 0.00975
	minimum = 0 (at node 0)
	maximum = 0.156 (at node 11)
Injected packet length average = 1
Accepted packet length average = 1
Total in-flight flits = 2 (0 measured)
latency change    = 0.0357186
throughput change = 0.0192308
Class 0:
Packet latency average = 31.8882
	minimum = 7
	maximum = 63
Network latency average = 31.8882
	minimum = 7
	maximum = 63
Slowest packet = 114952
Flit latency average = 31.8882
	minimum = 7
	maximum = 63
Slowest flit = 114952
Fragmentation average = 0
	minimum = 0
	maximum = 0
Injected packet rate average = 0.0103125
	minimum = 0.003 (at node 2)
	maximum = 0.016 (at node 6)
Accepted packet rate average = 0.0100625
	minimum = 0 (at node 0)
	maximum = 0.161 (at node 11)
Injected flit rate average = 0.0103125
	minimum = 0.003 (at node 2)
	maximum = 0.016 (at node 6)
Accepted flit rate average= 0.0100625
	minimum = 0 (at node 0)
	maximum = 0.161 (at node 11)
Injected packet length average = 1
Accepted packet length average = 1
Total in-flight flits = 6 (0 measured)
latency change    = 0.0177787
throughput change = 0.0310559
Warmed up ...Time used is 3000 cycles
Class 0:
Packet latency average = 33.0056
	minimum = 12
	maximum = 62
Network latency average = 33.0056
	minimum = 12
	maximum = 62
Slowest packet = 115151
Flit latency average = 33.0437
	minimum = 12
	maximum = 62
Slowest flit = 115151
Fragmentation average = 0
	minimum = 0
	maximum = 0
Injected packet rate average = 0.0115625
	minimum = 0.005 (at node 0)
	maximum = 0.016 (at node 4)
Accepted packet rate average = 0.0114375
	minimum = 0 (at node 0)
	maximum = 0.183 (at node 11)
Injected flit rate average = 0.0115625
	minimum = 0.005 (at node 0)
	maximum = 0.016 (at node 4)
Accepted flit rate average= 0.0114375
	minimum = 0 (at node 0)
	maximum = 0.183 (at node 11)
Injected packet length average = 1
Accepted packet length average = 1
Total in-flight flits = 8 (8 measured)
latency change    = 0.0338564
throughput change = 0.120219
Class 0:
Packet latency average = 32.9683
	minimum = 7
	maximum = 64
Network latency average = 32.9683
	minimum = 7
	maximum = 64
Slowest packet = 115334
Flit latency average = 32.9907
	minimum = 7
	maximum = 64
Slowest flit = 115334
Fragmentation average = 0
	minimum = 0
	maximum = 0
Injected packet rate average = 0.010125
	minimum = 0.006 (at node 0)
	maximum = 0.0135 (at node 1)
Accepted packet rate average = 0.0100313
	minimum = 0 (at node 0)
	maximum = 0.1605 (at node 11)
Injected flit rate average = 0.010125
	minimum = 0.006 (at node 0)
	maximum = 0.0135 (at node 1)
Accepted flit rate average= 0.0100313
	minimum = 0 (at node 0)
	maximum = 0.1605 (at node 11)
Injected packet length average = 1
Accepted packet length average = 1
Total in-flight flits = 9 (9 measured)
latency change    = 0.0011343
throughput change = 0.140187
Class 0:
Packet latency average = 32.1954
	minimum = 7
	maximum = 64
Network latency average = 32.1954
	minimum = 7
	maximum = 64
Slowest packet = 115334
Flit latency average = 32.2197
	minimum = 7
	maximum = 64
Slowest flit = 115334
Fragmentation average = 0
	minimum = 0
	maximum = 0
Injected packet rate average = 0.0101458
	minimum = 0.008 (at node 0)
	maximum = 0.013 (at node 6)
Accepted packet rate average = 0.0101458
	minimum = 0 (at node 0)
	maximum = 0.162333 (at node 11)
Injected flit rate average = 0.0101458
	minimum = 0.008 (at node 0)
	maximum = 0.013 (at node 6)
Accepted flit rate average= 0.0101458
	minimum = 0 (at node 0)
	maximum = 0.162333 (at node 11)
Injected packet length average = 1
Accepted packet length average = 1
Total in-flight flits = 6 (6 measured)
latency change    = 0.0240043
throughput change = 0.0112936
Class 0:
Packet latency average = 32.6371
	minimum = 7
	maximum = 64
Network latency average = 32.6371
	minimum = 7
	maximum = 64
Slowest packet = 115334
Flit latency average = 32.651
	minimum = 7
	maximum = 64
Slowest flit = 115334
Fragmentation average = 0
	minimum = 0
	maximum = 0
Injected packet rate average = 0.0102656
	minimum = 0.00775 (at node 10)
	maximum = 0.01325 (at node 6)
Accepted packet rate average = 0.0102969
	minimum = 0 (at node 0)
	maximum = 0.16475 (at node 11)
Injected flit rate average = 0.0102656
	minimum = 0.00775 (at node 10)
	maximum = 0.01325 (at node 6)
Accepted flit rate average= 0.0102969
	minimum = 0 (at node 0)
	maximum = 0.16475 (at node 11)
Injected packet length average = 1
Accepted packet length average = 1
Total in-flight flits = 4 (4 measured)
latency change    = 0.0135317
throughput change = 0.0146687
Class 0:
Packet latency average = 32.5554
	minimum = 7
	maximum = 64
Network latency average = 32.5554
	minimum = 7
	maximum = 64
Slowest packet = 115334
Flit latency average = 32.5672
	minimum = 7
	maximum = 64
Slowest flit = 115334
Fragmentation average = 0
	minimum = 0
	maximum = 0
Injected packet rate average = 0.0102125
	minimum = 0.0082 (at node 0)
	maximum = 0.012 (at node 1)
Accepted packet rate average = 0.010225
	minimum = 0 (at node 0)
	maximum = 0.1636 (at node 11)
Injected flit rate average = 0.0102125
	minimum = 0.0082 (at node 0)
	maximum = 0.012 (at node 1)
Accepted flit rate average= 0.010225
	minimum = 0 (at node 0)
	maximum = 0.1636 (at node 11)
Injected packet length average = 1
Accepted packet length average = 1
Total in-flight flits = 5 (5 measured)
latency change    = 0.00250775
throughput change = 0.00702934
Draining all recorded packets ...
Draining remaining packets ...
Time taken is 8070 cycles
Class 0:
Packet latency average = 33.2667
	minimum = 12
	maximum = 64
Network latency average = 33.2667
	minimum = 12
	maximum = 64
Slowest packet = 115929
Flit latency average = 33.2667
	minimum = 12
	maximum = 64
Slowest flit = 115929
Fragmentation average = 0
	minimum = 0
	maximum = 0
Injected packet rate average = 0.01075
	minimum = 0.005 (at node 6)
	maximum = 0.015 (at node 0)
Accepted packet rate average = 0.0103125
	minimum = 0 (at node 0)
	maximum = 0.165 (at node 11)
Injected flit rate average = 0.01075
	minimum = 0.005 (at node 6)
	maximum = 0.015 (at node 0)
Accepted flit rate average= 0.0103125
	minimum = 0 (at node 0)
	maximum = 0.165 (at node 11)
Injected packet length average = 1
Accepted packet length average = 1
Total in-flight flits = 7 (0 measured)
latency change    = 1
throughput change = 1
Class 0:
Packet latency average = 32.6932
	minimum = 7
	maximum = 64
Network latency average = 32.6932
	minimum = 7
	maximum = 64
Slowest packet = 115929
Flit latency average = 32.6932
	minimum = 7
	maximum = 64
Slowest flit = 115929
Fragmentation average = 0
	minimum = 0
	maximum = 0
Injected packet rate average = 0.01075
	minimum = 0.0085 (at node 3)
	maximum = 0.0145 (at node 4)
Accepted packet rate average = 0.0105938
	minimum = 0 (at node 0)
	maximum = 0.1695 (at node 11)
Injected flit rate average = 0.01075
	minimum = 0.0085 (at node 3)
	maximum = 0.0145 (at node 4)
Accepted flit rate average= 0.0105938
	minimum = 0 (at node 0)
	maximum = 0.1695 (at node 11)
Injected packet length average = 1
Accepted packet length average = 1
Total in-flight flits = 5 (0 measured)
latency change    = 0.0175404
throughput change = 0.0265487
Class 0:
Packet latency average = 32.9882
	minimum = 12
	maximum = 72
Network latency average = 32.9882
	minimum = 12
	maximum = 72
Slowest packet = 116260
Flit latency average = 32.9882
	minimum = 12
	maximum = 72
Slowest flit = 116260
Fragmentation average = 0
	minimum = 0
	maximum = 0
Injected packet rate average = 0.0104375
	minimum = 0.004 (at node 11)
	maximum = 0.018 (at node 10)
Accepted packet rate average = 0.0105625
	minimum = 0 (at node 0)
	maximum = 0.169 (at node 11)
Injected flit rate average = 0.0104375
	minimum = 0.004 (at node 11)
	maximum = 0.018 (at node 10)
Accepted flit rate average= 0.0105625
	minimum = 0 (at node 0)
	maximum = 0.169 (at node 11)
Injected packet length average = 1
Accepted packet length average = 1
Total in-flight flits = 3 (0 measured)
latency change    = 0.0089411
throughput change = 0.00295858
Warmed up ...Time used is 3000 cycles
Class 0:
Packet latency average = 33
	minimum = 12
	maximum = 71
Network latency average = 33
	minimum = 12
	maximum = 71
Slowest packet = 116425
Flit latency average = 32.9797
	minimum = 12
	maximum = 71
Slowest flit = 116425
Fragmentation average = 0
	minimum = 0
	maximum = 0
Injected packet rate average = 0.009375
	minimum = 0.005 (at node 11)
	maximum = 0.013 (at node 0)
Accepted packet rate average = 0.00925
	minimum = 0 (at node 0)
	maximum = 0.148 (at node 11)
Injected flit rate average = 0.009375
	minimum = 0.005 (at node 11)
	maximum = 0.013 (at node 0)
Accepted flit rate average= 0.00925
	minimum = 0 (at node 0)
	maximum = 0.148 (at node 11)
Injected packet length average = 1
Accepted packet length average = 1
Total in-flight flits = 5 (5 measured)
latency change    = 0.000358616
throughput change = 0.141892
Class 0:
Packet latency average = 32.7203
	minimum = 7
	maximum = 71
Network latency average = 32.7203
	minimum = 7
	maximum = 71
Slowest packet = 116425
Flit latency average = 32.7134
	minimum = 7
	maximum = 71
Slowest flit = 116425
Fragmentation average = 0
	minimum = 0
	maximum = 0
Injected packet rate average = 0.009875
	minimum = 0.006 (at node 2)
	maximum = 0.014 (at node 0)
Accepted packet rate average = 0.0098125
	minimum = 0 (at node 0)
	maximum = 0.157 (at node 11)
Injected flit rate average = 0.009875
	minimum = 0.006 (at node 2)
	maximum = 0.014 (at node 0)
Accepted flit rate average= 0.0098125
	minimum = 0 (at node 0)
	maximum = 0.157 (at node 11)
Injected packet length average = 1
Accepted packet length average = 1
Total in-flight flits = 5 (5 measured)
latency change    = 0.00854953
throughput change = 0.0573248
Class 0:
Packet latency average = 32.6231
	minimum = 7
	maximum = 71
Network latency average = 32.6231
	minimum = 7
	maximum = 71
Slowest packet = 116425
Flit latency average = 32.6191
	minimum = 7
	maximum = 71
Slowest flit = 116425
Fragmentation average = 0
	minimum = 0
	maximum = 0
Injected packet rate average = 0.00989583
	minimum = 0.00833333 (at node 10)
	maximum = 0.0126667 (at node 0)
Accepted packet rate average = 0.00979167
	minimum = 0 (at node 0)
	maximum = 0.156667 (at node 11)
Injected flit rate average = 0.00989583
	minimum = 0.00833333 (at node 10)
	maximum = 0.0126667 (at node 0)
Accepted flit rate average= 0.00979167
	minimum = 0 (at node 0)
	maximum = 0.156667 (at node 11)
Injected packet length average = 1
Accepted packet length average = 1
Total in-flight flits = 8 (8 measured)
latency change    = 0.00297736
throughput change = 0.00212766
Class 0:
Packet latency average = 32.5856
	minimum = 7
	maximum = 71
Network latency average = 32.5856
	minimum = 7
	maximum = 71
Slowest packet = 116425
Flit latency average = 32.5828
	minimum = 7
	maximum = 71
Slowest flit = 116425
Fragmentation average = 0
	minimum = 0
	maximum = 0
Injected packet rate average = 0.00971875
	minimum = 0.00775 (at node 4)
	maximum = 0.012 (at node 0)
Accepted packet rate average = 0.009625
	minimum = 0 (at node 0)
	maximum = 0.154 (at node 11)
Injected flit rate average = 0.00971875
	minimum = 0.00775 (at node 4)
	maximum = 0.012 (at node 0)
Accepted flit rate average= 0.009625
	minimum = 0 (at node 0)
	maximum = 0.154 (at node 11)
Injected packet length average = 1
Accepted packet length average = 1
Total in-flight flits = 9 (9 measured)
latency change    = 0.00115026
throughput change = 0.017316
Class 0:
Packet latency average = 32.415
	minimum = 7
	maximum = 71
Network latency average = 32.415
	minimum = 7
	maximum = 71
Slowest packet = 116425
Flit latency average = 32.4134
	minimum = 7
	maximum = 71
Slowest flit = 116425
Fragmentation average = 0
	minimum = 0
	maximum = 0
Injected packet rate average = 0.0098875
	minimum = 0.0078 (at node 4)
	maximum = 0.0122 (at node 0)
Accepted packet rate average = 0.0098875
	minimum = 0 (at node 0)
	maximum = 0.1582 (at node 11)
Injected flit rate average = 0.0098875
	minimum = 0.0078 (at node 4)
	maximum = 0.0122 (at node 0)
Accepted flit rate average= 0.0098875
	minimum = 0 (at node 0)
	maximum = 0.1582 (at node 11)
Injected packet length average = 1
Accepted packet length average = 1
Total in-flight flits = 3 (3 measured)
latency change    = 0.00526515
throughput change = 0.0265487
Draining all recorded packets ...
Draining remaining packets ...
Time taken is 8036 cycles
Class 0:
Packet latency average = 33.6826
	minimum = 12
	maximum = 66
Network latency average = 33.6826
	minimum = 12
	maximum = 66
Slowest packet = 117245
Flit latency average = 33.6826
	minimum = 12
	maximum = 66
Slowest flit = 117245
Fragmentation average = 0
	minimum = 0
	maximum = 0
Injected packet rate average = 0.0105
	minimum = 0.003 (at node 2)
	maximum = 0.016 (at node 1)
Accepted packet rate average = 0.0104375
	minimum = 0 (at node 0)
	maximum = 0.167 (at node 11)
Injected flit rate average = 0.0105
	minimum = 0.003 (at node 2)
	maximum = 0.016 (at node 1)
Accepted flit rate average= 0.0104375
	minimum = 0 (at node 0)
	maximum = 0.167 (at node 11)
Injected packet length average = 1
Accepted packet length average = 1
Total in-flight flits = 1 (0 measured)
latency change    = 1
throughput change = 1
Class 0:
Packet latency average = 33.5213
	minimum = 7
	maximum = 72
Network latency average = 33.5213
	minimum = 7
	maximum = 72
Slowest packet = 117444
Flit latency average = 33.5213
	minimum = 7
	maximum = 72
Slowest flit = 117444
Fragmentation average = 0
	minimum = 0
	maximum = 0
Injected packet rate average = 0.0104375
	minimum = 0.007 (at node 2)
	maximum = 0.015 (at node 0)
Accepted packet rate average = 0.01025
	minimum = 0 (at node 0)
	maximum = 0.164 (at node 11)
Injected flit rate average = 0.0104375
	minimum = 0.007 (at node 2)
	maximum = 0.015 (at node 0)
Accepted flit rate average= 0.01025
	minimum = 0 (at node 0)
	maximum = 0.164 (at node 11)
Injected packet length average = 1
Accepted packet length average = 1
Total in-flight flits = 6 (0 measured)
latency change    = 0.00481166
throughput change = 0.0182927
Class 0:
Packet latency average = 33.8312
	minimum = 7
	maximum = 67
Network latency average = 33.8312
	minimum = 7
	maximum = 67
Slowest packet = 117595
Flit latency average = 33.8312
	minimum = 7
	maximum = 67
Slowest flit = 117595
Fragmentation average = 0
	minimum = 0
	maximum = 0
Injected packet rate average = 0.009625
	minimum = 0.004 (at node 0)
	maximum = 0.023 (at node 2)
Accepted packet rate average = 0.009625
	minimum = 0 (at node 0)
	maximum = 0.154 (at node 11)
Injected flit rate average = 0.009625
	minimum = 0.004 (at node 0)
	maximum = 0.023 (at node 2)
Accepted flit rate average= 0.009625
	minimum = 0 (at node 0)
	maximum = 0.154 (at node 11)
Injected packet length average = 1
Accepted packet length average = 1
Total in-flight flits = 6 (0 measured)
latency change    = 0.00915805
throughput change = 0.0649351
Warmed up ...Time used is 3000 cycles
Class 0:
Packet latency average = 32.7922
	minimum = 12
	maximum = 57
Network latency average = 32.7922
	minimum = 12
	maximum = 57
Slowest packet = 117700
Flit latency average = 32.875
	minimum = 12
	maximum = 57
Slowest flit = 117700
Fragmentation average = 0
	minimum = 0
	maximum = 0
Injected packet rate average = 0.01
	minimum = 0.006 (at node 13)
	maximum = 0.016 (at node 5)
Accepted packet rate average = 0.01
	minimum = 0 (at node 0)
	maximum = 0.16 (at node 11)
Injected flit rate average = 0.01
	minimum = 0.006 (at node 13)
	maximum = 0.016 (at node 5)
Accepted flit rate average= 0.01
	minimum = 0 (at node 0)
	maximum = 0.16 (at node 11)
Injected packet length average = 1
Accepted packet length average = 1
Total in-flight flits = 6 (6 measured)
latency change    = 0.0316832
throughput change = 0.0375
Class 0:
Packet latency average = 32.7656
	minimum = 12
	maximum = 57
Network latency average = 32.7656
	minimum = 12
	maximum = 57
Slowest packet = 117700
Flit latency average = 32.8067
	minimum = 12
	maximum = 57
Slowest flit = 117700
Fragmentation average = 0
	minimum = 0
	maximum = 0
Injected packet rate average = 0.0101563
	minimum = 0.0065 (at node 4)
	maximum = 0.015 (at node 5)
Accepted packet rate average = 0.0101875
	minimum = 0 (at node 0)
	maximum = 0.163 (at node 11)
Injected flit rate average = 0.0101563
	minimum = 0.0065 (at node 4)
	maximum = 0.015 (at node 5)
Accepted flit rate average= 0.0101875
	minimum = 0 (at node 0)
	maximum = 0.163 (at node 11)
Injected packet length average = 1
Accepted packet length average = 1
Total in-flight flits = 5 (5 measured)
latency change    = 0.000811301
throughput change = 0.0184049
Class 0:
Packet latency average = 32.7473
	minimum = 8
	maximum = 57
Network latency average = 32.7473
	minimum = 8
	maximum = 57
Slowest packet = 117700
Flit latency average = 32.7761
	minimum = 8
	maximum = 57
Slowest flit = 117700
Fragmentation average = 0
	minimum = 0
	maximum = 0
Injected packet rate average = 0.0096875
	minimum = 0.00633333 (at node 13)
	maximum = 0.0126667 (at node 5)
Accepted packet rate average = 0.00977083
	minimum = 0 (at node 0)
	maximum = 0.156333 (at node 11)
Injected flit rate average = 0.0096875
	minimum = 0.00633333 (at node 13)
	maximum = 0.0126667 (at node 5)
Accepted flit rate average= 0.00977083
	minimum = 0 (at node 0)
	maximum = 0.156333 (at node 11)
Injected packet length average = 1
Accepted packet length average = 1
Total in-flight flits = 2 (2 measured)
latency change    = 0.000559582
throughput change = 0.0426439
Draining all recorded packets ...
Draining remaining packets ...
Time taken is 6019 cycles
====== Overall Traffic Statistics ======
====== Traffic class 0 ======
Packet latency average = 32.7506 (100 samples)
	minimum = 7.1 (100 samples)
	maximum = 68.86 (100 samples)
Network latency average = 32.7506 (100 samples)
	minimum = 7.1 (100 samples)
	maximum = 68.86 (100 samples)
Flit latency average = 32.7717 (100 samples)
	minimum = 7.1 (100 samples)
	maximum = 69.16 (100 samples)
Fragmentation average = 0 (100 samples)
	minimum = 0 (100 samples)
	maximum = 0 (100 samples)
Injected packet rate average = 0.00998137 (100 samples)
	minimum = 0.0074951 (100 samples)
	maximum = 0.0127585 (100 samples)
Accepted packet rate average = 0.00998818 (100 samples)
	minimum = 0 (100 samples)
	maximum = 0.159811 (100 samples)
Injected flit rate average = 0.00998137 (100 samples)
	minimum = 0.0074951 (100 samples)
	maximum = 0.0127585 (100 samples)
Accepted flit rate average = 0.00998818 (100 samples)
	minimum = 0 (100 samples)
	maximum = 0.159811 (100 samples)
Injected packet size average = 1 (100 samples)
Accepted packet size average = 1 (100 samples)
Hops average = 5.99747 (100 samples)
Total run time 5.05072
