BEGIN Configuration File: /tmp/bs_1138183_33057.cfg
topology = mesh;
k = 4;
n = 2;
routing_function = min_adapt;
num_vcs = 4;
vc_buf_size = 4;
wait_for_tail_credit = 1;
vc_allocator = islip;
sw_allocator = islip;
alloc_iters = 1;
credit_delay = 2;
routing_delay = 1;
vc_alloc_delay = 1;
sw_alloc_delay = 1;
input_speedup = 2;
output_speedup = 1;
internal_speedup = 1.0;
traffic = uniform;
packet_size = 1;
sim_type = latency;
injection_rate = 0.1;
warmup_periods = 3;
sample_period = 1000;
sim_count = 100;
seed = 2;

END Configuration File: /tmp/bs_1138183_33057.cfg
Class 0:
Packet latency average = 20.8406
	minimum = 7
	maximum = 62
Network latency average = 20.84
	minimum = 7
	maximum = 62
Slowest packet = 65
Flit latency average = 20.84
	minimum = 7
	maximum = 62
Slowest flit = 65
Fragmentation average = 0
	minimum = 0
	maximum = 0
Injected packet rate average = 0.097875
	minimum = 0.077 (at node 9)
	maximum = 0.116 (at node 6)
Accepted packet rate average = 0.0956875
	minimum = 0.079 (at node 4)
	maximum = 0.112 (at node 1)
Injected flit rate average = 0.097875
	minimum = 0.077 (at node 9)
	maximum = 0.116 (at node 6)
Accepted flit rate average= 0.0956875
	minimum = 0.079 (at node 4)
	maximum = 0.112 (at node 1)
Injected packet length average = 1
Accepted packet length average = 1
Total in-flight flits = 35 (0 measured)
latency change    = 1
throughput change = 1
Class 0:
Packet latency average = 21.1875
	minimum = 7
	maximum = 66
Network latency average = 21.1866
	minimum = 7
	maximum = 66
Slowest packet = 2148
Flit latency average = 21.1866
	minimum = 7
	maximum = 66
Slowest flit = 2148
Fragmentation average = 0
	minimum = 0
	maximum = 0
Injected packet rate average = 0.0997187
	minimum = 0.084 (at node 1)
	maximum = 0.1205 (at node 10)
Accepted packet rate average = 0.0986563
	minimum = 0.087 (at node 9)
	maximum = 0.1085 (at node 10)
Injected flit rate average = 0.0997187
	minimum = 0.084 (at node 1)
	maximum = 0.1205 (at node 10)
Accepted flit rate average= 0.0986563
	minimum = 0.087 (at node 9)
	maximum = 0.1085 (at node 10)
Injected packet length average = 1
Accepted packet length average = 1
Total in-flight flits = 34 (0 measured)
latency change    = 0.0163725
throughput change = 0.0300919
Class 0:
Packet latency average = 20.8744
	minimum = 7
	maximum = 76
Network latency average = 20.8744
	minimum = 7
	maximum = 76
Slowest packet = 3494
Flit latency average = 20.8744
	minimum = 7
	maximum = 76
Slowest flit = 3494
Fragmentation average = 0
	minimum = 0
	maximum = 0
Injected packet rate average = 0.0983125
	minimum = 0.086 (at node 6)
	maximum = 0.119 (at node 10)
Accepted packet rate average = 0.0980625
	minimum = 0.08 (at node 14)
	maximum = 0.128 (at node 0)
Injected flit rate average = 0.0983125
	minimum = 0.086 (at node 6)
	maximum = 0.119 (at node 10)
Accepted flit rate average= 0.0980625
	minimum = 0.08 (at node 14)
	maximum = 0.128 (at node 0)
Injected packet length average = 1
Accepted packet length average = 1
Total in-flight flits = 38 (0 measured)
latency change    = 0.0149981
throughput change = 0.00605481
Warmed up ...Time used is 3000 cycles
Class 0:
Packet latency average = 20.696
	minimum = 7
	maximum = 70
Network latency average = 20.6942
	minimum = 7
	maximum = 70
Slowest packet = 4766
Flit latency average = 20.7853
	minimum = 7
	maximum = 70
Slowest flit = 4766
Fragmentation average = 0
	minimum = 0
	maximum = 0
Injected packet rate average = 0.103875
	minimum = 0.085 (at node 1)
	maximum = 0.12 (at node 10)
Accepted packet rate average = 0.103938
	minimum = 0.089 (at node 14)
	maximum = 0.12 (at node 10)
Injected flit rate average = 0.103875
	minimum = 0.085 (at node 1)
	maximum = 0.12 (at node 10)
Accepted flit rate average= 0.103938
	minimum = 0.089 (at node 14)
	maximum = 0.12 (at node 10)
Injected packet length average = 1
Accepted packet length average = 1
Total in-flight flits = 37 (37 measured)
latency change    = 0.00862207
throughput change = 0.0565244
Class 0:
Packet latency average = 21.0697
	minimum = 7
	maximum = 81
Network latency average = 21.0679
	minimum = 7
	maximum = 81
Slowest packet = 7066
Flit latency average = 21.1092
	minimum = 7
	maximum = 81
Slowest flit = 7066
Fragmentation average = 0
	minimum = 0
	maximum = 0
Injected packet rate average = 0.104219
	minimum = 0.094 (at node 2)
	maximum = 0.111 (at node 6)
Accepted packet rate average = 0.103875
	minimum = 0.0955 (at node 13)
	maximum = 0.123 (at node 10)
Injected flit rate average = 0.104219
	minimum = 0.094 (at node 2)
	maximum = 0.111 (at node 6)
Accepted flit rate average= 0.103875
	minimum = 0.0955 (at node 13)
	maximum = 0.123 (at node 10)
Injected packet length average = 1
Accepted packet length average = 1
Total in-flight flits = 49 (49 measured)
latency change    = 0.0177359
throughput change = 0.000601685
Class 0:
Packet latency average = 21.205
	minimum = 7
	maximum = 81
Network latency average = 21.2029
	minimum = 7
	maximum = 81
Slowest packet = 7066
Flit latency average = 21.2298
	minimum = 7
	maximum = 81
Slowest flit = 7066
Fragmentation average = 0
	minimum = 0
	maximum = 0
Injected packet rate average = 0.102354
	minimum = 0.0963333 (at node 9)
	maximum = 0.109 (at node 7)
Accepted packet rate average = 0.102521
	minimum = 0.0933333 (at node 13)
	maximum = 0.114 (at node 10)
Injected flit rate average = 0.102354
	minimum = 0.0963333 (at node 9)
	maximum = 0.109 (at node 7)
Accepted flit rate average= 0.102521
	minimum = 0.0933333 (at node 13)
	maximum = 0.114 (at node 10)
Injected packet length average = 1
Accepted packet length average = 1
Total in-flight flits = 30 (30 measured)
latency change    = 0.00638092
throughput change = 0.0132087
Class 0:
Packet latency average = 21.092
	minimum = 7
	maximum = 81
Network latency average = 21.0903
	minimum = 7
	maximum = 81
Slowest packet = 7066
Flit latency average = 21.1114
	minimum = 7
	maximum = 81
Slowest flit = 7066
Fragmentation average = 0
	minimum = 0
	maximum = 0
Injected packet rate average = 0.101219
	minimum = 0.095 (at node 12)
	maximum = 0.1075 (at node 7)
Accepted packet rate average = 0.101172
	minimum = 0.09425 (at node 13)
	maximum = 0.11225 (at node 10)
Injected flit rate average = 0.101219
	minimum = 0.095 (at node 12)
	maximum = 0.1075 (at node 7)
Accepted flit rate average= 0.101172
	minimum = 0.09425 (at node 13)
	maximum = 0.11225 (at node 10)
Injected packet length average = 1
Accepted packet length average = 1
Total in-flight flits = 41 (41 measured)
latency change    = 0.00535885
throughput change = 0.0133333
Draining all recorded packets ...
Draining remaining packets ...
Time taken is 7090 cycles
Class 0:
Packet latency average = 21.4038
	minimum = 7
	maximum = 74
Network latency average = 21.4025
	minimum = 7
	maximum = 74
Slowest packet = 11757
Flit latency average = 21.4025
	minimum = 7
	maximum = 74
Slowest flit = 11757
Fragmentation average = 0
	minimum = 0
	maximum = 0
Injected packet rate average = 0.100687
	minimum = 0.085 (at node 9)
	maximum = 0.114 (at node 12)
Accepted packet rate average = 0.09875
	minimum = 0.084 (at node 1)
	maximum = 0.115 (at node 8)
Injected flit rate average = 0.100687
	minimum = 0.085 (at node 9)
	maximum = 0.114 (at node 12)
Accepted flit rate average= 0.09875
	minimum = 0.084 (at node 1)
	maximum = 0.115 (at node 8)
Injected packet length average = 1
Accepted packet length average = 1
Total in-flight flits = 31 (0 measured)
latency change    = 1
throughput change = 1
Class 0:
Packet latency average = 21.3712
	minimum = 7
	maximum = 81
Network latency average = 21.3702
	minimum = 7
	maximum = 81
Slowest packet = 13217
Flit latency average = 21.3702
	minimum = 7
	maximum = 81
Slowest flit = 13217
Fragmentation average = 0
	minimum = 0
	maximum = 0
Injected packet rate average = 0.0995937
	minimum = 0.0855 (at node 6)
	maximum = 0.111 (at node 15)
Accepted packet rate average = 0.09825
	minimum = 0.0875 (at node 2)
	maximum = 0.11 (at node 8)
Injected flit rate average = 0.0995937
	minimum = 0.0855 (at node 6)
	maximum = 0.111 (at node 15)
Accepted flit rate average= 0.09825
	minimum = 0.0875 (at node 2)
	maximum = 0.11 (at node 8)
Injected packet length average = 1
Accepted packet length average = 1
Total in-flight flits = 43 (0 measured)
latency change    = 0.00152609
throughput change = 0.00508906
Class 0:
Packet latency average = 21.7149
	minimum = 7
	maximum = 89
Network latency average = 21.7143
	minimum = 7
	maximum = 89
Slowest packet = 15004
Flit latency average = 21.7143
	minimum = 7
	maximum = 89
Slowest flit = 15004
Fragmentation average = 0
	minimum = 0
	maximum = 0
Injected packet rate average = 0.100562
	minimum = 0.088 (at node 13)
	maximum = 0.114 (at node 7)
Accepted packet rate average = 0.1015
	minimum = 0.085 (at node 9)
	maximum = 0.115 (at node 14)
Injected flit rate average = 0.100562
	minimum = 0.088 (at node 13)
	maximum = 0.114 (at node 7)
Accepted flit rate average= 0.1015
	minimum = 0.085 (at node 9)
	maximum = 0.115 (at node 14)
Injected packet length average = 1
Accepted packet length average = 1
Total in-flight flits = 28 (0 measured)
latency change    = 0.0158287
throughput change = 0.0320197
Warmed up ...Time used is 3000 cycles
Class 0:
Packet latency average = 21.567
	minimum = 7
	maximum = 61
Network latency average = 21.567
	minimum = 7
	maximum = 61
Slowest packet = 16970
Flit latency average = 21.6385
	minimum = 7
	maximum = 64
Slowest flit = 16115
Fragmentation average = 0
	minimum = 0
	maximum = 0
Injected packet rate average = 0.101813
	minimum = 0.085 (at node 3)
	maximum = 0.118 (at node 2)
Accepted packet rate average = 0.1015
	minimum = 0.077 (at node 12)
	maximum = 0.118 (at node 5)
Injected flit rate average = 0.101813
	minimum = 0.085 (at node 3)
	maximum = 0.118 (at node 2)
Accepted flit rate average= 0.1015
	minimum = 0.077 (at node 12)
	maximum = 0.118 (at node 5)
Injected packet length average = 1
Accepted packet length average = 1
Total in-flight flits = 33 (33 measured)
latency change    = 0.00685578
throughput change = 0
Class 0:
Packet latency average = 21.6137
	minimum = 7
	maximum = 83
Network latency average = 21.6134
	minimum = 7
	maximum = 83
Slowest packet = 18784
Flit latency average = 21.6486
	minimum = 7
	maximum = 83
Slowest flit = 18784
Fragmentation average = 0
	minimum = 0
	maximum = 0
Injected packet rate average = 0.102313
	minimum = 0.0935 (at node 15)
	maximum = 0.113 (at node 12)
Accepted packet rate average = 0.101906
	minimum = 0.0875 (at node 12)
	maximum = 0.111 (at node 7)
Injected flit rate average = 0.102313
	minimum = 0.0935 (at node 15)
	maximum = 0.113 (at node 12)
Accepted flit rate average= 0.101906
	minimum = 0.0875 (at node 12)
	maximum = 0.111 (at node 7)
Injected packet length average = 1
Accepted packet length average = 1
Total in-flight flits = 41 (41 measured)
latency change    = 0.00215738
throughput change = 0.00398651
Class 0:
Packet latency average = 21.571
	minimum = 7
	maximum = 94
Network latency average = 21.5706
	minimum = 7
	maximum = 94
Slowest packet = 20711
Flit latency average = 21.5946
	minimum = 7
	maximum = 94
Slowest flit = 20711
Fragmentation average = 0
	minimum = 0
	maximum = 0
Injected packet rate average = 0.100625
	minimum = 0.094 (at node 3)
	maximum = 0.109 (at node 12)
Accepted packet rate average = 0.100625
	minimum = 0.087 (at node 12)
	maximum = 0.114 (at node 13)
Injected flit rate average = 0.100625
	minimum = 0.094 (at node 3)
	maximum = 0.109 (at node 12)
Accepted flit rate average= 0.100625
	minimum = 0.087 (at node 12)
	maximum = 0.114 (at node 13)
Injected packet length average = 1
Accepted packet length average = 1
Total in-flight flits = 28 (28 measured)
latency change    = 0.00197763
throughput change = 0.0127329
Draining all recorded packets ...
Draining remaining packets ...
Time taken is 6068 cycles
Class 0:
Packet latency average = 21.2793
	minimum = 7
	maximum = 84
Network latency average = 21.2786
	minimum = 7
	maximum = 84
Slowest packet = 21974
Flit latency average = 21.2786
	minimum = 7
	maximum = 84
Slowest flit = 21974
Fragmentation average = 0
	minimum = 0
	maximum = 0
Injected packet rate average = 0.0998125
	minimum = 0.081 (at node 0)
	maximum = 0.124 (at node 14)
Accepted packet rate average = 0.097125
	minimum = 0.08 (at node 7)
	maximum = 0.117 (at node 15)
Injected flit rate average = 0.0998125
	minimum = 0.081 (at node 0)
	maximum = 0.124 (at node 14)
Accepted flit rate average= 0.097125
	minimum = 0.08 (at node 7)
	maximum = 0.117 (at node 15)
Injected packet length average = 1
Accepted packet length average = 1
Total in-flight flits = 43 (0 measured)
latency change    = 1
throughput change = 1
Class 0:
Packet latency average = 21.4748
	minimum = 7
	maximum = 84
Network latency average = 21.4742
	minimum = 7
	maximum = 84
Slowest packet = 21974
Flit latency average = 21.4742
	minimum = 7
	maximum = 84
Slowest flit = 21974
Fragmentation average = 0
	minimum = 0
	maximum = 0
Injected packet rate average = 0.0990625
	minimum = 0.091 (at node 3)
	maximum = 0.1095 (at node 10)
Accepted packet rate average = 0.098
	minimum = 0.0885 (at node 3)
	maximum = 0.1105 (at node 15)
Injected flit rate average = 0.0990625
	minimum = 0.091 (at node 3)
	maximum = 0.1095 (at node 10)
Accepted flit rate average= 0.098
	minimum = 0.0885 (at node 3)
	maximum = 0.1105 (at node 15)
Injected packet length average = 1
Accepted packet length average = 1
Total in-flight flits = 34 (0 measured)
latency change    = 0.00910506
throughput change = 0.00892857
Class 0:
Packet latency average = 21.4265
	minimum = 7
	maximum = 100
Network latency average = 21.4259
	minimum = 7
	maximum = 100
Slowest packet = 24412
Flit latency average = 21.4259
	minimum = 7
	maximum = 100
Slowest flit = 24412
Fragmentation average = 0
	minimum = 0
	maximum = 0
Injected packet rate average = 0.105938
	minimum = 0.087 (at node 10)
	maximum = 0.129 (at node 1)
Accepted packet rate average = 0.1055
	minimum = 0.083 (at node 0)
	maximum = 0.124 (at node 9)
Injected flit rate average = 0.105938
	minimum = 0.087 (at node 10)
	maximum = 0.129 (at node 1)
Accepted flit rate average= 0.1055
	minimum = 0.083 (at node 0)
	maximum = 0.124 (at node 9)
Injected packet length average = 1
Accepted packet length average = 1
Total in-flight flits = 41 (0 measured)
latency change    = 0.00225274
throughput change = 0.07109
Warmed up ...Time used is 3000 cycles
Class 0:
Packet latency average = 21.2382
	minimum = 7
	maximum = 71
Network latency average = 21.2382
	minimum = 7
	maximum = 71
Slowest packet = 26152
Flit latency average = 21.3387
	minimum = 7
	maximum = 71
Slowest flit = 26152
Fragmentation average = 0
	minimum = 0
	maximum = 0
Injected packet rate average = 0.09725
	minimum = 0.085 (at node 1)
	maximum = 0.115 (at node 8)
Accepted packet rate average = 0.0978125
	minimum = 0.075 (at node 8)
	maximum = 0.113 (at node 12)
Injected flit rate average = 0.09725
	minimum = 0.085 (at node 1)
	maximum = 0.115 (at node 8)
Accepted flit rate average= 0.0978125
	minimum = 0.075 (at node 8)
	maximum = 0.113 (at node 12)
Injected packet length average = 1
Accepted packet length average = 1
Total in-flight flits = 32 (32 measured)
latency change    = 0.00886852
throughput change = 0.0785942
Class 0:
Packet latency average = 21.4267
	minimum = 7
	maximum = 80
Network latency average = 21.4248
	minimum = 7
	maximum = 80
Slowest packet = 27609
Flit latency average = 21.4715
	minimum = 7
	maximum = 80
Slowest flit = 27609
Fragmentation average = 0
	minimum = 0
	maximum = 0
Injected packet rate average = 0.0995625
	minimum = 0.0895 (at node 12)
	maximum = 0.1105 (at node 9)
Accepted packet rate average = 0.0999375
	minimum = 0.0815 (at node 8)
	maximum = 0.1115 (at node 15)
Injected flit rate average = 0.0995625
	minimum = 0.0895 (at node 12)
	maximum = 0.1105 (at node 9)
Accepted flit rate average= 0.0999375
	minimum = 0.0815 (at node 8)
	maximum = 0.1115 (at node 15)
Injected packet length average = 1
Accepted packet length average = 1
Total in-flight flits = 29 (29 measured)
latency change    = 0.0087966
throughput change = 0.0212633
Class 0:
Packet latency average = 21.4161
	minimum = 7
	maximum = 80
Network latency average = 21.4149
	minimum = 7
	maximum = 80
Slowest packet = 27609
Flit latency average = 21.4464
	minimum = 7
	maximum = 80
Slowest flit = 27609
Fragmentation average = 0
	minimum = 0
	maximum = 0
Injected packet rate average = 0.0987708
	minimum = 0.089 (at node 3)
	maximum = 0.108333 (at node 8)
Accepted packet rate average = 0.0989792
	minimum = 0.0863333 (at node 8)
	maximum = 0.107 (at node 0)
Injected flit rate average = 0.0987708
	minimum = 0.089 (at node 3)
	maximum = 0.108333 (at node 8)
Accepted flit rate average= 0.0989792
	minimum = 0.0863333 (at node 8)
	maximum = 0.107 (at node 0)
Injected packet length average = 1
Accepted packet length average = 1
Total in-flight flits = 31 (31 measured)
latency change    = 0.000491919
throughput change = 0.00968217
Class 0:
Packet latency average = 21.3795
	minimum = 7
	maximum = 105
Network latency average = 21.3784
	minimum = 7
	maximum = 105
Slowest packet = 31747
Flit latency average = 21.4024
	minimum = 7
	maximum = 105
Slowest flit = 31747
Fragmentation average = 0
	minimum = 0
	maximum = 0
Injected packet rate average = 0.098375
	minimum = 0.089 (at node 3)
	maximum = 0.1075 (at node 8)
Accepted packet rate average = 0.0985156
	minimum = 0.089 (at node 8)
	maximum = 0.105 (at node 0)
Injected flit rate average = 0.098375
	minimum = 0.089 (at node 3)
	maximum = 0.1075 (at node 8)
Accepted flit rate average= 0.0985156
	minimum = 0.089 (at node 8)
	maximum = 0.105 (at node 0)
Injected packet length average = 1
Accepted packet length average = 1
Total in-flight flits = 32 (32 measured)
latency change    = 0.001715
throughput change = 0.00470526
Draining all recorded packets ...
Draining remaining packets ...
Time taken is 7089 cycles
Class 0:
Packet latency average = 21.4773
	minimum = 7
	maximum = 74
Network latency average = 21.4767
	minimum = 7
	maximum = 74
Slowest packet = 32493
Flit latency average = 21.4767
	minimum = 7
	maximum = 74
Slowest flit = 32493
Fragmentation average = 0
	minimum = 0
	maximum = 0
Injected packet rate average = 0.096625
	minimum = 0.083 (at node 13)
	maximum = 0.113 (at node 3)
Accepted packet rate average = 0.0950625
	minimum = 0.083 (at node 11)
	maximum = 0.105 (at node 9)
Injected flit rate average = 0.096625
	minimum = 0.083 (at node 13)
	maximum = 0.113 (at node 3)
Accepted flit rate average= 0.0950625
	minimum = 0.083 (at node 11)
	maximum = 0.105 (at node 9)
Injected packet length average = 1
Accepted packet length average = 1
Total in-flight flits = 25 (0 measured)
latency change    = 1
throughput change = 1
Class 0:
Packet latency average = 21.3634
	minimum = 7
	maximum = 74
Network latency average = 21.3631
	minimum = 7
	maximum = 74
Slowest packet = 32493
Flit latency average = 21.3631
	minimum = 7
	maximum = 74
Slowest flit = 32493
Fragmentation average = 0
	minimum = 0
	maximum = 0
Injected packet rate average = 0.098625
	minimum = 0.0885 (at node 10)
	maximum = 0.113 (at node 11)
Accepted packet rate average = 0.0976875
	minimum = 0.0855 (at node 2)
	maximum = 0.111 (at node 14)
Injected flit rate average = 0.098625
	minimum = 0.0885 (at node 10)
	maximum = 0.113 (at node 11)
Accepted flit rate average= 0.0976875
	minimum = 0.0855 (at node 2)
	maximum = 0.111 (at node 14)
Injected packet length average = 1
Accepted packet length average = 1
Total in-flight flits = 30 (0 measured)
latency change    = 0.0053322
throughput change = 0.0268714
Class 0:
Packet latency average = 21.4878
	minimum = 7
	maximum = 69
Network latency average = 21.4878
	minimum = 7
	maximum = 69
Slowest packet = 35926
Flit latency average = 21.4878
	minimum = 7
	maximum = 69
Slowest flit = 35926
Fragmentation average = 0
	minimum = 0
	maximum = 0
Injected packet rate average = 0.10025
	minimum = 0.085 (at node 2)
	maximum = 0.113 (at node 13)
Accepted packet rate average = 0.100062
	minimum = 0.083 (at node 2)
	maximum = 0.113 (at node 11)
Injected flit rate average = 0.10025
	minimum = 0.085 (at node 2)
	maximum = 0.113 (at node 13)
Accepted flit rate average= 0.100062
	minimum = 0.083 (at node 2)
	maximum = 0.113 (at node 11)
Injected packet length average = 1
Accepted packet length average = 1
Total in-flight flits = 33 (0 measured)
latency change    = 0.00579009
throughput change = 0.0237352
Warmed up ...Time used is 3000 cycles
Class 0:
Packet latency average = 20.8959
	minimum = 7
	maximum = 97
Network latency average = 20.8959
	minimum = 7
	maximum = 97
Slowest packet = 38259
Flit latency average = 21.0671
	minimum = 7
	maximum = 97
Slowest flit = 38259
Fragmentation average = 0
	minimum = 0
	maximum = 0
Injected packet rate average = 0.100812
	minimum = 0.085 (at node 2)
	maximum = 0.118 (at node 12)
Accepted packet rate average = 0.100562
	minimum = 0.083 (at node 7)
	maximum = 0.123 (at node 14)
Injected flit rate average = 0.100812
	minimum = 0.085 (at node 2)
	maximum = 0.118 (at node 12)
Accepted flit rate average= 0.100562
	minimum = 0.083 (at node 7)
	maximum = 0.123 (at node 14)
Injected packet length average = 1
Accepted packet length average = 1
Total in-flight flits = 37 (37 measured)
latency change    = 0.0283252
throughput change = 0.00497203
Class 0:
Packet latency average = 21.1319
	minimum = 7
	maximum = 97
Network latency average = 21.1316
	minimum = 7
	maximum = 97
Slowest packet = 38259
Flit latency average = 21.2156
	minimum = 7
	maximum = 97
Slowest flit = 38259
Fragmentation average = 0
	minimum = 0
	maximum = 0
Injected packet rate average = 0.0993437
	minimum = 0.085 (at node 5)
	maximum = 0.111 (at node 10)
Accepted packet rate average = 0.0995937
	minimum = 0.0875 (at node 13)
	maximum = 0.113 (at node 4)
Injected flit rate average = 0.0993437
	minimum = 0.085 (at node 5)
	maximum = 0.111 (at node 10)
Accepted flit rate average= 0.0995937
	minimum = 0.0875 (at node 13)
	maximum = 0.113 (at node 4)
Injected packet length average = 1
Accepted packet length average = 1
Total in-flight flits = 25 (25 measured)
latency change    = 0.0111659
throughput change = 0.00972702
Class 0:
Packet latency average = 21.2012
	minimum = 7
	maximum = 97
Network latency average = 21.201
	minimum = 7
	maximum = 97
Slowest packet = 38259
Flit latency average = 21.257
	minimum = 7
	maximum = 97
Slowest flit = 38259
Fragmentation average = 0
	minimum = 0
	maximum = 0
Injected packet rate average = 0.0989375
	minimum = 0.0886667 (at node 5)
	maximum = 0.109667 (at node 8)
Accepted packet rate average = 0.0988333
	minimum = 0.0893333 (at node 13)
	maximum = 0.112333 (at node 4)
Injected flit rate average = 0.0989375
	minimum = 0.0886667 (at node 5)
	maximum = 0.109667 (at node 8)
Accepted flit rate average= 0.0988333
	minimum = 0.0893333 (at node 13)
	maximum = 0.112333 (at node 4)
Injected packet length average = 1
Accepted packet length average = 1
Total in-flight flits = 38 (38 measured)
latency change    = 0.00327034
throughput change = 0.00769393
Draining all recorded packets ...
Draining remaining packets ...
Time taken is 6078 cycles
Class 0:
Packet latency average = 21.075
	minimum = 7
	maximum = 73
Network latency average = 21.0737
	minimum = 7
	maximum = 73
Slowest packet = 43016
Flit latency average = 21.0737
	minimum = 7
	maximum = 73
Slowest flit = 43016
Fragmentation average = 0
	minimum = 0
	maximum = 0
Injected packet rate average = 0.098625
	minimum = 0.074 (at node 3)
	maximum = 0.112 (at node 11)
Accepted packet rate average = 0.0966875
	minimum = 0.079 (at node 8)
	maximum = 0.119 (at node 6)
Injected flit rate average = 0.098625
	minimum = 0.074 (at node 3)
	maximum = 0.112 (at node 11)
Accepted flit rate average= 0.0966875
	minimum = 0.079 (at node 8)
	maximum = 0.119 (at node 6)
Injected packet length average = 1
Accepted packet length average = 1
Total in-flight flits = 31 (0 measured)
latency change    = 1
throughput change = 1
Class 0:
Packet latency average = 21.1715
	minimum = 7
	maximum = 73
Network latency average = 21.1708
	minimum = 7
	maximum = 73
Slowest packet = 43016
Flit latency average = 21.1708
	minimum = 7
	maximum = 73
Slowest flit = 43016
Fragmentation average = 0
	minimum = 0
	maximum = 0
Injected packet rate average = 0.100062
	minimum = 0.0805 (at node 3)
	maximum = 0.113 (at node 14)
Accepted packet rate average = 0.0989687
	minimum = 0.0865 (at node 7)
	maximum = 0.11 (at node 1)
Injected flit rate average = 0.100062
	minimum = 0.0805 (at node 3)
	maximum = 0.113 (at node 14)
Accepted flit rate average= 0.0989687
	minimum = 0.0865 (at node 7)
	maximum = 0.11 (at node 1)
Injected packet length average = 1
Accepted packet length average = 1
Total in-flight flits = 35 (0 measured)
latency change    = 0.00455669
throughput change = 0.0230502
Class 0:
Packet latency average = 21.5871
	minimum = 7
	maximum = 81
Network latency average = 21.5865
	minimum = 7
	maximum = 81
Slowest packet = 45897
Flit latency average = 21.5865
	minimum = 7
	maximum = 81
Slowest flit = 45897
Fragmentation average = 0
	minimum = 0
	maximum = 0
Injected packet rate average = 0.102125
	minimum = 0.085 (at node 9)
	maximum = 0.127 (at node 15)
Accepted packet rate average = 0.102625
	minimum = 0.082 (at node 3)
	maximum = 0.125 (at node 9)
Injected flit rate average = 0.102125
	minimum = 0.085 (at node 9)
	maximum = 0.127 (at node 15)
Accepted flit rate average= 0.102625
	minimum = 0.082 (at node 3)
	maximum = 0.125 (at node 9)
Injected packet length average = 1
Accepted packet length average = 1
Total in-flight flits = 27 (0 measured)
latency change    = 0.0192538
throughput change = 0.0356273
Warmed up ...Time used is 3000 cycles
Class 0:
Packet latency average = 21.6526
	minimum = 7
	maximum = 77
Network latency average = 21.6526
	minimum = 7
	maximum = 77
Slowest packet = 46871
Flit latency average = 21.7119
	minimum = 7
	maximum = 77
Slowest flit = 46871
Fragmentation average = 0
	minimum = 0
	maximum = 0
Injected packet rate average = 0.103563
	minimum = 0.088 (at node 10)
	maximum = 0.121 (at node 4)
Accepted packet rate average = 0.102625
	minimum = 0.072 (at node 15)
	maximum = 0.124 (at node 4)
Injected flit rate average = 0.103563
	minimum = 0.088 (at node 10)
	maximum = 0.121 (at node 4)
Accepted flit rate average= 0.102625
	minimum = 0.072 (at node 15)
	maximum = 0.124 (at node 4)
Injected packet length average = 1
Accepted packet length average = 1
Total in-flight flits = 42 (42 measured)
latency change    = 0.00302701
throughput change = 0
Class 0:
Packet latency average = 21.4878
	minimum = 7
	maximum = 78
Network latency average = 21.4875
	minimum = 7
	maximum = 78
Slowest packet = 49477
Flit latency average = 21.5187
	minimum = 7
	maximum = 78
Slowest flit = 49477
Fragmentation average = 0
	minimum = 0
	maximum = 0
Injected packet rate average = 0.102281
	minimum = 0.0895 (at node 6)
	maximum = 0.1175 (at node 12)
Accepted packet rate average = 0.101875
	minimum = 0.09 (at node 15)
	maximum = 0.1185 (at node 14)
Injected flit rate average = 0.102281
	minimum = 0.0895 (at node 6)
	maximum = 0.1175 (at node 12)
Accepted flit rate average= 0.101875
	minimum = 0.09 (at node 15)
	maximum = 0.1185 (at node 14)
Injected packet length average = 1
Accepted packet length average = 1
Total in-flight flits = 40 (40 measured)
latency change    = 0.00767177
throughput change = 0.00736196
Class 0:
Packet latency average = 21.4595
	minimum = 7
	maximum = 78
Network latency average = 21.4593
	minimum = 7
	maximum = 78
Slowest packet = 49477
Flit latency average = 21.4804
	minimum = 7
	maximum = 78
Slowest flit = 49477
Fragmentation average = 0
	minimum = 0
	maximum = 0
Injected packet rate average = 0.101521
	minimum = 0.0903333 (at node 6)
	maximum = 0.116667 (at node 4)
Accepted packet rate average = 0.101479
	minimum = 0.0893333 (at node 2)
	maximum = 0.117667 (at node 14)
Injected flit rate average = 0.101521
	minimum = 0.0903333 (at node 6)
	maximum = 0.116667 (at node 4)
Accepted flit rate average= 0.101479
	minimum = 0.0893333 (at node 2)
	maximum = 0.117667 (at node 14)
Injected packet length average = 1
Accepted packet length average = 1
Total in-flight flits = 29 (29 measured)
latency change    = 0.00131618
throughput change = 0.00390064
Draining all recorded packets ...
Draining remaining packets ...
Time taken is 6061 cycles
Class 0:
Packet latency average = 21.1033
	minimum = 7
	maximum = 75
Network latency average = 21.1014
	minimum = 7
	maximum = 75
Slowest packet = 52095
Flit latency average = 21.1014
	minimum = 7
	maximum = 75
Slowest flit = 52095
Fragmentation average = 0
	minimum = 0
	maximum = 0
Injected packet rate average = 0.103063
	minimum = 0.083 (at node 4)
	maximum = 0.124 (at node 13)
Accepted packet rate average = 0.100437
	minimum = 0.085 (at node 5)
	maximum = 0.119 (at node 10)
Injected flit rate average = 0.103063
	minimum = 0.083 (at node 4)
	maximum = 0.124 (at node 13)
Accepted flit rate average= 0.100437
	minimum = 0.085 (at node 5)
	maximum = 0.119 (at node 10)
Injected packet length average = 1
Accepted packet length average = 1
Total in-flight flits = 42 (0 measured)
latency change    = 1
throughput change = 1
Class 0:
Packet latency average = 21.3429
	minimum = 7
	maximum = 77
Network latency average = 21.3416
	minimum = 7
	maximum = 77
Slowest packet = 53387
Flit latency average = 21.3416
	minimum = 7
	maximum = 77
Slowest flit = 53387
Fragmentation average = 0
	minimum = 0
	maximum = 0
Injected packet rate average = 0.102781
	minimum = 0.089 (at node 4)
	maximum = 0.112 (at node 13)
Accepted packet rate average = 0.101531
	minimum = 0.087 (at node 5)
	maximum = 0.1135 (at node 9)
Injected flit rate average = 0.102781
	minimum = 0.089 (at node 4)
	maximum = 0.112 (at node 13)
Accepted flit rate average= 0.101531
	minimum = 0.087 (at node 5)
	maximum = 0.1135 (at node 9)
Injected packet length average = 1
Accepted packet length average = 1
Total in-flight flits = 40 (0 measured)
latency change    = 0.0112251
throughput change = 0.0107725
Class 0:
Packet latency average = 20.9827
	minimum = 7
	maximum = 78
Network latency average = 20.9821
	minimum = 7
	maximum = 78
Slowest packet = 56181
Flit latency average = 20.9821
	minimum = 7
	maximum = 78
Slowest flit = 56181
Fragmentation average = 0
	minimum = 0
	maximum = 0
Injected packet rate average = 0.101125
	minimum = 0.081 (at node 5)
	maximum = 0.119 (at node 0)
Accepted packet rate average = 0.101375
	minimum = 0.082 (at node 0)
	maximum = 0.125 (at node 14)
Injected flit rate average = 0.101125
	minimum = 0.081 (at node 5)
	maximum = 0.119 (at node 0)
Accepted flit rate average= 0.101375
	minimum = 0.082 (at node 0)
	maximum = 0.125 (at node 14)
Injected packet length average = 1
Accepted packet length average = 1
Total in-flight flits = 36 (0 measured)
latency change    = 0.0171635
throughput change = 0.00154131
Warmed up ...Time used is 3000 cycles
Class 0:
Packet latency average = 20.7565
	minimum = 7
	maximum = 79
Network latency average = 20.7527
	minimum = 7
	maximum = 79
Slowest packet = 56657
Flit latency average = 20.8297
	minimum = 7
	maximum = 79
Slowest flit = 56657
Fragmentation average = 0
	minimum = 0
	maximum = 0
Injected packet rate average = 0.101062
	minimum = 0.087 (at node 6)
	maximum = 0.118 (at node 3)
Accepted packet rate average = 0.100562
	minimum = 0.083 (at node 15)
	maximum = 0.12 (at node 13)
Injected flit rate average = 0.101062
	minimum = 0.087 (at node 6)
	maximum = 0.118 (at node 3)
Accepted flit rate average= 0.100562
	minimum = 0.083 (at node 15)
	maximum = 0.12 (at node 13)
Injected packet length average = 1
Accepted packet length average = 1
Total in-flight flits = 44 (44 measured)
latency change    = 0.0108988
throughput change = 0.00807955
Class 0:
Packet latency average = 21.3819
	minimum = 7
	maximum = 82
Network latency average = 21.38
	minimum = 7
	maximum = 82
Slowest packet = 59424
Flit latency average = 21.4114
	minimum = 7
	maximum = 82
Slowest flit = 59424
Fragmentation average = 0
	minimum = 0
	maximum = 0
Injected packet rate average = 0.100687
	minimum = 0.0875 (at node 0)
	maximum = 0.11 (at node 3)
Accepted packet rate average = 0.100875
	minimum = 0.0885 (at node 5)
	maximum = 0.1135 (at node 13)
Injected flit rate average = 0.100687
	minimum = 0.0875 (at node 0)
	maximum = 0.11 (at node 3)
Accepted flit rate average= 0.100875
	minimum = 0.0885 (at node 5)
	maximum = 0.1135 (at node 13)
Injected packet length average = 1
Accepted packet length average = 1
Total in-flight flits = 30 (30 measured)
latency change    = 0.0292479
throughput change = 0.00309789
Class 0:
Packet latency average = 21.3551
	minimum = 7
	maximum = 89
Network latency average = 21.3539
	minimum = 7
	maximum = 89
Slowest packet = 60254
Flit latency average = 21.3751
	minimum = 7
	maximum = 89
Slowest flit = 60254
Fragmentation average = 0
	minimum = 0
	maximum = 0
Injected packet rate average = 0.100458
	minimum = 0.0903333 (at node 6)
	maximum = 0.108333 (at node 10)
Accepted packet rate average = 0.10025
	minimum = 0.0896667 (at node 5)
	maximum = 0.115 (at node 8)
Injected flit rate average = 0.100458
	minimum = 0.0903333 (at node 6)
	maximum = 0.108333 (at node 10)
Accepted flit rate average= 0.10025
	minimum = 0.0896667 (at node 5)
	maximum = 0.115 (at node 8)
Injected packet length average = 1
Accepted packet length average = 1
Total in-flight flits = 46 (46 measured)
latency change    = 0.00125419
throughput change = 0.00623441
Draining all recorded packets ...
Draining remaining packets ...
Time taken is 6085 cycles
Class 0:
Packet latency average = 21.1993
	minimum = 7
	maximum = 64
Network latency average = 21.1986
	minimum = 7
	maximum = 64
Slowest packet = 62061
Flit latency average = 21.1986
	minimum = 7
	maximum = 64
Slowest flit = 62061
Fragmentation average = 0
	minimum = 0
	maximum = 0
Injected packet rate average = 0.0923125
	minimum = 0.067 (at node 10)
	maximum = 0.118 (at node 8)
Accepted packet rate average = 0.0896875
	minimum = 0.075 (at node 1)
	maximum = 0.113 (at node 5)
Injected flit rate average = 0.0923125
	minimum = 0.067 (at node 10)
	maximum = 0.118 (at node 8)
Accepted flit rate average= 0.0896875
	minimum = 0.075 (at node 1)
	maximum = 0.113 (at node 5)
Injected packet length average = 1
Accepted packet length average = 1
Total in-flight flits = 42 (0 measured)
latency change    = 1
throughput change = 1
Class 0:
Packet latency average = 21.2127
	minimum = 7
	maximum = 77
Network latency average = 21.2124
	minimum = 7
	maximum = 77
Slowest packet = 63495
Flit latency average = 21.2124
	minimum = 7
	maximum = 77
Slowest flit = 63495
Fragmentation average = 0
	minimum = 0
	maximum = 0
Injected packet rate average = 0.0959375
	minimum = 0.083 (at node 14)
	maximum = 0.111 (at node 8)
Accepted packet rate average = 0.0950625
	minimum = 0.0825 (at node 13)
	maximum = 0.1075 (at node 10)
Injected flit rate average = 0.0959375
	minimum = 0.083 (at node 14)
	maximum = 0.111 (at node 8)
Accepted flit rate average= 0.0950625
	minimum = 0.0825 (at node 13)
	maximum = 0.1075 (at node 10)
Injected packet length average = 1
Accepted packet length average = 1
Total in-flight flits = 28 (0 measured)
latency change    = 0.000631032
throughput change = 0.0565417
Class 0:
Packet latency average = 21.8413
	minimum = 7
	maximum = 79
Network latency average = 21.8407
	minimum = 7
	maximum = 79
Slowest packet = 65264
Flit latency average = 21.8407
	minimum = 7
	maximum = 79
Slowest flit = 65264
Fragmentation average = 0
	minimum = 0
	maximum = 0
Injected packet rate average = 0.100375
	minimum = 0.086 (at node 11)
	maximum = 0.113 (at node 10)
Accepted packet rate average = 0.099625
	minimum = 0.087 (at node 2)
	maximum = 0.119 (at node 7)
Injected flit rate average = 0.100375
	minimum = 0.086 (at node 11)
	maximum = 0.113 (at node 10)
Accepted flit rate average= 0.099625
	minimum = 0.087 (at node 2)
	maximum = 0.119 (at node 7)
Injected packet length average = 1
Accepted packet length average = 1
Total in-flight flits = 40 (0 measured)
latency change    = 0.0287799
throughput change = 0.0457967
Warmed up ...Time used is 3000 cycles
Class 0:
Packet latency average = 21.3835
	minimum = 7
	maximum = 80
Network latency average = 21.3829
	minimum = 7
	maximum = 80
Slowest packet = 66669
Flit latency average = 21.4417
	minimum = 7
	maximum = 80
Slowest flit = 66669
Fragmentation average = 0
	minimum = 0
	maximum = 0
Injected packet rate average = 0.099
	minimum = 0.089 (at node 2)
	maximum = 0.111 (at node 14)
Accepted packet rate average = 0.099625
	minimum = 0.081 (at node 15)
	maximum = 0.115 (at node 1)
Injected flit rate average = 0.099
	minimum = 0.089 (at node 2)
	maximum = 0.111 (at node 14)
Accepted flit rate average= 0.099625
	minimum = 0.081 (at node 15)
	maximum = 0.115 (at node 1)
Injected packet length average = 1
Accepted packet length average = 1
Total in-flight flits = 30 (30 measured)
latency change    = 0.0214068
throughput change = 0
Class 0:
Packet latency average = 21.3913
	minimum = 7
	maximum = 80
Network latency average = 21.3909
	minimum = 7
	maximum = 80
Slowest packet = 66669
Flit latency average = 21.4208
	minimum = 7
	maximum = 80
Slowest flit = 66669
Fragmentation average = 0
	minimum = 0
	maximum = 0
Injected packet rate average = 0.0976875
	minimum = 0.086 (at node 12)
	maximum = 0.107 (at node 6)
Accepted packet rate average = 0.0978125
	minimum = 0.0845 (at node 15)
	maximum = 0.1095 (at node 14)
Injected flit rate average = 0.0976875
	minimum = 0.086 (at node 12)
	maximum = 0.107 (at node 6)
Accepted flit rate average= 0.0978125
	minimum = 0.0845 (at node 15)
	maximum = 0.1095 (at node 14)
Injected packet length average = 1
Accepted packet length average = 1
Total in-flight flits = 36 (36 measured)
latency change    = 0.000361631
throughput change = 0.0185304
Class 0:
Packet latency average = 21.3122
	minimum = 7
	maximum = 80
Network latency average = 21.312
	minimum = 7
	maximum = 80
Slowest packet = 66669
Flit latency average = 21.3321
	minimum = 7
	maximum = 80
Slowest flit = 66669
Fragmentation average = 0
	minimum = 0
	maximum = 0
Injected packet rate average = 0.0996458
	minimum = 0.0913333 (at node 2)
	maximum = 0.111 (at node 6)
Accepted packet rate average = 0.0996042
	minimum = 0.0906667 (at node 15)
	maximum = 0.108667 (at node 4)
Injected flit rate average = 0.0996458
	minimum = 0.0913333 (at node 2)
	maximum = 0.111 (at node 6)
Accepted flit rate average= 0.0996042
	minimum = 0.0906667 (at node 15)
	maximum = 0.108667 (at node 4)
Injected packet length average = 1
Accepted packet length average = 1
Total in-flight flits = 42 (42 measured)
latency change    = 0.00371111
throughput change = 0.0179879
Draining all recorded packets ...
Draining remaining packets ...
Time taken is 6086 cycles
Class 0:
Packet latency average = 20.8762
	minimum = 7
	maximum = 69
Network latency average = 20.8762
	minimum = 7
	maximum = 69
Slowest packet = 71148
Flit latency average = 20.8762
	minimum = 7
	maximum = 69
Slowest flit = 71148
Fragmentation average = 0
	minimum = 0
	maximum = 0
Injected packet rate average = 0.101062
	minimum = 0.08 (at node 13)
	maximum = 0.118 (at node 7)
Accepted packet rate average = 0.0989375
	minimum = 0.08 (at node 12)
	maximum = 0.118 (at node 3)
Injected flit rate average = 0.101062
	minimum = 0.08 (at node 13)
	maximum = 0.118 (at node 7)
Accepted flit rate average= 0.0989375
	minimum = 0.08 (at node 12)
	maximum = 0.118 (at node 3)
Injected packet length average = 1
Accepted packet length average = 1
Total in-flight flits = 34 (0 measured)
latency change    = 1
throughput change = 1
Class 0:
Packet latency average = 21.1223
	minimum = 7
	maximum = 69
Network latency average = 21.1223
	minimum = 7
	maximum = 69
Slowest packet = 71148
Flit latency average = 21.1223
	minimum = 7
	maximum = 69
Slowest flit = 71148
Fragmentation average = 0
	minimum = 0
	maximum = 0
Injected packet rate average = 0.0994063
	minimum = 0.0905 (at node 8)
	maximum = 0.1085 (at node 7)
Accepted packet rate average = 0.098375
	minimum = 0.087 (at node 7)
	maximum = 0.1105 (at node 10)
Injected flit rate average = 0.0994063
	minimum = 0.0905 (at node 8)
	maximum = 0.1085 (at node 7)
Accepted flit rate average= 0.098375
	minimum = 0.087 (at node 7)
	maximum = 0.1105 (at node 10)
Injected packet length average = 1
Accepted packet length average = 1
Total in-flight flits = 33 (0 measured)
latency change    = 0.0116519
throughput change = 0.00571792
Class 0:
Packet latency average = 21.3642
	minimum = 7
	maximum = 65
Network latency average = 21.3624
	minimum = 7
	maximum = 65
Slowest packet = 74886
Flit latency average = 21.3624
	minimum = 7
	maximum = 65
Slowest flit = 74886
Fragmentation average = 0
	minimum = 0
	maximum = 0
Injected packet rate average = 0.104125
	minimum = 0.089 (at node 2)
	maximum = 0.126 (at node 5)
Accepted packet rate average = 0.104688
	minimum = 0.088 (at node 12)
	maximum = 0.118 (at node 4)
Injected flit rate average = 0.104125
	minimum = 0.089 (at node 2)
	maximum = 0.126 (at node 5)
Accepted flit rate average= 0.104688
	minimum = 0.088 (at node 12)
	maximum = 0.118 (at node 4)
Injected packet length average = 1
Accepted packet length average = 1
Total in-flight flits = 24 (0 measured)
latency change    = 0.0113217
throughput change = 0.0602985
Warmed up ...Time used is 3000 cycles
Class 0:
Packet latency average = 21.613
	minimum = 7
	maximum = 84
Network latency average = 21.6124
	minimum = 7
	maximum = 84
Slowest packet = 77115
Flit latency average = 21.6858
	minimum = 7
	maximum = 84
Slowest flit = 77115
Fragmentation average = 0
	minimum = 0
	maximum = 0
Injected packet rate average = 0.099375
	minimum = 0.09 (at node 12)
	maximum = 0.11 (at node 3)
Accepted packet rate average = 0.09825
	minimum = 0.083 (at node 1)
	maximum = 0.116 (at node 4)
Injected flit rate average = 0.099375
	minimum = 0.09 (at node 12)
	maximum = 0.11 (at node 3)
Accepted flit rate average= 0.09825
	minimum = 0.083 (at node 1)
	maximum = 0.116 (at node 4)
Injected packet length average = 1
Accepted packet length average = 1
Total in-flight flits = 42 (42 measured)
latency change    = 0.0115148
throughput change = 0.0655216
Class 0:
Packet latency average = 21.8088
	minimum = 7
	maximum = 84
Network latency average = 21.8082
	minimum = 7
	maximum = 84
Slowest packet = 77115
Flit latency average = 21.8431
	minimum = 7
	maximum = 84
Slowest flit = 77115
Fragmentation average = 0
	minimum = 0
	maximum = 0
Injected packet rate average = 0.0993437
	minimum = 0.0925 (at node 4)
	maximum = 0.109 (at node 6)
Accepted packet rate average = 0.099
	minimum = 0.094 (at node 10)
	maximum = 0.1085 (at node 7)
Injected flit rate average = 0.0993437
	minimum = 0.0925 (at node 4)
	maximum = 0.109 (at node 6)
Accepted flit rate average= 0.099
	minimum = 0.094 (at node 10)
	maximum = 0.1085 (at node 7)
Injected packet length average = 1
Accepted packet length average = 1
Total in-flight flits = 35 (35 measured)
latency change    = 0.0089777
throughput change = 0.00757576
Class 0:
Packet latency average = 21.6715
	minimum = 7
	maximum = 84
Network latency average = 21.6706
	minimum = 7
	maximum = 84
Slowest packet = 77115
Flit latency average = 21.6942
	minimum = 7
	maximum = 84
Slowest flit = 77115
Fragmentation average = 0
	minimum = 0
	maximum = 0
Injected packet rate average = 0.10075
	minimum = 0.0903333 (at node 12)
	maximum = 0.11 (at node 2)
Accepted packet rate average = 0.1005
	minimum = 0.0943333 (at node 14)
	maximum = 0.107333 (at node 4)
Injected flit rate average = 0.10075
	minimum = 0.0903333 (at node 12)
	maximum = 0.11 (at node 2)
Accepted flit rate average= 0.1005
	minimum = 0.0943333 (at node 14)
	maximum = 0.107333 (at node 4)
Injected packet length average = 1
Accepted packet length average = 1
Total in-flight flits = 36 (36 measured)
latency change    = 0.00633939
throughput change = 0.0149254
Class 0:
Packet latency average = 21.6342
	minimum = 7
	maximum = 84
Network latency average = 21.6332
	minimum = 7
	maximum = 84
Slowest packet = 77115
Flit latency average = 21.6512
	minimum = 7
	maximum = 84
Slowest flit = 77115
Fragmentation average = 0
	minimum = 0
	maximum = 0
Injected packet rate average = 0.100125
	minimum = 0.09075 (at node 12)
	maximum = 0.11 (at node 3)
Accepted packet rate average = 0.0998437
	minimum = 0.09325 (at node 14)
	maximum = 0.10475 (at node 11)
Injected flit rate average = 0.100125
	minimum = 0.09075 (at node 12)
	maximum = 0.11 (at node 3)
Accepted flit rate average= 0.0998437
	minimum = 0.09325 (at node 14)
	maximum = 0.10475 (at node 11)
Injected packet length average = 1
Accepted packet length average = 1
Total in-flight flits = 42 (42 measured)
latency change    = 0.0017245
throughput change = 0.00657277
Draining all recorded packets ...
Draining remaining packets ...
Time taken is 7086 cycles
Class 0:
Packet latency average = 20.8676
	minimum = 7
	maximum = 62
Network latency average = 20.867
	minimum = 7
	maximum = 62
Slowest packet = 83539
Flit latency average = 20.867
	minimum = 7
	maximum = 62
Slowest flit = 83539
Fragmentation average = 0
	minimum = 0
	maximum = 0
Injected packet rate average = 0.0999375
	minimum = 0.086 (at node 0)
	maximum = 0.121 (at node 11)
Accepted packet rate average = 0.0981875
	minimum = 0.073 (at node 15)
	maximum = 0.127 (at node 5)
Injected flit rate average = 0.0999375
	minimum = 0.086 (at node 0)
	maximum = 0.121 (at node 11)
Accepted flit rate average= 0.0981875
	minimum = 0.073 (at node 15)
	maximum = 0.127 (at node 5)
Injected packet length average = 1
Accepted packet length average = 1
Total in-flight flits = 28 (0 measured)
latency change    = 1
throughput change = 1
Class 0:
Packet latency average = 21.1766
	minimum = 7
	maximum = 73
Network latency average = 21.1763
	minimum = 7
	maximum = 73
Slowest packet = 84524
Flit latency average = 21.1763
	minimum = 7
	maximum = 73
Slowest flit = 84524
Fragmentation average = 0
	minimum = 0
	maximum = 0
Injected packet rate average = 0.0992813
	minimum = 0.089 (at node 14)
	maximum = 0.11 (at node 11)
Accepted packet rate average = 0.0981875
	minimum = 0.085 (at node 15)
	maximum = 0.1215 (at node 5)
Injected flit rate average = 0.0992813
	minimum = 0.089 (at node 14)
	maximum = 0.11 (at node 11)
Accepted flit rate average= 0.0981875
	minimum = 0.085 (at node 15)
	maximum = 0.1215 (at node 5)
Injected packet length average = 1
Accepted packet length average = 1
Total in-flight flits = 35 (0 measured)
latency change    = 0.0145934
throughput change = 0
Class 0:
Packet latency average = 21.1723
	minimum = 7
	maximum = 66
Network latency average = 21.171
	minimum = 7
	maximum = 66
Slowest packet = 85784
Flit latency average = 21.171
	minimum = 7
	maximum = 66
Slowest flit = 85784
Fragmentation average = 0
	minimum = 0
	maximum = 0
Injected packet rate average = 0.09475
	minimum = 0.077 (at node 10)
	maximum = 0.108 (at node 8)
Accepted packet rate average = 0.0946875
	minimum = 0.083 (at node 12)
	maximum = 0.105 (at node 6)
Injected flit rate average = 0.09475
	minimum = 0.077 (at node 10)
	maximum = 0.108 (at node 8)
Accepted flit rate average= 0.0946875
	minimum = 0.083 (at node 12)
	maximum = 0.105 (at node 6)
Injected packet length average = 1
Accepted packet length average = 1
Total in-flight flits = 36 (0 measured)
latency change    = 0.000206017
throughput change = 0.0369637
Warmed up ...Time used is 3000 cycles
Class 0:
Packet latency average = 21.1773
	minimum = 7
	maximum = 85
Network latency average = 21.1773
	minimum = 7
	maximum = 85
Slowest packet = 87331
Flit latency average = 21.2805
	minimum = 7
	maximum = 85
Slowest flit = 87331
Fragmentation average = 0
	minimum = 0
	maximum = 0
Injected packet rate average = 0.100687
	minimum = 0.083 (at node 14)
	maximum = 0.115 (at node 2)
Accepted packet rate average = 0.100937
	minimum = 0.087 (at node 3)
	maximum = 0.123 (at node 9)
Injected flit rate average = 0.100687
	minimum = 0.083 (at node 14)
	maximum = 0.115 (at node 2)
Accepted flit rate average= 0.100937
	minimum = 0.087 (at node 3)
	maximum = 0.123 (at node 9)
Injected packet length average = 1
Accepted packet length average = 1
Total in-flight flits = 32 (32 measured)
latency change    = 0.000238472
throughput change = 0.0619195
Class 0:
Packet latency average = 21.3363
	minimum = 7
	maximum = 85
Network latency average = 21.336
	minimum = 7
	maximum = 85
Slowest packet = 87331
Flit latency average = 21.3863
	minimum = 7
	maximum = 85
Slowest flit = 87331
Fragmentation average = 0
	minimum = 0
	maximum = 0
Injected packet rate average = 0.0997813
	minimum = 0.09 (at node 13)
	maximum = 0.1135 (at node 1)
Accepted packet rate average = 0.0999063
	minimum = 0.0845 (at node 13)
	maximum = 0.112 (at node 10)
Injected flit rate average = 0.0997813
	minimum = 0.09 (at node 13)
	maximum = 0.1135 (at node 1)
Accepted flit rate average= 0.0999063
	minimum = 0.0845 (at node 13)
	maximum = 0.112 (at node 10)
Injected packet length average = 1
Accepted packet length average = 1
Total in-flight flits = 32 (32 measured)
latency change    = 0.00745015
throughput change = 0.0103222
Class 0:
Packet latency average = 21.4676
	minimum = 7
	maximum = 85
Network latency average = 21.4672
	minimum = 7
	maximum = 85
Slowest packet = 87331
Flit latency average = 21.4996
	minimum = 7
	maximum = 85
Slowest flit = 87331
Fragmentation average = 0
	minimum = 0
	maximum = 0
Injected packet rate average = 0.100187
	minimum = 0.089 (at node 12)
	maximum = 0.112333 (at node 0)
Accepted packet rate average = 0.100375
	minimum = 0.088 (at node 13)
	maximum = 0.112 (at node 10)
Injected flit rate average = 0.100187
	minimum = 0.089 (at node 12)
	maximum = 0.112333 (at node 0)
Accepted flit rate average= 0.100375
	minimum = 0.088 (at node 13)
	maximum = 0.112 (at node 10)
Injected packet length average = 1
Accepted packet length average = 1
Total in-flight flits = 27 (27 measured)
latency change    = 0.00611623
throughput change = 0.00466999
Class 0:
Packet latency average = 21.4179
	minimum = 7
	maximum = 85
Network latency average = 21.4175
	minimum = 7
	maximum = 85
Slowest packet = 87331
Flit latency average = 21.4419
	minimum = 7
	maximum = 85
Slowest flit = 87331
Fragmentation average = 0
	minimum = 0
	maximum = 0
Injected packet rate average = 0.100828
	minimum = 0.0925 (at node 13)
	maximum = 0.1105 (at node 1)
Accepted packet rate average = 0.100984
	minimum = 0.093 (at node 13)
	maximum = 0.10675 (at node 0)
Injected flit rate average = 0.100828
	minimum = 0.0925 (at node 13)
	maximum = 0.1105 (at node 1)
Accepted flit rate average= 0.100984
	minimum = 0.093 (at node 13)
	maximum = 0.10675 (at node 0)
Injected packet length average = 1
Accepted packet length average = 1
Total in-flight flits = 26 (26 measured)
latency change    = 0.00231873
throughput change = 0.00603435
Draining all recorded packets ...
Draining remaining packets ...
Time taken is 7099 cycles
Class 0:
Packet latency average = 21.377
	minimum = 7
	maximum = 84
Network latency average = 21.374
	minimum = 7
	maximum = 84
Slowest packet = 93540
Flit latency average = 21.374
	minimum = 7
	maximum = 84
Slowest flit = 93540
Fragmentation average = 0
	minimum = 0
	maximum = 0
Injected packet rate average = 0.107375
	minimum = 0.085 (at node 12)
	maximum = 0.124 (at node 0)
Accepted packet rate average = 0.104938
	minimum = 0.085 (at node 4)
	maximum = 0.127 (at node 9)
Injected flit rate average = 0.107375
	minimum = 0.085 (at node 12)
	maximum = 0.124 (at node 0)
Accepted flit rate average= 0.104938
	minimum = 0.085 (at node 4)
	maximum = 0.127 (at node 9)
Injected packet length average = 1
Accepted packet length average = 1
Total in-flight flits = 39 (0 measured)
latency change    = 1
throughput change = 1
Class 0:
Packet latency average = 21.2373
	minimum = 7
	maximum = 87
Network latency average = 21.2354
	minimum = 7
	maximum = 87
Slowest packet = 96410
Flit latency average = 21.2354
	minimum = 7
	maximum = 87
Slowest flit = 96410
Fragmentation average = 0
	minimum = 0
	maximum = 0
Injected packet rate average = 0.103156
	minimum = 0.0915 (at node 4)
	maximum = 0.1205 (at node 0)
Accepted packet rate average = 0.101938
	minimum = 0.0905 (at node 4)
	maximum = 0.118 (at node 14)
Injected flit rate average = 0.103156
	minimum = 0.0915 (at node 4)
	maximum = 0.1205 (at node 0)
Accepted flit rate average= 0.101938
	minimum = 0.0905 (at node 4)
	maximum = 0.118 (at node 14)
Injected packet length average = 1
Accepted packet length average = 1
Total in-flight flits = 39 (0 measured)
latency change    = 0.00657958
throughput change = 0.0294298
Class 0:
Packet latency average = 21.425
	minimum = 7
	maximum = 74
Network latency average = 21.425
	minimum = 7
	maximum = 74
Slowest packet = 96738
Flit latency average = 21.425
	minimum = 7
	maximum = 74
Slowest flit = 96738
Fragmentation average = 0
	minimum = 0
	maximum = 0
Injected packet rate average = 0.105875
	minimum = 0.096 (at node 0)
	maximum = 0.119 (at node 8)
Accepted packet rate average = 0.105438
	minimum = 0.091 (at node 15)
	maximum = 0.129 (at node 8)
Injected flit rate average = 0.105875
	minimum = 0.096 (at node 0)
	maximum = 0.119 (at node 8)
Accepted flit rate average= 0.105438
	minimum = 0.091 (at node 15)
	maximum = 0.129 (at node 8)
Injected packet length average = 1
Accepted packet length average = 1
Total in-flight flits = 46 (0 measured)
latency change    = 0.00876252
throughput change = 0.033195
Warmed up ...Time used is 3000 cycles
Class 0:
Packet latency average = 21.6635
	minimum = 7
	maximum = 74
Network latency average = 21.6635
	minimum = 7
	maximum = 74
Slowest packet = 98469
Flit latency average = 21.7636
	minimum = 7
	maximum = 74
Slowest flit = 98469
Fragmentation average = 0
	minimum = 0
	maximum = 0
Injected packet rate average = 0.0995625
	minimum = 0.088 (at node 12)
	maximum = 0.123 (at node 13)
Accepted packet rate average = 0.10075
	minimum = 0.085 (at node 4)
	maximum = 0.122 (at node 1)
Injected flit rate average = 0.0995625
	minimum = 0.088 (at node 12)
	maximum = 0.123 (at node 13)
Accepted flit rate average= 0.10075
	minimum = 0.085 (at node 4)
	maximum = 0.122 (at node 1)
Injected packet length average = 1
Accepted packet length average = 1
Total in-flight flits = 27 (27 measured)
latency change    = 0.0110074
throughput change = 0.0465261
Class 0:
Packet latency average = 21.568
	minimum = 7
	maximum = 74
Network latency average = 21.568
	minimum = 7
	maximum = 74
Slowest packet = 98469
Flit latency average = 21.6209
	minimum = 7
	maximum = 74
Slowest flit = 98469
Fragmentation average = 0
	minimum = 0
	maximum = 0
Injected packet rate average = 0.097625
	minimum = 0.085 (at node 12)
	maximum = 0.111 (at node 13)
Accepted packet rate average = 0.098
	minimum = 0.086 (at node 3)
	maximum = 0.111 (at node 8)
Injected flit rate average = 0.097625
	minimum = 0.085 (at node 12)
	maximum = 0.111 (at node 13)
Accepted flit rate average= 0.098
	minimum = 0.086 (at node 3)
	maximum = 0.111 (at node 8)
Injected packet length average = 1
Accepted packet length average = 1
Total in-flight flits = 34 (34 measured)
latency change    = 0.00442845
throughput change = 0.0280612
Class 0:
Packet latency average = 21.4044
	minimum = 7
	maximum = 74
Network latency average = 21.4038
	minimum = 7
	maximum = 74
Slowest packet = 98469
Flit latency average = 21.4403
	minimum = 7
	maximum = 74
Slowest flit = 98469
Fragmentation average = 0
	minimum = 0
	maximum = 0
Injected packet rate average = 0.0986875
	minimum = 0.0856667 (at node 12)
	maximum = 0.109 (at node 13)
Accepted packet rate average = 0.0989375
	minimum = 0.089 (at node 3)
	maximum = 0.110667 (at node 8)
Injected flit rate average = 0.0986875
	minimum = 0.0856667 (at node 12)
	maximum = 0.109 (at node 13)
Accepted flit rate average= 0.0989375
	minimum = 0.089 (at node 3)
	maximum = 0.110667 (at node 8)
Injected packet length average = 1
Accepted packet length average = 1
Total in-flight flits = 34 (34 measured)
latency change    = 0.0076404
throughput change = 0.00947568
Draining all recorded packets ...
Draining remaining packets ...
Time taken is 6070 cycles
Class 0:
Packet latency average = 21.1821
	minimum = 7
	maximum = 78
Network latency average = 21.1815
	minimum = 7
	maximum = 78
Slowest packet = 104318
Flit latency average = 21.1815
	minimum = 7
	maximum = 78
Slowest flit = 104318
Fragmentation average = 0
	minimum = 0
	maximum = 0
Injected packet rate average = 0.0979375
	minimum = 0.08 (at node 15)
	maximum = 0.132 (at node 11)
Accepted packet rate average = 0.09575
	minimum = 0.08 (at node 4)
	maximum = 0.11 (at node 11)
Injected flit rate average = 0.0979375
	minimum = 0.08 (at node 15)
	maximum = 0.132 (at node 11)
Accepted flit rate average= 0.09575
	minimum = 0.08 (at node 4)
	maximum = 0.11 (at node 11)
Injected packet length average = 1
Accepted packet length average = 1
Total in-flight flits = 35 (0 measured)
latency change    = 1
throughput change = 1
Class 0:
Packet latency average = 21.2203
	minimum = 7
	maximum = 88
Network latency average = 21.2199
	minimum = 7
	maximum = 88
Slowest packet = 105980
Flit latency average = 21.2199
	minimum = 7
	maximum = 88
Slowest flit = 105980
Fragmentation average = 0
	minimum = 0
	maximum = 0
Injected packet rate average = 0.0968438
	minimum = 0.088 (at node 6)
	maximum = 0.115 (at node 8)
Accepted packet rate average = 0.0959062
	minimum = 0.0845 (at node 4)
	maximum = 0.1045 (at node 7)
Injected flit rate average = 0.0968438
	minimum = 0.088 (at node 6)
	maximum = 0.115 (at node 8)
Accepted flit rate average= 0.0959062
	minimum = 0.0845 (at node 4)
	maximum = 0.1045 (at node 7)
Injected packet length average = 1
Accepted packet length average = 1
Total in-flight flits = 30 (0 measured)
latency change    = 0.00179792
throughput change = 0.0016292
Class 0:
Packet latency average = 21.2555
	minimum = 7
	maximum = 75
Network latency average = 21.2555
	minimum = 7
	maximum = 75
Slowest packet = 106932
Flit latency average = 21.2555
	minimum = 7
	maximum = 75
Slowest flit = 106932
Fragmentation average = 0
	minimum = 0
	maximum = 0
Injected packet rate average = 0.102313
	minimum = 0.092 (at node 5)
	maximum = 0.125 (at node 0)
Accepted packet rate average = 0.10175
	minimum = 0.089 (at node 6)
	maximum = 0.114 (at node 11)
Injected flit rate average = 0.102313
	minimum = 0.092 (at node 5)
	maximum = 0.125 (at node 0)
Accepted flit rate average= 0.10175
	minimum = 0.089 (at node 6)
	maximum = 0.114 (at node 11)
Injected packet length average = 1
Accepted packet length average = 1
Total in-flight flits = 39 (0 measured)
latency change    = 0.00165891
throughput change = 0.0574324
Warmed up ...Time used is 3000 cycles
Class 0:
Packet latency average = 21.5129
	minimum = 7
	maximum = 85
Network latency average = 21.5129
	minimum = 7
	maximum = 85
Slowest packet = 108665
Flit latency average = 21.7143
	minimum = 7
	maximum = 85
Slowest flit = 108665
Fragmentation average = 0
	minimum = 0
	maximum = 0
Injected packet rate average = 0.0989375
	minimum = 0.083 (at node 2)
	maximum = 0.119 (at node 6)
Accepted packet rate average = 0.0993125
	minimum = 0.087 (at node 2)
	maximum = 0.111 (at node 3)
Injected flit rate average = 0.0989375
	minimum = 0.083 (at node 2)
	maximum = 0.119 (at node 6)
Accepted flit rate average= 0.0993125
	minimum = 0.087 (at node 2)
	maximum = 0.111 (at node 3)
Injected packet length average = 1
Accepted packet length average = 1
Total in-flight flits = 33 (33 measured)
latency change    = 0.0119637
throughput change = 0.0245437
Class 0:
Packet latency average = 21.4043
	minimum = 7
	maximum = 85
Network latency average = 21.404
	minimum = 7
	maximum = 85
Slowest packet = 108665
Flit latency average = 21.5066
	minimum = 7
	maximum = 85
Slowest flit = 108665
Fragmentation average = 0
	minimum = 0
	maximum = 0
Injected packet rate average = 0.0985313
	minimum = 0.088 (at node 2)
	maximum = 0.1095 (at node 15)
Accepted packet rate average = 0.0986875
	minimum = 0.0865 (at node 2)
	maximum = 0.1115 (at node 3)
Injected flit rate average = 0.0985313
	minimum = 0.088 (at node 2)
	maximum = 0.1095 (at node 15)
Accepted flit rate average= 0.0986875
	minimum = 0.0865 (at node 2)
	maximum = 0.1115 (at node 3)
Injected packet length average = 1
Accepted packet length average = 1
Total in-flight flits = 34 (34 measured)
latency change    = 0.00507407
throughput change = 0.00633312
Class 0:
Packet latency average = 21.3972
	minimum = 7
	maximum = 85
Network latency average = 21.3965
	minimum = 7
	maximum = 85
Slowest packet = 108665
Flit latency average = 21.4647
	minimum = 7
	maximum = 85
Slowest flit = 108665
Fragmentation average = 0
	minimum = 0
	maximum = 0
Injected packet rate average = 0.0992292
	minimum = 0.0896667 (at node 5)
	maximum = 0.104 (at node 0)
Accepted packet rate average = 0.0991667
	minimum = 0.0896667 (at node 2)
	maximum = 0.106333 (at node 3)
Injected flit rate average = 0.0992292
	minimum = 0.0896667 (at node 5)
	maximum = 0.104 (at node 0)
Accepted flit rate average= 0.0991667
	minimum = 0.0896667 (at node 2)
	maximum = 0.106333 (at node 3)
Injected packet length average = 1
Accepted packet length average = 1
Total in-flight flits = 42 (42 measured)
latency change    = 0.000333438
throughput change = 0.00483193
Draining all recorded packets ...
Draining remaining packets ...
Time taken is 6077 cycles
Class 0:
Packet latency average = 20.8668
	minimum = 7
	maximum = 70
Network latency average = 20.8661
	minimum = 7
	maximum = 70
Slowest packet = 113911
Flit latency average = 20.8661
	minimum = 7
	maximum = 70
Slowest flit = 113911
Fragmentation average = 0
	minimum = 0
	maximum = 0
Injected packet rate average = 0.096375
	minimum = 0.082 (at node 14)
	maximum = 0.115 (at node 8)
Accepted packet rate average = 0.0943125
	minimum = 0.076 (at node 5)
	maximum = 0.116 (at node 7)
Injected flit rate average = 0.096375
	minimum = 0.082 (at node 14)
	maximum = 0.115 (at node 8)
Accepted flit rate average= 0.0943125
	minimum = 0.076 (at node 5)
	maximum = 0.116 (at node 7)
Injected packet length average = 1
Accepted packet length average = 1
Total in-flight flits = 33 (0 measured)
latency change    = 1
throughput change = 1
Class 0:
Packet latency average = 21.1058
	minimum = 7
	maximum = 70
Network latency average = 21.1055
	minimum = 7
	maximum = 70
Slowest packet = 113911
Flit latency average = 21.1055
	minimum = 7
	maximum = 70
Slowest flit = 113911
Fragmentation average = 0
	minimum = 0
	maximum = 0
Injected packet rate average = 0.0994063
	minimum = 0.091 (at node 10)
	maximum = 0.11 (at node 0)
Accepted packet rate average = 0.0983437
	minimum = 0.087 (at node 14)
	maximum = 0.1105 (at node 13)
Injected flit rate average = 0.0994063
	minimum = 0.091 (at node 10)
	maximum = 0.11 (at node 0)
Accepted flit rate average= 0.0983437
	minimum = 0.087 (at node 14)
	maximum = 0.1105 (at node 13)
Injected packet length average = 1
Accepted packet length average = 1
Total in-flight flits = 34 (0 measured)
latency change    = 0.0113246
throughput change = 0.0409914
Class 0:
Packet latency average = 21.409
	minimum = 7
	maximum = 84
Network latency average = 21.4078
	minimum = 7
	maximum = 84
Slowest packet = 116553
Flit latency average = 21.4078
	minimum = 7
	maximum = 84
Slowest flit = 116553
Fragmentation average = 0
	minimum = 0
	maximum = 0
Injected packet rate average = 0.0985625
	minimum = 0.083 (at node 1)
	maximum = 0.118 (at node 13)
Accepted packet rate average = 0.09825
	minimum = 0.073 (at node 13)
	maximum = 0.128 (at node 3)
Injected flit rate average = 0.0985625
	minimum = 0.083 (at node 1)
	maximum = 0.118 (at node 13)
Accepted flit rate average= 0.09825
	minimum = 0.073 (at node 13)
	maximum = 0.128 (at node 3)
Injected packet length average = 1
Accepted packet length average = 1
Total in-flight flits = 39 (0 measured)
latency change    = 0.0141631
throughput change = 0.000954198
Warmed up ...Time used is 3000 cycles
Class 0:
Packet latency average = 21.5968
	minimum = 7
	maximum = 77
Network latency average = 21.5968
	minimum = 7
	maximum = 77
Slowest packet = 118248
Flit latency average = 21.7671
	minimum = 7
	maximum = 77
Slowest flit = 118248
Fragmentation average = 0
	minimum = 0
	maximum = 0
Injected packet rate average = 0.102063
	minimum = 0.084 (at node 15)
	maximum = 0.117 (at node 7)
Accepted packet rate average = 0.101187
	minimum = 0.079 (at node 3)
	maximum = 0.124 (at node 7)
Injected flit rate average = 0.102063
	minimum = 0.084 (at node 15)
	maximum = 0.117 (at node 7)
Accepted flit rate average= 0.101187
	minimum = 0.079 (at node 3)
	maximum = 0.124 (at node 7)
Injected packet length average = 1
Accepted packet length average = 1
Total in-flight flits = 53 (53 measured)
latency change    = 0.00869583
throughput change = 0.0290303
Class 0:
Packet latency average = 21.6725
	minimum = 7
	maximum = 105
Network latency average = 21.6722
	minimum = 7
	maximum = 105
Slowest packet = 119313
Flit latency average = 21.7562
	minimum = 7
	maximum = 105
Slowest flit = 119313
Fragmentation average = 0
	minimum = 0
	maximum = 0
Injected packet rate average = 0.101219
	minimum = 0.091 (at node 12)
	maximum = 0.118 (at node 7)
Accepted packet rate average = 0.101406
	minimum = 0.09 (at node 3)
	maximum = 0.1185 (at node 2)
Injected flit rate average = 0.101219
	minimum = 0.091 (at node 12)
	maximum = 0.118 (at node 7)
Accepted flit rate average= 0.101406
	minimum = 0.09 (at node 3)
	maximum = 0.1185 (at node 2)
Injected packet length average = 1
Accepted packet length average = 1
Total in-flight flits = 33 (33 measured)
latency change    = 0.00349077
throughput change = 0.00215716
Class 0:
Packet latency average = 21.5863
	minimum = 7
	maximum = 105
Network latency average = 21.5859
	minimum = 7
	maximum = 105
Slowest packet = 119313
Flit latency average = 21.6434
	minimum = 7
	maximum = 105
Slowest flit = 119313
Fragmentation average = 0
	minimum = 0
	maximum = 0
Injected packet rate average = 0.099875
	minimum = 0.0926667 (at node 15)
	maximum = 0.108667 (at node 7)
Accepted packet rate average = 0.100125
	minimum = 0.086 (at node 8)
	maximum = 0.115 (at node 2)
Injected flit rate average = 0.099875
	minimum = 0.0926667 (at node 15)
	maximum = 0.108667 (at node 7)
Accepted flit rate average= 0.100125
	minimum = 0.086 (at node 8)
	maximum = 0.115 (at node 2)
Injected packet length average = 1
Accepted packet length average = 1
Total in-flight flits = 27 (27 measured)
latency change    = 0.00399172
throughput change = 0.0127965
Draining all recorded packets ...
Draining remaining packets ...
Time taken is 6076 cycles
Class 0:
Packet latency average = 21.3254
	minimum = 7
	maximum = 79
Network latency average = 21.3223
	minimum = 7
	maximum = 79
Slowest packet = 123787
Flit latency average = 21.3223
	minimum = 7
	maximum = 79
Slowest flit = 123787
Fragmentation average = 0
	minimum = 0
	maximum = 0
Injected packet rate average = 0.102438
	minimum = 0.084 (at node 4)
	maximum = 0.119 (at node 11)
Accepted packet rate average = 0.099875
	minimum = 0.086 (at node 6)
	maximum = 0.122 (at node 5)
Injected flit rate average = 0.102438
	minimum = 0.084 (at node 4)
	maximum = 0.119 (at node 11)
Accepted flit rate average= 0.099875
	minimum = 0.086 (at node 6)
	maximum = 0.122 (at node 5)
Injected packet length average = 1
Accepted packet length average = 1
Total in-flight flits = 41 (0 measured)
latency change    = 1
throughput change = 1
Class 0:
Packet latency average = 21.4636
	minimum = 7
	maximum = 79
Network latency average = 21.4614
	minimum = 7
	maximum = 79
Slowest packet = 123787
Flit latency average = 21.4614
	minimum = 7
	maximum = 79
Slowest flit = 123787
Fragmentation average = 0
	minimum = 0
	maximum = 0
Injected packet rate average = 0.101375
	minimum = 0.093 (at node 10)
	maximum = 0.1105 (at node 11)
Accepted packet rate average = 0.100031
	minimum = 0.087 (at node 6)
	maximum = 0.1085 (at node 7)
Injected flit rate average = 0.101375
	minimum = 0.093 (at node 10)
	maximum = 0.1105 (at node 11)
Accepted flit rate average= 0.100031
	minimum = 0.087 (at node 6)
	maximum = 0.1085 (at node 7)
Injected packet length average = 1
Accepted packet length average = 1
Total in-flight flits = 43 (0 measured)
latency change    = 0.00643873
throughput change = 0.00156201
Class 0:
Packet latency average = 21.6797
	minimum = 7
	maximum = 72
Network latency average = 21.6797
	minimum = 7
	maximum = 72
Slowest packet = 126633
Flit latency average = 21.6797
	minimum = 7
	maximum = 72
Slowest flit = 126633
Fragmentation average = 0
	minimum = 0
	maximum = 0
Injected packet rate average = 0.103375
	minimum = 0.089 (at node 10)
	maximum = 0.121 (at node 8)
Accepted packet rate average = 0.103625
	minimum = 0.087 (at node 5)
	maximum = 0.122 (at node 1)
Injected flit rate average = 0.103375
	minimum = 0.089 (at node 10)
	maximum = 0.121 (at node 8)
Accepted flit rate average= 0.103625
	minimum = 0.087 (at node 5)
	maximum = 0.122 (at node 1)
Injected packet length average = 1
Accepted packet length average = 1
Total in-flight flits = 39 (0 measured)
latency change    = 0.00996919
throughput change = 0.0346803
Warmed up ...Time used is 3000 cycles
Class 0:
Packet latency average = 21.6574
	minimum = 7
	maximum = 88
Network latency average = 21.6568
	minimum = 7
	maximum = 88
Slowest packet = 127874
Flit latency average = 21.8337
	minimum = 7
	maximum = 88
Slowest flit = 127874
Fragmentation average = 0
	minimum = 0
	maximum = 0
Injected packet rate average = 0.1015
	minimum = 0.09 (at node 3)
	maximum = 0.128 (at node 15)
Accepted packet rate average = 0.101875
	minimum = 0.076 (at node 7)
	maximum = 0.129 (at node 3)
Injected flit rate average = 0.1015
	minimum = 0.09 (at node 3)
	maximum = 0.128 (at node 15)
Accepted flit rate average= 0.101875
	minimum = 0.076 (at node 7)
	maximum = 0.129 (at node 3)
Injected packet length average = 1
Accepted packet length average = 1
Total in-flight flits = 33 (33 measured)
latency change    = 0.00102904
throughput change = 0.0171779
Class 0:
Packet latency average = 21.5912
	minimum = 7
	maximum = 88
Network latency average = 21.5909
	minimum = 7
	maximum = 88
Slowest packet = 127874
Flit latency average = 21.6789
	minimum = 7
	maximum = 88
Slowest flit = 127874
Fragmentation average = 0
	minimum = 0
	maximum = 0
Injected packet rate average = 0.103094
	minimum = 0.0925 (at node 10)
	maximum = 0.121 (at node 11)
Accepted packet rate average = 0.103344
	minimum = 0.0895 (at node 7)
	maximum = 0.12 (at node 3)
Injected flit rate average = 0.103094
	minimum = 0.0925 (at node 10)
	maximum = 0.121 (at node 11)
Accepted flit rate average= 0.103344
	minimum = 0.0895 (at node 7)
	maximum = 0.12 (at node 3)
Injected packet length average = 1
Accepted packet length average = 1
Total in-flight flits = 31 (31 measured)
latency change    = 0.00306889
throughput change = 0.0142123
Class 0:
Packet latency average = 21.4891
	minimum = 7
	maximum = 88
Network latency average = 21.4887
	minimum = 7
	maximum = 88
Slowest packet = 127874
Flit latency average = 21.5488
	minimum = 7
	maximum = 88
Slowest flit = 127874
Fragmentation average = 0
	minimum = 0
	maximum = 0
Injected packet rate average = 0.102146
	minimum = 0.0936667 (at node 10)
	maximum = 0.110667 (at node 0)
Accepted packet rate average = 0.102188
	minimum = 0.093 (at node 4)
	maximum = 0.117667 (at node 11)
Injected flit rate average = 0.102146
	minimum = 0.0936667 (at node 10)
	maximum = 0.110667 (at node 0)
Accepted flit rate average= 0.102188
	minimum = 0.093 (at node 4)
	maximum = 0.117667 (at node 11)
Injected packet length average = 1
Accepted packet length average = 1
Total in-flight flits = 37 (37 measured)
latency change    = 0.00475028
throughput change = 0.011315
Draining all recorded packets ...
Draining remaining packets ...
Time taken is 6076 cycles
Class 0:
Packet latency average = 21.105
	minimum = 7
	maximum = 86
Network latency average = 21.1044
	minimum = 7
	maximum = 86
Slowest packet = 133178
Flit latency average = 21.1044
	minimum = 7
	maximum = 86
Slowest flit = 133178
Fragmentation average = 0
	minimum = 0
	maximum = 0
Injected packet rate average = 0.0973125
	minimum = 0.078 (at node 3)
	maximum = 0.132 (at node 5)
Accepted packet rate average = 0.0958125
	minimum = 0.085 (at node 5)
	maximum = 0.107 (at node 3)
Injected flit rate average = 0.0973125
	minimum = 0.078 (at node 3)
	maximum = 0.132 (at node 5)
Accepted flit rate average= 0.0958125
	minimum = 0.085 (at node 5)
	maximum = 0.107 (at node 3)
Injected packet length average = 1
Accepted packet length average = 1
Total in-flight flits = 24 (0 measured)
latency change    = 1
throughput change = 1
Class 0:
Packet latency average = 21.06
	minimum = 7
	maximum = 86
Network latency average = 21.0597
	minimum = 7
	maximum = 86
Slowest packet = 133178
Flit latency average = 21.0597
	minimum = 7
	maximum = 86
Slowest flit = 133178
Fragmentation average = 0
	minimum = 0
	maximum = 0
Injected packet rate average = 0.097875
	minimum = 0.089 (at node 3)
	maximum = 0.1155 (at node 5)
Accepted packet rate average = 0.0968438
	minimum = 0.0875 (at node 13)
	maximum = 0.111 (at node 10)
Injected flit rate average = 0.097875
	minimum = 0.089 (at node 3)
	maximum = 0.1155 (at node 5)
Accepted flit rate average= 0.0968438
	minimum = 0.0875 (at node 13)
	maximum = 0.111 (at node 10)
Injected packet length average = 1
Accepted packet length average = 1
Total in-flight flits = 33 (0 measured)
latency change    = 0.00213691
throughput change = 0.0106486
Class 0:
Packet latency average = 21.0297
	minimum = 7
	maximum = 93
Network latency average = 21.0297
	minimum = 7
	maximum = 93
Slowest packet = 135238
Flit latency average = 21.0297
	minimum = 7
	maximum = 93
Slowest flit = 135238
Fragmentation average = 0
	minimum = 0
	maximum = 0
Injected packet rate average = 0.099
	minimum = 0.083 (at node 9)
	maximum = 0.118 (at node 12)
Accepted packet rate average = 0.0989375
	minimum = 0.082 (at node 8)
	maximum = 0.122 (at node 3)
Injected flit rate average = 0.099
	minimum = 0.083 (at node 9)
	maximum = 0.118 (at node 12)
Accepted flit rate average= 0.0989375
	minimum = 0.082 (at node 8)
	maximum = 0.122 (at node 3)
Injected packet length average = 1
Accepted packet length average = 1
Total in-flight flits = 34 (0 measured)
latency change    = 0.00144219
throughput change = 0.0211623
Warmed up ...Time used is 3000 cycles
Class 0:
Packet latency average = 21.5053
	minimum = 7
	maximum = 72
Network latency average = 21.5053
	minimum = 7
	maximum = 72
Slowest packet = 137226
Flit latency average = 21.6183
	minimum = 7
	maximum = 72
Slowest flit = 137226
Fragmentation average = 0
	minimum = 0
	maximum = 0
Injected packet rate average = 0.0956875
	minimum = 0.087 (at node 5)
	maximum = 0.107 (at node 4)
Accepted packet rate average = 0.096125
	minimum = 0.083 (at node 8)
	maximum = 0.108 (at node 7)
Injected flit rate average = 0.0956875
	minimum = 0.087 (at node 5)
	maximum = 0.107 (at node 4)
Accepted flit rate average= 0.096125
	minimum = 0.083 (at node 8)
	maximum = 0.108 (at node 7)
Injected packet length average = 1
Accepted packet length average = 1
Total in-flight flits = 27 (27 measured)
latency change    = 0.0221168
throughput change = 0.0292588
Class 0:
Packet latency average = 21.456
	minimum = 7
	maximum = 83
Network latency average = 21.456
	minimum = 7
	maximum = 83
Slowest packet = 139520
Flit latency average = 21.5108
	minimum = 7
	maximum = 83
Slowest flit = 139520
Fragmentation average = 0
	minimum = 0
	maximum = 0
Injected packet rate average = 0.09975
	minimum = 0.0895 (at node 3)
	maximum = 0.1095 (at node 4)
Accepted packet rate average = 0.100031
	minimum = 0.0825 (at node 8)
	maximum = 0.11 (at node 7)
Injected flit rate average = 0.09975
	minimum = 0.0895 (at node 3)
	maximum = 0.1095 (at node 4)
Accepted flit rate average= 0.100031
	minimum = 0.0825 (at node 8)
	maximum = 0.11 (at node 7)
Injected packet length average = 1
Accepted packet length average = 1
Total in-flight flits = 25 (25 measured)
latency change    = 0.00230086
throughput change = 0.0390503
Class 0:
Packet latency average = 21.353
	minimum = 7
	maximum = 83
Network latency average = 21.3528
	minimum = 7
	maximum = 83
Slowest packet = 139520
Flit latency average = 21.3904
	minimum = 7
	maximum = 83
Slowest flit = 139520
Fragmentation average = 0
	minimum = 0
	maximum = 0
Injected packet rate average = 0.0994375
	minimum = 0.094 (at node 3)
	maximum = 0.105667 (at node 1)
Accepted packet rate average = 0.099375
	minimum = 0.081 (at node 8)
	maximum = 0.107667 (at node 4)
Injected flit rate average = 0.0994375
	minimum = 0.094 (at node 3)
	maximum = 0.105667 (at node 1)
Accepted flit rate average= 0.099375
	minimum = 0.081 (at node 8)
	maximum = 0.107667 (at node 4)
Injected packet length average = 1
Accepted packet length average = 1
Total in-flight flits = 37 (37 measured)
latency change    = 0.00481952
throughput change = 0.00660377
Draining all recorded packets ...
Draining remaining packets ...
Time taken is 6068 cycles
Class 0:
Packet latency average = 21.4528
	minimum = 7
	maximum = 73
Network latency average = 21.4528
	minimum = 7
	maximum = 73
Slowest packet = 142186
Flit latency average = 21.4528
	minimum = 7
	maximum = 73
Slowest flit = 142186
Fragmentation average = 0
	minimum = 0
	maximum = 0
Injected packet rate average = 0.099625
	minimum = 0.082 (at node 2)
	maximum = 0.118 (at node 3)
Accepted packet rate average = 0.0973125
	minimum = 0.078 (at node 0)
	maximum = 0.112 (at node 11)
Injected flit rate average = 0.099625
	minimum = 0.082 (at node 2)
	maximum = 0.118 (at node 3)
Accepted flit rate average= 0.0973125
	minimum = 0.078 (at node 0)
	maximum = 0.112 (at node 11)
Injected packet length average = 1
Accepted packet length average = 1
Total in-flight flits = 37 (0 measured)
latency change    = 1
throughput change = 1
Class 0:
Packet latency average = 21.4327
	minimum = 7
	maximum = 81
Network latency average = 21.4327
	minimum = 7
	maximum = 81
Slowest packet = 144586
Flit latency average = 21.4327
	minimum = 7
	maximum = 81
Slowest flit = 144586
Fragmentation average = 0
	minimum = 0
	maximum = 0
Injected packet rate average = 0.0993125
	minimum = 0.085 (at node 7)
	maximum = 0.1075 (at node 3)
Accepted packet rate average = 0.098
	minimum = 0.0845 (at node 0)
	maximum = 0.108 (at node 4)
Injected flit rate average = 0.0993125
	minimum = 0.085 (at node 7)
	maximum = 0.1075 (at node 3)
Accepted flit rate average= 0.098
	minimum = 0.0845 (at node 0)
	maximum = 0.108 (at node 4)
Injected packet length average = 1
Accepted packet length average = 1
Total in-flight flits = 42 (0 measured)
latency change    = 0.000936745
throughput change = 0.00701531
Class 0:
Packet latency average = 21.558
	minimum = 7
	maximum = 100
Network latency average = 21.558
	minimum = 7
	maximum = 100
Slowest packet = 145605
Flit latency average = 21.558
	minimum = 7
	maximum = 100
Slowest flit = 145605
Fragmentation average = 0
	minimum = 0
	maximum = 0
Injected packet rate average = 0.102313
	minimum = 0.085 (at node 0)
	maximum = 0.112 (at node 2)
Accepted packet rate average = 0.102938
	minimum = 0.084 (at node 5)
	maximum = 0.116 (at node 0)
Injected flit rate average = 0.102313
	minimum = 0.085 (at node 0)
	maximum = 0.112 (at node 2)
Accepted flit rate average= 0.102938
	minimum = 0.084 (at node 5)
	maximum = 0.116 (at node 0)
Injected packet length average = 1
Accepted packet length average = 1
Total in-flight flits = 32 (0 measured)
latency change    = 0.00581072
throughput change = 0.047966
Warmed up ...Time used is 3000 cycles
Class 0:
Packet latency average = 21.6528
	minimum = 7
	maximum = 75
Network latency average = 21.6521
	minimum = 7
	maximum = 75
Slowest packet = 147164
Flit latency average = 21.6758
	minimum = 7
	maximum = 75
Slowest flit = 147164
Fragmentation average = 0
	minimum = 0
	maximum = 0
Injected packet rate average = 0.098125
	minimum = 0.073 (at node 10)
	maximum = 0.114 (at node 1)
Accepted packet rate average = 0.098125
	minimum = 0.076 (at node 8)
	maximum = 0.123 (at node 15)
Injected flit rate average = 0.098125
[...]
	minimum = 0.088 (at node 8)
	maximum = 0.1105 (at node 0)
Accepted packet rate average = 0.100344
	minimum = 0.089 (at node 5)
	maximum = 0.115 (at node 6)
Injected flit rate average = 0.100031
	minimum = 0.088 (at node 8)
	maximum = 0.1105 (at node 0)
Accepted flit rate average= 0.100344
	minimum = 0.089 (at node 5)
	maximum = 0.115 (at node 6)
Injected packet length average = 1
Accepted packet length average = 1
Total in-flight flits = 22 (22 measured)
latency change    = 0.0031866
throughput change = 0.0233572
Class 0:
Packet latency average = 21.0453
	minimum = 7
	maximum = 72
Network latency average = 21.044
	minimum = 7
	maximum = 72
Slowest packet = 955414
Flit latency average = 21.0815
	minimum = 7
	maximum = 72
Slowest flit = 955414
Fragmentation average = 0
	minimum = 0
	maximum = 0
Injected packet rate average = 0.0997292
	minimum = 0.0893333 (at node 8)
	maximum = 0.108667 (at node 2)
Accepted packet rate average = 0.0996458
	minimum = 0.0933333 (at node 8)
	maximum = 0.108 (at node 0)
Injected flit rate average = 0.0997292
	minimum = 0.0893333 (at node 8)
	maximum = 0.108667 (at node 2)
Accepted flit rate average= 0.0996458
	minimum = 0.0933333 (at node 8)
	maximum = 0.108 (at node 0)
Injected packet length average = 1
Accepted packet length average = 1
Total in-flight flits = 36 (36 measured)
latency change    = 0.00616026
throughput change = 0.00700397
Class 0:
Packet latency average = 21.1279
	minimum = 7
	maximum = 82
Network latency average = 21.1269
	minimum = 7
	maximum = 82
Slowest packet = 958750
Flit latency average = 21.1549
	minimum = 7
	maximum = 82
Slowest flit = 958750
Fragmentation average = 0
	minimum = 0
	maximum = 0
Injected packet rate average = 0.0990156
	minimum = 0.0865 (at node 8)
	maximum = 0.11 (at node 2)
Accepted packet rate average = 0.098875
	minimum = 0.08825 (at node 11)
	maximum = 0.105 (at node 0)
Injected flit rate average = 0.0990156
	minimum = 0.0865 (at node 8)
	maximum = 0.11 (at node 2)
Accepted flit rate average= 0.098875
	minimum = 0.08825 (at node 11)
	maximum = 0.105 (at node 0)
Injected packet length average = 1
Accepted packet length average = 1
Total in-flight flits = 41 (41 measured)
latency change    = 0.00390978
throughput change = 0.00779604
Draining all recorded packets ...
Draining remaining packets ...
Time taken is 7090 cycles
Class 0:
Packet latency average = 21.12
	minimum = 7
	maximum = 76
Network latency average = 21.1167
	minimum = 7
	maximum = 76
Slowest packet = 959741
Flit latency average = 21.1167
	minimum = 7
	maximum = 76
Slowest flit = 959741
Fragmentation average = 0
	minimum = 0
	maximum = 0
Injected packet rate average = 0.097875
	minimum = 0.075 (at node 4)
	maximum = 0.116 (at node 5)
Accepted packet rate average = 0.096375
	minimum = 0.075 (at node 1)
	maximum = 0.108 (at node 4)
Injected flit rate average = 0.097875
	minimum = 0.075 (at node 4)
	maximum = 0.116 (at node 5)
Accepted flit rate average= 0.096375
	minimum = 0.075 (at node 1)
	maximum = 0.108 (at node 4)
Injected packet length average = 1
Accepted packet length average = 1
Total in-flight flits = 24 (0 measured)
latency change    = 1
throughput change = 1
Class 0:
Packet latency average = 21.2348
	minimum = 7
	maximum = 76
Network latency average = 21.2325
	minimum = 7
	maximum = 76
Slowest packet = 959741
Flit latency average = 21.2325
	minimum = 7
	maximum = 76
Slowest flit = 959741
Fragmentation average = 0
	minimum = 0
	maximum = 0
Injected packet rate average = 0.0977187
	minimum = 0.0875 (at node 11)
	maximum = 0.1085 (at node 5)
Accepted packet rate average = 0.096625
	minimum = 0.0835 (at node 1)
	maximum = 0.1105 (at node 6)
Injected flit rate average = 0.0977187
	minimum = 0.0875 (at node 11)
	maximum = 0.1085 (at node 5)
Accepted flit rate average= 0.096625
	minimum = 0.0835 (at node 1)
	maximum = 0.1105 (at node 6)
Injected packet length average = 1
Accepted packet length average = 1
Total in-flight flits = 35 (0 measured)
latency change    = 0.00540742
throughput change = 0.00258732
Class 0:
Packet latency average = 21.0259
	minimum = 7
	maximum = 79
Network latency average = 21.0259
	minimum = 7
	maximum = 79
Slowest packet = 963266
Flit latency average = 21.0259
	minimum = 7
	maximum = 79
Slowest flit = 963266
Fragmentation average = 0
	minimum = 0
	maximum = 0
Injected packet rate average = 0.09825
	minimum = 0.084 (at node 6)
	maximum = 0.113 (at node 2)
Accepted packet rate average = 0.098875
	minimum = 0.085 (at node 6)
	maximum = 0.117 (at node 3)
Injected flit rate average = 0.09825
	minimum = 0.084 (at node 6)
	maximum = 0.113 (at node 2)
Accepted flit rate average= 0.098875
	minimum = 0.085 (at node 6)
	maximum = 0.117 (at node 3)
Injected packet length average = 1
Accepted packet length average = 1
Total in-flight flits = 25 (0 measured)
latency change    = 0.00993455
throughput change = 0.022756
Warmed up ...Time used is 3000 cycles
Class 0:
Packet latency average = 21.2468
	minimum = 7
	maximum = 72
Network latency average = 21.2468
	minimum = 7
	maximum = 72
Slowest packet = 964226
Flit latency average = 21.3485
	minimum = 7
	maximum = 72
Slowest flit = 964226
Fragmentation average = 0
	minimum = 0
	maximum = 0
Injected packet rate average = 0.101437
	minimum = 0.092 (at node 10)
	maximum = 0.117 (at node 5)
Accepted packet rate average = 0.100062
	minimum = 0.08 (at node 6)
	maximum = 0.124 (at node 7)
Injected flit rate average = 0.101437
	minimum = 0.092 (at node 10)
	maximum = 0.117 (at node 5)
Accepted flit rate average= 0.100062
	minimum = 0.08 (at node 6)
	maximum = 0.124 (at node 7)
Injected packet length average = 1
Accepted packet length average = 1
Total in-flight flits = 47 (47 measured)
latency change    = 0.0103974
throughput change = 0.0118676
Class 0:
Packet latency average = 21.1275
	minimum = 7
	maximum = 79
Network latency average = 21.1269
	minimum = 7
	maximum = 79
Slowest packet = 965671
Flit latency average = 21.178
	minimum = 7
	maximum = 79
Slowest flit = 965671
Fragmentation average = 0
	minimum = 0
	maximum = 0
Injected packet rate average = 0.1015
	minimum = 0.091 (at node 6)
	maximum = 0.1145 (at node 5)
Accepted packet rate average = 0.101281
	minimum = 0.0875 (at node 2)
	maximum = 0.1165 (at node 9)
Injected flit rate average = 0.1015
	minimum = 0.091 (at node 6)
	maximum = 0.1145 (at node 5)
Accepted flit rate average= 0.101281
	minimum = 0.0875 (at node 2)
	maximum = 0.1165 (at node 9)
Injected packet length average = 1
Accepted packet length average = 1
Total in-flight flits = 32 (32 measured)
latency change    = 0.00564856
throughput change = 0.0120333
Class 0:
Packet latency average = 21.1625
	minimum = 7
	maximum = 90
Network latency average = 21.1621
	minimum = 7
	maximum = 90
Slowest packet = 968233
Flit latency average = 21.1964
	minimum = 7
	maximum = 90
Slowest flit = 968233
Fragmentation average = 0
	minimum = 0
	maximum = 0
Injected packet rate average = 0.100312
	minimum = 0.0916667 (at node 6)
	maximum = 0.109667 (at node 15)
Accepted packet rate average = 0.100146
	minimum = 0.0863333 (at node 6)
	maximum = 0.116 (at node 9)
Injected flit rate average = 0.100312
	minimum = 0.0916667 (at node 6)
	maximum = 0.109667 (at node 15)
Accepted flit rate average= 0.100146
	minimum = 0.0863333 (at node 6)
	maximum = 0.116 (at node 9)
Injected packet length average = 1
Accepted packet length average = 1
Total in-flight flits = 33 (33 measured)
latency change    = 0.00165372
throughput change = 0.0113376
Draining all recorded packets ...
Draining remaining packets ...
Time taken is 6083 cycles
Class 0:
Packet latency average = 21.0738
	minimum = 7
	maximum = 80
Network latency average = 21.0738
	minimum = 7
	maximum = 80
Slowest packet = 970169
Flit latency average = 21.0738
	minimum = 7
	maximum = 80
Slowest flit = 970169
Fragmentation average = 0
	minimum = 0
	maximum = 0
Injected packet rate average = 0.09775
	minimum = 0.084 (at node 12)
	maximum = 0.12 (at node 11)
Accepted packet rate average = 0.09575
	minimum = 0.079 (at node 0)
	maximum = 0.112 (at node 1)
Injected flit rate average = 0.09775
	minimum = 0.084 (at node 12)
	maximum = 0.12 (at node 11)
Accepted flit rate average= 0.09575
	minimum = 0.079 (at node 0)
	maximum = 0.112 (at node 1)
Injected packet length average = 1
Accepted packet length average = 1
Total in-flight flits = 32 (0 measured)
latency change    = 1
throughput change = 1
Class 0:
Packet latency average = 21.1133
	minimum = 7
	maximum = 80
Network latency average = 21.113
	minimum = 7
	maximum = 80
Slowest packet = 970169
Flit latency average = 21.113
	minimum = 7
	maximum = 80
Slowest flit = 970169
Fragmentation average = 0
	minimum = 0
	maximum = 0
Injected packet rate average = 0.09775
	minimum = 0.0915 (at node 8)
	maximum = 0.11 (at node 0)
Accepted packet rate average = 0.0970938
	minimum = 0.0865 (at node 7)
	maximum = 0.1075 (at node 9)
Injected flit rate average = 0.09775
	minimum = 0.0915 (at node 8)
	maximum = 0.11 (at node 0)
Accepted flit rate average= 0.0970938
	minimum = 0.0865 (at node 7)
	maximum = 0.1075 (at node 9)
Injected packet length average = 1
Accepted packet length average = 1
Total in-flight flits = 21 (0 measured)
latency change    = 0.00187241
throughput change = 0.0138397
Class 0:
Packet latency average = 21.4412
	minimum = 7
	maximum = 68
Network latency average = 21.4394
	minimum = 7
	maximum = 68
Slowest packet = 972770
Flit latency average = 21.4394
	minimum = 7
	maximum = 68
Slowest flit = 972770
Fragmentation average = 0
	minimum = 0
	maximum = 0
Injected packet rate average = 0.104938
	minimum = 0.084 (at node 6)
	maximum = 0.125 (at node 2)
Accepted packet rate average = 0.103688
	minimum = 0.091 (at node 14)
	maximum = 0.122 (at node 9)
Injected flit rate average = 0.104938
	minimum = 0.084 (at node 6)
	maximum = 0.125 (at node 2)
Accepted flit rate average= 0.103688
	minimum = 0.091 (at node 14)
	maximum = 0.122 (at node 9)
Injected packet length average = 1
Accepted packet length average = 1
Total in-flight flits = 41 (0 measured)
latency change    = 0.0152947
throughput change = 0.0635925
Warmed up ...Time used is 3000 cycles
Class 0:
Packet latency average = 21.5656
	minimum = 7
	maximum = 92
Network latency average = 21.5656
	minimum = 7
	maximum = 92
Slowest packet = 974157
Flit latency average = 21.784
	minimum = 7
	maximum = 92
Slowest flit = 974157
Fragmentation average = 0
	minimum = 0
	maximum = 0
Injected packet rate average = 0.098375
	minimum = 0.086 (at node 11)
	maximum = 0.111 (at node 0)
Accepted packet rate average = 0.098375
	minimum = 0.083 (at node 13)
	maximum = 0.115 (at node 11)
Injected flit rate average = 0.098375
	minimum = 0.086 (at node 11)
	maximum = 0.111 (at node 0)
Accepted flit rate average= 0.098375
	minimum = 0.083 (at node 13)
	maximum = 0.115 (at node 11)
Injected packet length average = 1
Accepted packet length average = 1
Total in-flight flits = 41 (41 measured)
latency change    = 0.00576512
throughput change = 0.0540025
Class 0:
Packet latency average = 21.545
	minimum = 7
	maximum = 92
Network latency average = 21.545
	minimum = 7
	maximum = 92
Slowest packet = 974157
Flit latency average = 21.652
	minimum = 7
	maximum = 92
Slowest flit = 974157
Fragmentation average = 0
	minimum = 0
	maximum = 0
Injected packet rate average = 0.1005
	minimum = 0.0925 (at node 6)
	maximum = 0.109 (at node 0)
Accepted packet rate average = 0.100656
	minimum = 0.085 (at node 13)
	maximum = 0.112 (at node 2)
Injected flit rate average = 0.1005
	minimum = 0.0925 (at node 6)
	maximum = 0.109 (at node 0)
Accepted flit rate average= 0.100656
	minimum = 0.085 (at node 13)
	maximum = 0.112 (at node 2)
Injected packet length average = 1
Accepted packet length average = 1
Total in-flight flits = 36 (36 measured)
latency change    = 0.000955637
throughput change = 0.0226638
Class 0:
Packet latency average = 21.528
	minimum = 7
	maximum = 92
Network latency average = 21.528
	minimum = 7
	maximum = 92
Slowest packet = 974157
Flit latency average = 21.6001
	minimum = 7
	maximum = 92
Slowest flit = 974157
Fragmentation average = 0
	minimum = 0
	maximum = 0
Injected packet rate average = 0.100042
	minimum = 0.0933333 (at node 5)
	maximum = 0.108667 (at node 1)
Accepted packet rate average = 0.0997708
	minimum = 0.0913333 (at node 13)
	maximum = 0.110667 (at node 15)
Injected flit rate average = 0.100042
	minimum = 0.0933333 (at node 5)
	maximum = 0.108667 (at node 1)
Accepted flit rate average= 0.0997708
	minimum = 0.0913333 (at node 13)
	maximum = 0.110667 (at node 15)
Injected packet length average = 1
Accepted packet length average = 1
Total in-flight flits = 54 (54 measured)
latency change    = 0.00078766
throughput change = 0.0088745
Class 0:
Packet latency average = 21.4426
	minimum = 7
	maximum = 92
Network latency average = 21.4426
	minimum = 7
	maximum = 92
Slowest packet = 974157
Flit latency average = 21.4973
	minimum = 7
	maximum = 92
Slowest flit = 974157
Fragmentation average = 0
	minimum = 0
	maximum = 0
Injected packet rate average = 0.0995781
	minimum = 0.09275 (at node 15)
	maximum = 0.10725 (at node 4)
Accepted packet rate average = 0.0995937
	minimum = 0.0925 (at node 13)
	maximum = 0.1045 (at node 15)
Injected flit rate average = 0.0995781
	minimum = 0.09275 (at node 15)
	maximum = 0.10725 (at node 4)
Accepted flit rate average= 0.0995937
	minimum = 0.0925 (at node 13)
	maximum = 0.1045 (at node 15)
Injected packet length average = 1
Accepted packet length average = 1
Total in-flight flits = 40 (40 measured)
latency change    = 0.00398317
throughput change = 0.00177806
Draining all recorded packets ...
Draining remaining packets ...
Time taken is 7077 cycles
Class 0:
Packet latency average = 21.1781
	minimum = 7
	maximum = 83
Network latency average = 21.1781
	minimum = 7
	maximum = 83
Slowest packet = 980238
Flit latency average = 21.1781
	minimum = 7
	maximum = 83
Slowest flit = 980238
Fragmentation average = 0
	minimum = 0
	maximum = 0
Injected packet rate average = 0.101
	minimum = 0.088 (at node 7)
	maximum = 0.116 (at node 14)
Accepted packet rate average = 0.0989375
	minimum = 0.082 (at node 8)
	maximum = 0.118 (at node 5)
Injected flit rate average = 0.101
	minimum = 0.088 (at node 7)
	maximum = 0.116 (at node 14)
Accepted flit rate average= 0.0989375
	minimum = 0.082 (at node 8)
	maximum = 0.118 (at node 5)
Injected packet length average = 1
Accepted packet length average = 1
Total in-flight flits = 33 (0 measured)
latency change    = 1
throughput change = 1
Class 0:
Packet latency average = 21.2225
	minimum = 7
	maximum = 83
Network latency average = 21.2225
	minimum = 7
	maximum = 83
Slowest packet = 980238
Flit latency average = 21.2225
	minimum = 7
	maximum = 83
Slowest flit = 980238
Fragmentation average = 0
	minimum = 0
	maximum = 0
Injected packet rate average = 0.0995937
	minimum = 0.089 (at node 10)
	maximum = 0.1065 (at node 15)
Accepted packet rate average = 0.0985937
	minimum = 0.0905 (at node 2)
	maximum = 0.1075 (at node 7)
Injected flit rate average = 0.0995937
	minimum = 0.089 (at node 10)
	maximum = 0.1065 (at node 15)
Accepted flit rate average= 0.0985937
	minimum = 0.0905 (at node 2)
	maximum = 0.1075 (at node 7)
Injected packet length average = 1
Accepted packet length average = 1
Total in-flight flits = 32 (0 measured)
latency change    = 0.00209029
throughput change = 0.00348653
Class 0:
Packet latency average = 21.553
	minimum = 7
	maximum = 74
Network latency average = 21.5524
	minimum = 7
	maximum = 74
Slowest packet = 983280
Flit latency average = 21.5524
	minimum = 7
	maximum = 74
Slowest flit = 983280
Fragmentation average = 0
	minimum = 0
	maximum = 0
Injected packet rate average = 0.0968125
	minimum = 0.083 (at node 4)
	maximum = 0.13 (at node 9)
Accepted packet rate average = 0.0960625
	minimum = 0.082 (at node 9)
	maximum = 0.114 (at node 0)
Injected flit rate average = 0.0968125
	minimum = 0.083 (at node 4)
	maximum = 0.13 (at node 9)
Accepted flit rate average= 0.0960625
	minimum = 0.082 (at node 9)
	maximum = 0.114 (at node 0)
Injected packet length average = 1
Accepted packet length average = 1
Total in-flight flits = 44 (0 measured)
latency change    = 0.0153353
throughput change = 0.02635
Warmed up ...Time used is 3000 cycles
Class 0:
Packet latency average = 21.3602
	minimum = 7
	maximum = 86
Network latency average = 21.3596
	minimum = 7
	maximum = 86
Slowest packet = 985187
Flit latency average = 21.5051
	minimum = 7
	maximum = 86
Slowest flit = 985187
Fragmentation average = 0
	minimum = 0
	maximum = 0
Injected packet rate average = 0.097875
	minimum = 0.085 (at node 14)
	maximum = 0.115 (at node 7)
Accepted packet rate average = 0.098875
	minimum = 0.081 (at node 9)
	maximum = 0.123 (at node 11)
Injected flit rate average = 0.097875
	minimum = 0.085 (at node 14)
	maximum = 0.115 (at node 7)
Accepted flit rate average= 0.098875
	minimum = 0.081 (at node 9)
	maximum = 0.123 (at node 11)
Injected packet length average = 1
Accepted packet length average = 1
Total in-flight flits = 28 (28 measured)
latency change    = 0.00902694
throughput change = 0.028445
Class 0:
Packet latency average = 21.2626
	minimum = 7
	maximum = 86
Network latency average = 21.262
	minimum = 7
	maximum = 86
Slowest packet = 985187
Flit latency average = 21.336
	minimum = 7
	maximum = 86
Slowest flit = 985187
Fragmentation average = 0
	minimum = 0
	maximum = 0
Injected packet rate average = 0.0985313
	minimum = 0.089 (at node 9)
	maximum = 0.1085 (at node 8)
Accepted packet rate average = 0.0990625
	minimum = 0.0875 (at node 9)
	maximum = 0.1115 (at node 12)
Injected flit rate average = 0.0985313
	minimum = 0.089 (at node 9)
	maximum = 0.1085 (at node 8)
Accepted flit rate average= 0.0990625
	minimum = 0.0875 (at node 9)
	maximum = 0.1115 (at node 12)
Injected packet length average = 1
Accepted packet length average = 1
Total in-flight flits = 27 (27 measured)
latency change    = 0.0045889
throughput change = 0.00189274
Class 0:
Packet latency average = 21.2924
	minimum = 7
	maximum = 86
Network latency average = 21.292
	minimum = 7
	maximum = 86
Slowest packet = 985187
Flit latency average = 21.3416
	minimum = 7
	maximum = 86
Slowest flit = 985187
Fragmentation average = 0
	minimum = 0
	maximum = 0
Injected packet rate average = 0.097625
	minimum = 0.0883333 (at node 5)
	maximum = 0.104667 (at node 4)
Accepted packet rate average = 0.097875
	minimum = 0.0873333 (at node 9)
	maximum = 0.109 (at node 10)
Injected flit rate average = 0.097625
	minimum = 0.0883333 (at node 5)
	maximum = 0.104667 (at node 4)
Accepted flit rate average= 0.097875
	minimum = 0.0873333 (at node 9)
	maximum = 0.109 (at node 10)
Injected packet length average = 1
Accepted packet length average = 1
Total in-flight flits = 32 (32 measured)
latency change    = 0.00139959
throughput change = 0.0121328
Draining all recorded packets ...
Draining remaining packets ...
Time taken is 6077 cycles
====== Overall Traffic Statistics ======
====== Traffic class 0 ======
Packet latency average = 21.3932 (100 samples)
	minimum = 7 (100 samples)
	maximum = 87.94 (100 samples)
Network latency average = 21.3926 (100 samples)
	minimum = 7 (100 samples)
	maximum = 87.94 (100 samples)
Flit latency average = 21.4238 (100 samples)
	minimum = 7 (100 samples)
	maximum = 88.06 (100 samples)
Fragmentation average = 0 (100 samples)
	minimum = 0 (100 samples)
	maximum = 0 (100 samples)
Injected packet rate average = 0.0999471 (100 samples)
	minimum = 0.0905808 (100 samples)
	maximum = 0.10938 (100 samples)
Accepted packet rate average = 0.0999645 (100 samples)
	minimum = 0.0902117 (100 samples)
	maximum = 0.110353 (100 samples)
Injected flit rate average = 0.0999471 (100 samples)
	minimum = 0.0905808 (100 samples)
	maximum = 0.10938 (100 samples)
Accepted flit rate average = 0.0999645 (100 samples)
	minimum = 0.0902117 (100 samples)
	maximum = 0.110353 (100 samples)
Injected packet size average = 1 (100 samples)
Accepted packet size average = 1 (100 samples)
Hops average = 3.50159 (100 samples)
Total run time 10.86
