BEGIN Configuration File: /tmp/bs_1137237_873842.cfg
topology = mesh;
k = 4;
n = 2;
routing_function = gnn_ppo_route_4x4;
num_vcs = 4;
vc_buf_size = 4;
wait_for_tail_credit = 1;
vc_allocator = islip;
sw_allocator = islip;
alloc_iters = 1;
credit_delay = 2;
routing_delay = 1;
vc_alloc_delay = 1;
sw_alloc_delay = 1;
input_speedup = 2;
output_speedup = 1;
internal_speedup = 1.0;
traffic = transpose;
packet_size = 1;
sim_type = latency;
injection_rate = 0.02;
warmup_periods = 3;
sample_period = 1000;
sim_count = 100;
seed = 0;

END Configuration File: /tmp/bs_1137237_873842.cfg
Class 0:
Packet latency average = 20.2508
	minimum = 7
	maximum = 40
Network latency average = 20.2508
	minimum = 7
	maximum = 40
Slowest packet = 42
Flit latency average = 20.2508
	minimum = 7
	maximum = 40
Slowest flit = 42
Fragmentation average = 0
	minimum = 0
	maximum = 0
Injected packet rate average = 0.0203125
	minimum = 0.015 (at node 2)
	maximum = 0.029 (at node 12)
Accepted packet rate average = 0.0199375
	minimum = 0.013 (at node 8)
	maximum = 0.028 (at node 3)
Injected flit rate average = 0.0203125
	minimum = 0.015 (at node 2)
	maximum = 0.029 (at node 12)
Accepted flit rate average= 0.0199375
	minimum = 0.013 (at node 8)
	maximum = 0.028 (at node 3)
Injected packet length average = 1
Accepted packet length average = 1
Total in-flight flits = 6 (0 measured)
latency change    = 1
throughput change = 1
Class 0:
Packet latency average = 20.4687
	minimum = 7
	maximum = 40
Network latency average = 20.4687
	minimum = 7
	maximum = 40
Slowest packet = 42
Flit latency average = 20.4687
	minimum = 7
	maximum = 40
Slowest flit = 42
Fragmentation average = 0
	minimum = 0
	maximum = 0
Injected packet rate average = 0.0195938
	minimum = 0.015 (at node 5)
	maximum = 0.0255 (at node 3)
Accepted packet rate average = 0.0194687
	minimum = 0.015 (at node 5)
	maximum = 0.0255 (at node 12)
Injected flit rate average = 0.0195938
	minimum = 0.015 (at node 5)
	maximum = 0.0255 (at node 3)
Accepted flit rate average= 0.0194687
	minimum = 0.015 (at node 5)
	maximum = 0.0255 (at node 12)
Injected packet length average = 1
Accepted packet length average = 1
Total in-flight flits = 4 (0 measured)
latency change    = 0.0106463
throughput change = 0.024077
Class 0:
Packet latency average = 19.4394
	minimum = 7
	maximum = 40
Network latency average = 19.4394
	minimum = 7
	maximum = 40
Slowest packet = 816
Flit latency average = 19.4394
	minimum = 7
	maximum = 40
Slowest flit = 816
Fragmentation average = 0
	minimum = 0
	maximum = 0
Injected packet rate average = 0.0225
	minimum = 0.016 (at node 0)
	maximum = 0.031 (at node 11)
Accepted packet rate average = 0.0221875
	minimum = 0.015 (at node 13)
	maximum = 0.032 (at node 14)
Injected flit rate average = 0.0225
	minimum = 0.016 (at node 0)
	maximum = 0.031 (at node 11)
Accepted flit rate average= 0.0221875
	minimum = 0.015 (at node 13)
	maximum = 0.032 (at node 14)
Injected packet length average = 1
Accepted packet length average = 1
Total in-flight flits = 9 (0 measured)
latency change    = 0.0529472
throughput change = 0.122535
Warmed up ...Time used is 3000 cycles
Class 0:
Packet latency average = 18.9836
	minimum = 7
	maximum = 38
Network latency average = 18.9836
	minimum = 7
	maximum = 38
Slowest packet = 1155
Flit latency average = 19.1821
	minimum = 7
	maximum = 38
Slowest flit = 1155
Fragmentation average = 0
	minimum = 0
	maximum = 0
Injected packet rate average = 0.019375
	minimum = 0.011 (at node 1)
	maximum = 0.029 (at node 10)
Accepted packet rate average = 0.0195625
	minimum = 0.01 (at node 11)
	maximum = 0.027 (at node 10)
Injected flit rate average = 0.019375
	minimum = 0.011 (at node 1)
	maximum = 0.029 (at node 10)
Accepted flit rate average= 0.0195625
	minimum = 0.01 (at node 11)
	maximum = 0.027 (at node 10)
Injected packet length average = 1
Accepted packet length average = 1
Total in-flight flits = 6 (6 measured)
latency change    = 0.0240147
throughput change = 0.134185
Class 0:
Packet latency average = 18.801
	minimum = 7
	maximum = 38
Network latency average = 18.801
	minimum = 7
	maximum = 38
Slowest packet = 1155
Flit latency average = 18.9027
	minimum = 7
	maximum = 38
Slowest flit = 1155
Fragmentation average = 0
	minimum = 0
	maximum = 0
Injected packet rate average = 0.0194062
	minimum = 0.014 (at node 14)
	maximum = 0.026 (at node 10)
Accepted packet rate average = 0.0195938
	minimum = 0.014 (at node 11)
	maximum = 0.026 (at node 10)
Injected flit rate average = 0.0194062
	minimum = 0.014 (at node 14)
	maximum = 0.026 (at node 10)
Accepted flit rate average= 0.0195938
	minimum = 0.014 (at node 11)
	maximum = 0.026 (at node 10)
Injected packet length average = 1
Accepted packet length average = 1
Total in-flight flits = 3 (3 measured)
latency change    = 0.00971129
throughput change = 0.0015949
Class 0:
Packet latency average = 18.9417
	minimum = 7
	maximum = 38
Network latency average = 18.9417
	minimum = 7
	maximum = 38
Slowest packet = 1155
Flit latency average = 19.0086
	minimum = 7
	maximum = 38
Slowest flit = 1155
Fragmentation average = 0
	minimum = 0
	maximum = 0
Injected packet rate average = 0.0194375
	minimum = 0.0143333 (at node 14)
	maximum = 0.0263333 (at node 15)
Accepted packet rate average = 0.0194792
	minimum = 0.014 (at node 11)
	maximum = 0.0263333 (at node 15)
Injected flit rate average = 0.0194375
	minimum = 0.0143333 (at node 14)
	maximum = 0.0263333 (at node 15)
Accepted flit rate average= 0.0194792
	minimum = 0.014 (at node 11)
	maximum = 0.0263333 (at node 15)
Injected packet length average = 1
Accepted packet length average = 1
Total in-flight flits = 7 (7 measured)
latency change    = 0.00742879
throughput change = 0.00588235
Class 0:
Packet latency average = 19.1324
	minimum = 7
	maximum = 40
Network latency average = 19.1324
	minimum = 7
	maximum = 40
Slowest packet = 2104
Flit latency average = 19.1809
	minimum = 7
	maximum = 40
Slowest flit = 2104
Fragmentation average = 0
	minimum = 0
	maximum = 0
Injected packet rate average = 0.0195312
	minimum = 0.0155 (at node 14)
	maximum = 0.0245 (at node 15)
Accepted packet rate average = 0.0196094
	minimum = 0.0155 (at node 11)
	maximum = 0.0245 (at node 15)
Injected flit rate average = 0.0195312
	minimum = 0.0155 (at node 14)
	maximum = 0.0245 (at node 15)
Accepted flit rate average= 0.0196094
	minimum = 0.0155 (at node 11)
	maximum = 0.0245 (at node 15)
Injected packet length average = 1
Accepted packet length average = 1
Total in-flight flits = 4 (4 measured)
latency change    = 0.00996942
throughput change = 0.00664011
Draining all recorded packets ...
Draining remaining packets ...
Time taken is 7066 cycles
Class 0:
Packet latency average = 19.9108
	minimum = 7
	maximum = 39
Network latency average = 19.9108
	minimum = 7
	maximum = 39
Slowest packet = 2503
Flit latency average = 19.9108
	minimum = 7
	maximum = 39
Slowest flit = 2503
Fragmentation average = 0
	minimum = 0
	maximum = 0
Injected packet rate average = 0.0208125
	minimum = 0.015 (at node 9)
	maximum = 0.03 (at node 1)
Accepted packet rate average = 0.0203125
	minimum = 0.015 (at node 6)
	maximum = 0.029 (at node 4)
Injected flit rate average = 0.0208125
	minimum = 0.015 (at node 9)
	maximum = 0.03 (at node 1)
Accepted flit rate average= 0.0203125
	minimum = 0.015 (at node 6)
	maximum = 0.029 (at node 4)
Injected packet length average = 1
Accepted packet length average = 1
Total in-flight flits = 8 (0 measured)
latency change    = 1
throughput change = 1
Class 0:
Packet latency average = 19.6773
	minimum = 7
	maximum = 41
Network latency average = 19.6773
	minimum = 7
	maximum = 41
Slowest packet = 2678
Flit latency average = 19.6773
	minimum = 7
	maximum = 41
Slowest flit = 2678
Fragmentation average = 0
	minimum = 0
	maximum = 0
Injected packet rate average = 0.0208438
	minimum = 0.016 (at node 15)
	maximum = 0.03 (at node 1)
Accepted packet rate average = 0.020625
	minimum = 0.016 (at node 2)
	maximum = 0.03 (at node 4)
Injected flit rate average = 0.0208438
	minimum = 0.016 (at node 15)
	maximum = 0.03 (at node 1)
Accepted flit rate average= 0.020625
	minimum = 0.016 (at node 2)
	maximum = 0.03 (at node 4)
Injected packet length average = 1
Accepted packet length average = 1
Total in-flight flits = 7 (0 measured)
latency change    = 0.0118663
throughput change = 0.0151515
Class 0:
Packet latency average = 19.5894
	minimum = 7
	maximum = 37
Network latency average = 19.5894
	minimum = 7
	maximum = 37
Slowest packet = 2905
Flit latency average = 19.5894
	minimum = 7
	maximum = 37
Slowest flit = 2905
Fragmentation average = 0
	minimum = 0
	maximum = 0
Injected packet rate average = 0.0188125
	minimum = 0.012 (at node 4)
	maximum = 0.028 (at node 10)
Accepted packet rate average = 0.018875
	minimum = 0.012 (at node 1)
	maximum = 0.028 (at node 10)
Injected flit rate average = 0.0188125
	minimum = 0.012 (at node 4)
	maximum = 0.028 (at node 10)
Accepted flit rate average= 0.018875
	minimum = 0.012 (at node 1)
	maximum = 0.028 (at node 10)
Injected packet length average = 1
Accepted packet length average = 1
Total in-flight flits = 6 (0 measured)
latency change    = 0.00448552
throughput change = 0.0927152
Warmed up ...Time used is 3000 cycles
Class 0:
Packet latency average = 19.4199
	minimum = 7
	maximum = 38
Network latency average = 19.4199
	minimum = 7
	maximum = 38
Slowest packet = 3248
Flit latency average = 19.5629
	minimum = 7
	maximum = 38
Slowest flit = 3248
Fragmentation average = 0
	minimum = 0
	maximum = 0
Injected packet rate average = 0.0196875
	minimum = 0.012 (at node 2)
	maximum = 0.03 (at node 11)
Accepted packet rate average = 0.019875
	minimum = 0.012 (at node 10)
	maximum = 0.03 (at node 14)
Injected flit rate average = 0.0196875
	minimum = 0.012 (at node 2)
	maximum = 0.03 (at node 11)
Accepted flit rate average= 0.019875
	minimum = 0.012 (at node 10)
	maximum = 0.03 (at node 14)
Injected packet length average = 1
Accepted packet length average = 1
Total in-flight flits = 3 (3 measured)
latency change    = 0.00872983
throughput change = 0.0503145
Class 0:
Packet latency average = 19.4688
	minimum = 7
	maximum = 38
Network latency average = 19.4688
	minimum = 7
	maximum = 38
Slowest packet = 3248
Flit latency average = 19.5387
	minimum = 7
	maximum = 38
Slowest flit = 3248
Fragmentation average = 0
	minimum = 0
	maximum = 0
Injected packet rate average = 0.0202813
	minimum = 0.015 (at node 14)
	maximum = 0.0285 (at node 12)
Accepted packet rate average = 0.0201875
	minimum = 0.015 (at node 11)
	maximum = 0.028 (at node 3)
Injected flit rate average = 0.0202813
	minimum = 0.015 (at node 14)
	maximum = 0.0285 (at node 12)
Accepted flit rate average= 0.0201875
	minimum = 0.015 (at node 11)
	maximum = 0.028 (at node 3)
Injected packet length average = 1
Accepted packet length average = 1
Total in-flight flits = 9 (9 measured)
latency change    = 0.0025106
throughput change = 0.0154799
Class 0:
Packet latency average = 19.4757
	minimum = 7
	maximum = 39
Network latency average = 19.4757
	minimum = 7
	maximum = 39
Slowest packet = 3948
Flit latency average = 19.5221
	minimum = 7
	maximum = 39
Slowest flit = 3948
Fragmentation average = 0
	minimum = 0
	maximum = 0
Injected packet rate average = 0.0203542
	minimum = 0.0146667 (at node 14)
	maximum = 0.0253333 (at node 11)
Accepted packet rate average = 0.0203125
	minimum = 0.0146667 (at node 11)
	maximum = 0.025 (at node 14)
Injected flit rate average = 0.0203542
	minimum = 0.0146667 (at node 14)
	maximum = 0.0253333 (at node 11)
Accepted flit rate average= 0.0203125
	minimum = 0.0146667 (at node 11)
	maximum = 0.025 (at node 14)
Injected packet length average = 1
Accepted packet length average = 1
Total in-flight flits = 8 (8 measured)
latency change    = 0.000359329
throughput change = 0.00615385
Class 0:
Packet latency average = 19.3675
	minimum = 7
	maximum = 39
Network latency average = 19.3675
	minimum = 7
	maximum = 39
Slowest packet = 3948
Flit latency average = 19.4024
	minimum = 7
	maximum = 39
Slowest flit = 3948
Fragmentation average = 0
	minimum = 0
	maximum = 0
Injected packet rate average = 0.0204844
	minimum = 0.01525 (at node 3)
	maximum = 0.02425 (at node 6)
Accepted packet rate average = 0.0205
	minimum = 0.01525 (at node 12)
	maximum = 0.0245 (at node 3)
Injected flit rate average = 0.0204844
	minimum = 0.01525 (at node 3)
	maximum = 0.02425 (at node 6)
Accepted flit rate average= 0.0205
	minimum = 0.01525 (at node 12)
	maximum = 0.0245 (at node 3)
Injected packet length average = 1
Accepted packet length average = 1
Total in-flight flits = 5 (5 measured)
latency change    = 0.00558738
throughput change = 0.00914634
Draining all recorded packets ...
Draining remaining packets ...
Time taken is 7043 cycles
Class 0:
Packet latency average = 19.2895
	minimum = 7
	maximum = 38
Network latency average = 19.2895
	minimum = 7
	maximum = 38
Slowest packet = 4549
Flit latency average = 19.2895
	minimum = 7
	maximum = 38
Slowest flit = 4549
Fragmentation average = 0
	minimum = 0
	maximum = 0
Injected packet rate average = 0.019375
	minimum = 0.015 (at node 0)
	maximum = 0.026 (at node 11)
Accepted packet rate average = 0.019
	minimum = 0.015 (at node 0)
	maximum = 0.026 (at node 14)
Injected flit rate average = 0.019375
	minimum = 0.015 (at node 0)
	maximum = 0.026 (at node 11)
Accepted flit rate average= 0.019
	minimum = 0.015 (at node 0)
	maximum = 0.026 (at node 14)
Injected packet length average = 1
Accepted packet length average = 1
Total in-flight flits = 6 (0 measured)
latency change    = 1
throughput change = 1
Class 0:
Packet latency average = 19.3494
	minimum = 7
	maximum = 39
Network latency average = 19.3494
	minimum = 7
	maximum = 39
Slowest packet = 5130
Flit latency average = 19.3494
	minimum = 7
	maximum = 39
Slowest flit = 5130
Fragmentation average = 0
	minimum = 0
	maximum = 0
Injected packet rate average = 0.0196563
	minimum = 0.013 (at node 0)
	maximum = 0.025 (at node 15)
Accepted packet rate average = 0.0194062
	minimum = 0.013 (at node 0)
	maximum = 0.025 (at node 15)
Injected flit rate average = 0.0196563
	minimum = 0.013 (at node 0)
	maximum = 0.025 (at node 15)
Accepted flit rate average= 0.0194062
	minimum = 0.013 (at node 0)
	maximum = 0.025 (at node 15)
Injected packet length average = 1
Accepted packet length average = 1
Total in-flight flits = 8 (0 measured)
latency change    = 0.00309894
throughput change = 0.020934
Class 0:
Packet latency average = 19.3153
	minimum = 7
	maximum = 38
Network latency average = 19.3153
	minimum = 7
	maximum = 38
Slowest packet = 5385
Flit latency average = 19.3153
	minimum = 7
	maximum = 38
Slowest flit = 5385
Fragmentation average = 0
	minimum = 0
	maximum = 0
Injected packet rate average = 0.018625
	minimum = 0.014 (at node 2)
	maximum = 0.024 (at node 5)
Accepted packet rate average = 0.0184375
	minimum = 0.014 (at node 7)
	maximum = 0.024 (at node 5)
Injected flit rate average = 0.018625
	minimum = 0.014 (at node 2)
	maximum = 0.024 (at node 5)
Accepted flit rate average= 0.0184375
	minimum = 0.014 (at node 7)
	maximum = 0.024 (at node 5)
Injected packet length average = 1
Accepted packet length average = 1
Total in-flight flits = 11 (0 measured)
latency change    = 0.0017697
throughput change = 0.0525424
Warmed up ...Time used is 3000 cycles
Class 0:
Packet latency average = 19.7582
	minimum = 7
	maximum = 38
Network latency average = 19.7582
	minimum = 7
	maximum = 38
Slowest packet = 5477
Flit latency average = 19.9683
	minimum = 7
	maximum = 38
Slowest flit = 5477
Fragmentation average = 0
	minimum = 0
	maximum = 0
Injected packet rate average = 0.01725
	minimum = 0.014 (at node 1)
	maximum = 0.025 (at node 11)
Accepted packet rate average = 0.01775
	minimum = 0.014 (at node 4)
	maximum = 0.025 (at node 14)
Injected flit rate average = 0.01725
	minimum = 0.014 (at node 1)
	maximum = 0.025 (at node 11)
Accepted flit rate average= 0.01775
	minimum = 0.014 (at node 4)
	maximum = 0.025 (at node 14)
Injected packet length average = 1
Accepted packet length average = 1
Total in-flight flits = 3 (3 measured)
latency change    = 0.0224204
throughput change = 0.0387324
Class 0:
Packet latency average = 19.4307
	minimum = 7
	maximum = 38
Network latency average = 19.4307
	minimum = 7
	maximum = 38
Slowest packet = 5477
Flit latency average = 19.5344
	minimum = 7
	maximum = 38
Slowest flit = 5477
Fragmentation average = 0
	minimum = 0
	maximum = 0
Injected packet rate average = 0.0187812
	minimum = 0.013 (at node 3)
	maximum = 0.0255 (at node 11)
Accepted packet rate average = 0.0190625
	minimum = 0.014 (at node 4)
	maximum = 0.025 (at node 14)
Injected flit rate average = 0.0187812
	minimum = 0.013 (at node 3)
	maximum = 0.0255 (at node 11)
Accepted flit rate average= 0.0190625
	minimum = 0.014 (at node 4)
	maximum = 0.025 (at node 14)
Injected packet length average = 1
Accepted packet length average = 1
Total in-flight flits = 2 (2 measured)
latency change    = 0.016856
throughput change = 0.0688525
Class 0:
Packet latency average = 19.9677
	minimum = 7
	maximum = 39
Network latency average = 19.9677
	minimum = 7
	maximum = 39
Slowest packet = 6236
Flit latency average = 20.0287
	minimum = 7
	maximum = 39
Slowest flit = 6236
Fragmentation average = 0
	minimum = 0
	maximum = 0
Injected packet rate average = 0.0195
	minimum = 0.0153333 (at node 15)
	maximum = 0.026 (at node 11)
Accepted packet rate average = 0.0195833
	minimum = 0.0156667 (at node 15)
	maximum = 0.026 (at node 14)
Injected flit rate average = 0.0195
	minimum = 0.0153333 (at node 15)
	maximum = 0.026 (at node 11)
Accepted flit rate average= 0.0195833
	minimum = 0.0156667 (at node 15)
	maximum = 0.026 (at node 14)
Injected packet length average = 1
Accepted packet length average = 1
Total in-flight flits = 7 (7 measured)
latency change    = 0.0268929
throughput change = 0.0265957
Class 0:
Packet latency average = 19.9487
	minimum = 7
	maximum = 39
Network latency average = 19.9487
	minimum = 7
	maximum = 39
Slowest packet = 6236
Flit latency average = 19.9944
	minimum = 7
	maximum = 39
Slowest flit = 6236
Fragmentation average = 0
	minimum = 0
	maximum = 0
Injected packet rate average = 0.0196094
	minimum = 0.01625 (at node 5)
	maximum = 0.025 (at node 11)
Accepted packet rate average = 0.0196719
	minimum = 0.0165 (at node 5)
	maximum = 0.025 (at node 14)
Injected flit rate average = 0.0196094
	minimum = 0.01625 (at node 5)
	maximum = 0.025 (at node 11)
Accepted flit rate average= 0.0196719
	minimum = 0.0165 (at node 5)
	maximum = 0.025 (at node 14)
Injected packet length average = 1
Accepted packet length average = 1
Total in-flight flits = 7 (7 measured)
latency change    = 0.000951904
throughput change = 0.00450093
Class 0:
Packet latency average = 19.81
	minimum = 7
	maximum = 39
Network latency average = 19.81
	minimum = 7
	maximum = 39
Slowest packet = 6236
Flit latency average = 19.847
	minimum = 7
	maximum = 39
Slowest flit = 6236
Fragmentation average = 0
	minimum = 0
	maximum = 0
Injected packet rate average = 0.0198625
	minimum = 0.0174 (at node 14)
	maximum = 0.0236 (at node 11)
Accepted packet rate average = 0.0199375
	minimum = 0.0172 (at node 11)
	maximum = 0.0236 (at node 14)
Injected flit rate average = 0.0198625
	minimum = 0.0174 (at node 14)
	maximum = 0.0236 (at node 11)
Accepted flit rate average= 0.0199375
	minimum = 0.0172 (at node 11)
	maximum = 0.0236 (at node 14)
Injected packet length average = 1
Accepted packet length average = 1
Total in-flight flits = 5 (5 measured)
latency change    = 0.0070037
throughput change = 0.0133229
Draining all recorded packets ...
Draining remaining packets ...
Time taken is 8064 cycles
Class 0:
Packet latency average = 18.7449
	minimum = 7
	maximum = 37
Network latency average = 18.7449
	minimum = 7
	maximum = 37
Slowest packet = 7064
Flit latency average = 18.7449
	minimum = 7
	maximum = 37
Slowest flit = 7064
Fragmentation average = 0
	minimum = 0
	maximum = 0
Injected packet rate average = 0.01875
	minimum = 0.014 (at node 2)
	maximum = 0.025 (at node 0)
Accepted packet rate average = 0.018375
	minimum = 0.013 (at node 8)
	maximum = 0.025 (at node 0)
Injected flit rate average = 0.01875
	minimum = 0.014 (at node 2)
	maximum = 0.025 (at node 0)
Accepted flit rate average= 0.018375
	minimum = 0.013 (at node 8)
	maximum = 0.025 (at node 0)
Injected packet length average = 1
Accepted packet length average = 1
Total in-flight flits = 6 (0 measured)
latency change    = 1
throughput change = 1
Class 0:
Packet latency average = 19.1019
	minimum = 7
	maximum = 38
Network latency average = 19.1019
	minimum = 7
	maximum = 38
Slowest packet = 7366
Flit latency average = 19.1019
	minimum = 7
	maximum = 38
Slowest flit = 7366
Fragmentation average = 0
	minimum = 0
	maximum = 0
Injected packet rate average = 0.0182812
	minimum = 0.0135 (at node 1)
	maximum = 0.025 (at node 11)
Accepted packet rate average = 0.0180937
	minimum = 0.0135 (at node 4)
	maximum = 0.025 (at node 14)
Injected flit rate average = 0.0182812
	minimum = 0.0135 (at node 1)
	maximum = 0.025 (at node 11)
Accepted flit rate average= 0.0180937
	minimum = 0.0135 (at node 4)
	maximum = 0.025 (at node 14)
Injected packet length average = 1
Accepted packet length average = 1
Total in-flight flits = 6 (0 measured)
latency change    = 0.0186893
throughput change = 0.015544
Class 0:
Packet latency average = 19.9692
	minimum = 7
	maximum = 38
Network latency average = 19.9692
	minimum = 7
	maximum = 38
Slowest packet = 7697
Flit latency average = 19.9692
	minimum = 7
	maximum = 38
Slowest flit = 7697
Fragmentation average = 0
	minimum = 0
	maximum = 0
Injected packet rate average = 0.0204375
	minimum = 0.015 (at node 3)
	maximum = 0.027 (at node 7)
Accepted packet rate average = 0.0203125
	minimum = 0.014 (at node 12)
	maximum = 0.027 (at node 13)
Injected flit rate average = 0.0204375
	minimum = 0.015 (at node 3)
	maximum = 0.027 (at node 7)
Accepted flit rate average= 0.0203125
	minimum = 0.014 (at node 12)
	maximum = 0.027 (at node 13)
Injected packet length average = 1
Accepted packet length average = 1
Total in-flight flits = 8 (0 measured)
latency change    = 0.0434334
throughput change = 0.109231
Warmed up ...Time used is 3000 cycles
Class 0:
Packet latency average = 19.86
	minimum = 7
	maximum = 38
Network latency average = 19.86
	minimum = 7
	maximum = 38
Slowest packet = 8070
Flit latency average = 20.0779
	minimum = 7
	maximum = 38
Slowest flit = 8070
Fragmentation average = 0
	minimum = 0
	maximum = 0
Injected packet rate average = 0.019125
	minimum = 0.009 (at node 2)
	maximum = 0.031 (at node 3)
Accepted packet rate average = 0.01925
	minimum = 0.009 (at node 8)
	maximum = 0.031 (at node 12)
Injected flit rate average = 0.019125
	minimum = 0.009 (at node 2)
	maximum = 0.031 (at node 3)
Accepted flit rate average= 0.01925
	minimum = 0.009 (at node 8)
	maximum = 0.031 (at node 12)
Injected packet length average = 1
Accepted packet length average = 1
Total in-flight flits = 6 (6 measured)
latency change    = 0.00550004
throughput change = 0.0551948
Class 0:
Packet latency average = 19.7801
	minimum = 7
	maximum = 38
Network latency average = 19.7801
	minimum = 7
	maximum = 38
Slowest packet = 8070
Flit latency average = 19.8949
	minimum = 7
	maximum = 38
Slowest flit = 8070
Fragmentation average = 0
	minimum = 0
	maximum = 0
Injected packet rate average = 0.0184375
	minimum = 0.0135 (at node 12)
	maximum = 0.0265 (at node 3)
Accepted packet rate average = 0.0184375
	minimum = 0.0145 (at node 3)
	maximum = 0.0265 (at node 12)
Injected flit rate average = 0.0184375
	minimum = 0.0135 (at node 12)
	maximum = 0.0265 (at node 3)
Accepted flit rate average= 0.0184375
	minimum = 0.0145 (at node 3)
	maximum = 0.0265 (at node 12)
Injected packet length average = 1
Accepted packet length average = 1
Total in-flight flits = 8 (8 measured)
latency change    = 0.004041
throughput change = 0.0440678
Class 0:
Packet latency average = 19.794
	minimum = 7
	maximum = 38
Network latency average = 19.794
	minimum = 7
	maximum = 38
Slowest packet = 8070
Flit latency average = 19.866
	minimum = 7
	maximum = 38
Slowest flit = 8070
Fragmentation average = 0
	minimum = 0
	maximum = 0
Injected packet rate average = 0.0195625
	minimum = 0.016 (at node 15)
	maximum = 0.0253333 (at node 3)
Accepted packet rate average = 0.0195833
	minimum = 0.016 (at node 8)
	maximum = 0.0256667 (at node 12)
Injected flit rate average = 0.0195625
	minimum = 0.016 (at node 15)
	maximum = 0.0253333 (at node 3)
Accepted flit rate average= 0.0195833
	minimum = 0.016 (at node 8)
	maximum = 0.0256667 (at node 12)
Injected packet length average = 1
Accepted packet length average = 1
Total in-flight flits = 7 (7 measured)
latency change    = 0.00070338
throughput change = 0.0585106
Class 0:
Packet latency average = 19.5408
	minimum = 7
	maximum = 38
Network latency average = 19.5408
	minimum = 7
	maximum = 38
Slowest packet = 8070
Flit latency average = 19.5956
	minimum = 7
	maximum = 38
Slowest flit = 8070
Fragmentation average = 0
	minimum = 0
	maximum = 0
Injected packet rate average = 0.0197969
	minimum = 0.015 (at node 2)
	maximum = 0.02525 (at node 10)
Accepted packet rate average = 0.0198594
	minimum = 0.01475 (at node 8)
	maximum = 0.02525 (at node 10)
Injected flit rate average = 0.0197969
	minimum = 0.015 (at node 2)
	maximum = 0.02525 (at node 10)
Accepted flit rate average= 0.0198594
	minimum = 0.01475 (at node 8)
	maximum = 0.02525 (at node 10)
Injected packet length average = 1
Accepted packet length average = 1
Total in-flight flits = 4 (4 measured)
latency change    = 0.0129583
throughput change = 0.0138998
Class 0:
Packet latency average = 19.6111
	minimum = 7
	maximum = 38
Network latency average = 19.6111
	minimum = 7
	maximum = 38
Slowest packet = 8070
Flit latency average = 19.6548
	minimum = 7
	maximum = 38
Slowest flit = 8070
Fragmentation average = 0
	minimum = 0
	maximum = 0
Injected packet rate average = 0.0197125
	minimum = 0.0156 (at node 2)
	maximum = 0.024 (at node 10)
Accepted packet rate average = 0.0197375
	minimum = 0.0156 (at node 8)
	maximum = 0.024 (at node 10)
Injected flit rate average = 0.0197125
	minimum = 0.0156 (at node 2)
	maximum = 0.024 (at node 10)
Accepted flit rate average= 0.0197375
	minimum = 0.0156 (at node 8)
	maximum = 0.024 (at node 10)
Injected packet length average = 1
Accepted packet length average = 1
Total in-flight flits = 6 (6 measured)
latency change    = 0.0035847
throughput change = 0.00617479
Class 0:
Packet latency average = 19.4548
	minimum = 7
	maximum = 38
Network latency average = 19.4548
	minimum = 7
	maximum = 38
Slowest packet = 8070
Flit latency average = 19.4918
	minimum = 7
	maximum = 38
Slowest flit = 8070
Fragmentation average = 0
	minimum = 0
	maximum = 0
Injected packet rate average = 0.0198021
	minimum = 0.0165 (at node 9)
	maximum = 0.0235 (at node 10)
Accepted packet rate average = 0.0198021
	minimum = 0.0165 (at node 6)
	maximum = 0.0233333 (at node 10)
Injected flit rate average = 0.0198021
	minimum = 0.0165 (at node 9)
	maximum = 0.0235 (at node 10)
Accepted flit rate average= 0.0198021
	minimum = 0.0165 (at node 6)
	maximum = 0.0233333 (at node 10)
Injected packet length average = 1
Accepted packet length average = 1
Total in-flight flits = 8 (8 measured)
latency change    = 0.00803102
throughput change = 0.00326144
Draining all recorded packets ...
Draining remaining packets ...
Time taken is 9052 cycles
Class 0:
Packet latency average = 19.4256
	minimum = 7
	maximum = 38
Network latency average = 19.4256
	minimum = 7
	maximum = 38
Slowest packet = 10015
Flit latency average = 19.4256
	minimum = 7
	maximum = 38
Slowest flit = 10015
Fragmentation average = 0
	minimum = 0
	maximum = 0
Injected packet rate average = 0.021625
	minimum = 0.015 (at node 11)
	maximum = 0.029 (at node 6)
Accepted packet rate average = 0.021
	minimum = 0.015 (at node 14)
	maximum = 0.027 (at node 9)
Injected flit rate average = 0.021625
	minimum = 0.015 (at node 11)
	maximum = 0.029 (at node 6)
Accepted flit rate average= 0.021
	minimum = 0.015 (at node 14)
	maximum = 0.027 (at node 9)
Injected packet length average = 1
Accepted packet length average = 1
Total in-flight flits = 10 (0 measured)
latency change    = 1
throughput change = 1
Class 0:
Packet latency average = 19.4551
	minimum = 7
	maximum = 39
Network latency average = 19.4551
	minimum = 7
	maximum = 39
Slowest packet = 10246
Flit latency average = 19.4551
	minimum = 7
	maximum = 39
Slowest flit = 10246
Fragmentation average = 0
	minimum = 0
	maximum = 0
Injected packet rate average = 0.0202188
	minimum = 0.017 (at node 4)
	maximum = 0.0245 (at node 13)
Accepted packet rate average = 0.0198438
	minimum = 0.017 (at node 1)
	maximum = 0.0235 (at node 10)
Injected flit rate average = 0.0202188
	minimum = 0.017 (at node 4)
	maximum = 0.0245 (at node 13)
Accepted flit rate average= 0.0198438
	minimum = 0.017 (at node 1)
	maximum = 0.0235 (at node 10)
Injected packet length average = 1
Accepted packet length average = 1
Total in-flight flits = 12 (0 measured)
latency change    = 0.00151749
throughput change = 0.0582677
Class 0:
Packet latency average = 20.24
	minimum = 7
	maximum = 38
Network latency average = 20.24
	minimum = 7
	maximum = 38
Slowest packet = 10641
Flit latency average = 20.24
	minimum = 7
	maximum = 38
Slowest flit = 10641
Fragmentation average = 0
	minimum = 0
	maximum = 0
Injected packet rate average = 0.0198125
	minimum = 0.013 (at node 4)
	maximum = 0.025 (at node 12)
Accepted packet rate average = 0.0203125
	minimum = 0.013 (at node 1)
	maximum = 0.025 (at node 3)
Injected flit rate average = 0.0198125
	minimum = 0.013 (at node 4)
	maximum = 0.025 (at node 12)
Accepted flit rate average= 0.0203125
	minimum = 0.013 (at node 1)
	maximum = 0.025 (at node 3)
Injected packet length average = 1
Accepted packet length average = 1
Total in-flight flits = 4 (0 measured)
latency change    = 0.0387787
throughput change = 0.0230769
Warmed up ...Time used is 3000 cycles
Class 0:
Packet latency average = 19.718
	minimum = 7
	maximum = 40
Network latency average = 19.718
	minimum = 7
	maximum = 40
Slowest packet = 10909
Flit latency average = 19.8447
	minimum = 7
	maximum = 40
Slowest flit = 10909
Fragmentation average = 0
	minimum = 0
	maximum = 0
Injected packet rate average = 0.0195625
	minimum = 0.012 (at node 0)
	maximum = 0.031 (at node 12)
Accepted packet rate average = 0.0193125
	minimum = 0.012 (at node 0)
	maximum = 0.029 (at node 3)
Injected flit rate average = 0.0195625
	minimum = 0.012 (at node 0)
	maximum = 0.031 (at node 12)
Accepted flit rate average= 0.0193125
	minimum = 0.012 (at node 0)
	maximum = 0.029 (at node 3)
Injected packet length average = 1
Accepted packet length average = 1
Total in-flight flits = 8 (8 measured)
latency change    = 0.0264716
throughput change = 0.0517799
Class 0:
Packet latency average = 19.7337
	minimum = 7
	maximum = 40
Network latency average = 19.7337
	minimum = 7
	maximum = 40
Slowest packet = 10909
Flit latency average = 19.7956
	minimum = 7
	maximum = 40
Slowest flit = 10909
Fragmentation average = 0
	minimum = 0
	maximum = 0
Injected packet rate average = 0.0198125
	minimum = 0.012 (at node 0)
	maximum = 0.025 (at node 12)
Accepted packet rate average = 0.0197188
	minimum = 0.012 (at node 0)
	maximum = 0.0255 (at node 3)
Injected flit rate average = 0.0198125
	minimum = 0.012 (at node 0)
	maximum = 0.025 (at node 12)
Accepted flit rate average= 0.0197188
	minimum = 0.012 (at node 0)
	maximum = 0.0255 (at node 3)
Injected packet length average = 1
Accepted packet length average = 1
Total in-flight flits = 7 (7 measured)
latency change    = 0.000791517
throughput change = 0.0206022
Class 0:
Packet latency average = 19.8467
	minimum = 7
	maximum = 40
Network latency average = 19.8467
	minimum = 7
	maximum = 40
Slowest packet = 10909
Flit latency average = 19.8874
	minimum = 7
	maximum = 40
Slowest flit = 10909
Fragmentation average = 0
	minimum = 0
	maximum = 0
Injected packet rate average = 0.0199167
	minimum = 0.0146667 (at node 0)
	maximum = 0.0246667 (at node 13)
Accepted packet rate average = 0.0197917
	minimum = 0.0143333 (at node 0)
	maximum = 0.0246667 (at node 7)
Injected flit rate average = 0.0199167
	minimum = 0.0146667 (at node 0)
	maximum = 0.0246667 (at node 13)
Accepted flit rate average= 0.0197917
	minimum = 0.0143333 (at node 0)
	maximum = 0.0246667 (at node 7)
Injected packet length average = 1
Accepted packet length average = 1
Total in-flight flits = 10 (10 measured)
latency change    = 0.0056972
throughput change = 0.00368421
Class 0:
Packet latency average = 19.7109
	minimum = 7
	maximum = 40
Network latency average = 19.7109
	minimum = 7
	maximum = 40
Slowest packet = 10909
Flit latency average = 19.7408
	minimum = 7
	maximum = 40
Slowest flit = 10909
Fragmentation average = 0
	minimum = 0
	maximum = 0
Injected packet rate average = 0.0204375
	minimum = 0.01675 (at node 11)
	maximum = 0.02425 (at node 12)
Accepted packet rate average = 0.0204375
	minimum = 0.0165 (at node 14)
	maximum = 0.0245 (at node 3)
Injected flit rate average = 0.0204375
	minimum = 0.01675 (at node 11)
	maximum = 0.02425 (at node 12)
Accepted flit rate average= 0.0204375
	minimum = 0.0165 (at node 14)
	maximum = 0.0245 (at node 3)
Injected packet length average = 1
Accepted packet length average = 1
Total in-flight flits = 4 (4 measured)
latency change    = 0.00689129
throughput change = 0.0316004
Draining all recorded packets ...
Draining remaining packets ...
Time taken is 7047 cycles
Class 0:
Packet latency average = 19.4256
	minimum = 7
	maximum = 38
Network latency average = 19.4256
	minimum = 7
	maximum = 38
Slowest packet = 12260
Flit latency average = 19.4256
	minimum = 7
	maximum = 38
Slowest flit = 12260
Fragmentation average = 0
	minimum = 0
	maximum = 0
Injected packet rate average = 0.0214375
	minimum = 0.012 (at node 1)
	maximum = 0.029 (at node 9)
Accepted packet rate average = 0.021
	minimum = 0.012 (at node 4)
	maximum = 0.029 (at node 6)
Injected flit rate average = 0.0214375
	minimum = 0.012 (at node 1)
	maximum = 0.029 (at node 9)
Accepted flit rate average= 0.021
	minimum = 0.012 (at node 4)
	maximum = 0.029 (at node 6)
Injected packet length average = 1
Accepted packet length average = 1
Total in-flight flits = 7 (0 measured)
latency change    = 1
throughput change = 1
Class 0:
Packet latency average = 19.7134
	minimum = 7
	maximum = 40
Network latency average = 19.7134
	minimum = 7
	maximum = 40
Slowest packet = 12721
Flit latency average = 19.7134
	minimum = 7
	maximum = 40
Slowest flit = 12721
Fragmentation average = 0
	minimum = 0
	maximum = 0
Injected packet rate average = 0.0202813
	minimum = 0.015 (at node 2)
	maximum = 0.027 (at node 11)
Accepted packet rate average = 0.0200625
	minimum = 0.0145 (at node 8)
	maximum = 0.0265 (at node 14)
Injected flit rate average = 0.0202813
	minimum = 0.015 (at node 2)
	maximum = 0.027 (at node 11)
Accepted flit rate average= 0.0200625
	minimum = 0.0145 (at node 8)
	maximum = 0.0265 (at node 14)
Injected packet length average = 1
Accepted packet length average = 1
Total in-flight flits = 7 (0 measured)
latency change    = 0.0145992
throughput change = 0.046729
Class 0:
Packet latency average = 19.6067
	minimum = 7
	maximum = 38
Network latency average = 19.6067
	minimum = 7
	maximum = 38
Slowest packet = 12914
Flit latency average = 19.6067
	minimum = 7
	maximum = 38
Slowest flit = 12914
Fragmentation average = 0
	minimum = 0
	maximum = 0
Injected packet rate average = 0.0204375
	minimum = 0.014 (at node 15)
	maximum = 0.031 (at node 7)
Accepted packet rate average = 0.0205
	minimum = 0.015 (at node 15)
	maximum = 0.03 (at node 13)
Injected flit rate average = 0.0204375
	minimum = 0.014 (at node 15)
	maximum = 0.031 (at node 7)
Accepted flit rate average= 0.0205
	minimum = 0.015 (at node 15)
	maximum = 0.03 (at node 13)
Injected packet length average = 1
Accepted packet length average = 1
Total in-flight flits = 6 (0 measured)
latency change    = 0.00544142
throughput change = 0.0213415
Warmed up ...Time used is 3000 cycles
Class 0:
Packet latency average = 20.1835
	minimum = 7
	maximum = 38
Network latency average = 20.1835
	minimum = 7
	maximum = 38
Slowest packet = 13224
Flit latency average = 20.1863
	minimum = 7
	maximum = 38
Slowest flit = 13224
Fragmentation average = 0
	minimum = 0
	maximum = 0
Injected packet rate average = 0.020375
	minimum = 0.012 (at node 11)
	maximum = 0.027 (at node 13)
Accepted packet rate average = 0.020125
	minimum = 0.013 (at node 14)
	maximum = 0.026 (at node 1)
Injected flit rate average = 0.020375
	minimum = 0.012 (at node 11)
	maximum = 0.027 (at node 13)
Accepted flit rate average= 0.020125
	minimum = 0.013 (at node 14)
	maximum = 0.026 (at node 1)
Injected packet length average = 1
Accepted packet length average = 1
Total in-flight flits = 10 (10 measured)
latency change    = 0.0285796
throughput change = 0.0186335
Class 0:
Packet latency average = 19.9622
	minimum = 7
	maximum = 38
Network latency average = 19.9622
	minimum = 7
	maximum = 38
Slowest packet = 13224
Flit latency average = 19.9657
	minimum = 7
	maximum = 38
Slowest flit = 13224
Fragmentation average = 0
	minimum = 0
	maximum = 0
Injected packet rate average = 0.0202188
	minimum = 0.015 (at node 11)
	maximum = 0.025 (at node 7)
Accepted packet rate average = 0.0200313
	minimum = 0.014 (at node 14)
	maximum = 0.025 (at node 13)
Injected flit rate average = 0.0202188
	minimum = 0.015 (at node 11)
	maximum = 0.025 (at node 7)
Accepted flit rate average= 0.0200313
	minimum = 0.014 (at node 14)
	maximum = 0.025 (at node 13)
Injected packet length average = 1
Accepted packet length average = 1
Total in-flight flits = 12 (12 measured)
latency change    = 0.0110879
throughput change = 0.00468019
Class 0:
Packet latency average = 19.6107
	minimum = 7
	maximum = 38
Network latency average = 19.6107
	minimum = 7
	maximum = 38
Slowest packet = 13224
Flit latency average = 19.6151
	minimum = 7
	maximum = 38
Slowest flit = 13224
Fragmentation average = 0
	minimum = 0
	maximum = 0
Injected packet rate average = 0.0203542
	minimum = 0.0153333 (at node 11)
	maximum = 0.0233333 (at node 4)
Accepted packet rate average = 0.0203542
	minimum = 0.0156667 (at node 14)
	maximum = 0.0233333 (at node 1)
Injected flit rate average = 0.0203542
	minimum = 0.0153333 (at node 11)
	maximum = 0.0233333 (at node 4)
Accepted flit rate average= 0.0203542
	minimum = 0.0156667 (at node 14)
	maximum = 0.0233333 (at node 1)
Injected packet length average = 1
Accepted packet length average = 1
Total in-flight flits = 6 (6 measured)
latency change    = 0.0179236
throughput change = 0.0158649
Draining all recorded packets ...
Draining remaining packets ...
Time taken is 6030 cycles
Class 0:
Packet latency average = 19.8013
	minimum = 7
	maximum = 39
Network latency average = 19.8013
	minimum = 7
	maximum = 39
Slowest packet = 14369
Flit latency average = 19.8013
	minimum = 7
	maximum = 39
Slowest flit = 14369
Fragmentation average = 0
	minimum = 0
	maximum = 0
Injected packet rate average = 0.0200625
	minimum = 0.011 (at node 6)
	maximum = 0.028 (at node 8)
Accepted packet rate average = 0.0195
	minimum = 0.01 (at node 9)
	maximum = 0.027 (at node 2)
Injected flit rate average = 0.0200625
	minimum = 0.011 (at node 6)
	maximum = 0.028 (at node 8)
Accepted flit rate average= 0.0195
	minimum = 0.01 (at node 9)
	maximum = 0.027 (at node 2)
Injected packet length average = 1
Accepted packet length average = 1
Total in-flight flits = 9 (0 measured)
latency change    = 1
throughput change = 1
Class 0:
Packet latency average = 19.6063
	minimum = 7
	maximum = 39
Network latency average = 19.6063
	minimum = 7
	maximum = 39
Slowest packet = 14369
Flit latency average = 19.6063
	minimum = 7
	maximum = 39
Slowest flit = 14369
Fragmentation average = 0
	minimum = 0
	maximum = 0
Injected packet rate average = 0.0209063
	minimum = 0.014 (at node 12)
	maximum = 0.0255 (at node 3)
Accepted packet rate average = 0.0207188
	minimum = 0.014 (at node 3)
	maximum = 0.025 (at node 12)
Injected flit rate average = 0.0209063
	minimum = 0.014 (at node 12)
	maximum = 0.0255 (at node 3)
Accepted flit rate average= 0.0207188
	minimum = 0.014 (at node 3)
	maximum = 0.025 (at node 12)
Injected packet length average = 1
Accepted packet length average = 1
Total in-flight flits = 6 (0 measured)
latency change    = 0.00994307
throughput change = 0.0588235
Class 0:
Packet latency average = 19.5063
	minimum = 7
	maximum = 37
Network latency average = 19.5063
	minimum = 7
	maximum = 37
Slowest packet = 14778
Flit latency average = 19.5063
	minimum = 7
	maximum = 37
Slowest flit = 14778
Fragmentation average = 0
	minimum = 0
	maximum = 0
Injected packet rate average = 0.019625
	minimum = 0.016 (at node 12)
	maximum = 0.026 (at node 7)
Accepted packet rate average = 0.02
	minimum = 0.016 (at node 3)
	maximum = 0.026 (at node 13)
Injected flit rate average = 0.019625
	minimum = 0.016 (at node 12)
	maximum = 0.026 (at node 7)
Accepted flit rate average= 0.02
	minimum = 0.016 (at node 3)
	maximum = 0.026 (at node 13)
Injected packet length average = 1
Accepted packet length average = 1
Total in-flight flits = 0 (0 measured)
latency change    = 0.00513091
throughput change = 0.0359375
Warmed up ...Time used is 3000 cycles
Class 0:
Packet latency average = 18.9741
	minimum = 7
	maximum = 37
Network latency average = 18.9741
	minimum = 7
	maximum = 37
Slowest packet = 15100
Flit latency average = 18.9741
	minimum = 7
	maximum = 37
Slowest flit = 15100
Fragmentation average = 0
	minimum = 0
	maximum = 0
Injected packet rate average = 0.022
	minimum = 0.015 (at node 2)
	maximum = 0.032 (at node 15)
Accepted packet rate average = 0.0216875
	minimum = 0.015 (at node 8)
	maximum = 0.032 (at node 15)
Injected flit rate average = 0.022
	minimum = 0.015 (at node 2)
	maximum = 0.032 (at node 15)
Accepted flit rate average= 0.0216875
	minimum = 0.015 (at node 8)
	maximum = 0.032 (at node 15)
Injected packet length average = 1
Accepted packet length average = 1
Total in-flight flits = 5 (5 measured)
latency change    = 0.0280481
throughput change = 0.0778098
Class 0:
Packet latency average = 19.3085
	minimum = 7
	maximum = 39
Network latency average = 19.3085
	minimum = 7
	maximum = 39
Slowest packet = 15680
Flit latency average = 19.3085
	minimum = 7
	maximum = 39
Slowest flit = 15680
Fragmentation average = 0
	minimum = 0
	maximum = 0
Injected packet rate average = 0.0205313
	minimum = 0.0155 (at node 2)
	maximum = 0.026 (at node 15)
Accepted packet rate average = 0.0201563
	minimum = 0.0155 (at node 8)
	maximum = 0.0255 (at node 15)
Injected flit rate average = 0.0205313
	minimum = 0.0155 (at node 2)
	maximum = 0.026 (at node 15)
Accepted flit rate average= 0.0201563
	minimum = 0.0155 (at node 8)
	maximum = 0.0255 (at node 15)
Injected packet length average = 1
Accepted packet length average = 1
Total in-flight flits = 12 (12 measured)
latency change    = 0.0173221
throughput change = 0.075969
Class 0:
Packet latency average = 19.4712
	minimum = 7
	maximum = 39
Network latency average = 19.4712
	minimum = 7
	maximum = 39
Slowest packet = 15680
Flit latency average = 19.4712
	minimum = 7
	maximum = 39
Slowest flit = 15680
Fragmentation average = 0
	minimum = 0
	maximum = 0
Injected packet rate average = 0.0207292
	minimum = 0.016 (at node 2)
	maximum = 0.0246667 (at node 15)
Accepted packet rate average = 0.0206042
	minimum = 0.016 (at node 8)
	maximum = 0.0246667 (at node 15)
Injected flit rate average = 0.0207292
	minimum = 0.016 (at node 2)
	maximum = 0.0246667 (at node 15)
Accepted flit rate average= 0.0206042
	minimum = 0.016 (at node 8)
	maximum = 0.0246667 (at node 15)
Injected packet length average = 1
Accepted packet length average = 1
Total in-flight flits = 6 (6 measured)
latency change    = 0.00835367
throughput change = 0.0217391
Class 0:
Packet latency average = 19.6872
	minimum = 7
	maximum = 40
Network latency average = 19.6872
	minimum = 7
	maximum = 40
Slowest packet = 16308
Flit latency average = 19.6872
	minimum = 7
	maximum = 40
Slowest flit = 16308
Fragmentation average = 0
	minimum = 0
	maximum = 0
Injected packet rate average = 0.0203594
	minimum = 0.016 (at node 2)
	maximum = 0.024 (at node 4)
Accepted packet rate average = 0.0202813
	minimum = 0.016 (at node 8)
	maximum = 0.024 (at node 1)
Injected flit rate average = 0.0203594
	minimum = 0.016 (at node 2)
	maximum = 0.024 (at node 4)
Accepted flit rate average= 0.0202813
	minimum = 0.016 (at node 8)
	maximum = 0.024 (at node 1)
Injected packet length average = 1
Accepted packet length average = 1
Total in-flight flits = 5 (5 measured)
latency change    = 0.010973
throughput change = 0.0159219
Class 0:
Packet latency average = 19.5474
	minimum = 7
	maximum = 40
Network latency average = 19.5474
	minimum = 7
	maximum = 40
Slowest packet = 16308
Flit latency average = 19.5474
	minimum = 7
	maximum = 40
Slowest flit = 16308
Fragmentation average = 0
	minimum = 0
	maximum = 0
Injected packet rate average = 0.02055
	minimum = 0.0166 (at node 10)
	maximum = 0.0254 (at node 4)
Accepted packet rate average = 0.0204375
	minimum = 0.0166 (at node 10)
	maximum = 0.0252 (at node 1)
Injected flit rate average = 0.02055
	minimum = 0.0166 (at node 10)
	maximum = 0.0254 (at node 4)
Accepted flit rate average= 0.0204375
	minimum = 0.0166 (at node 10)
	maximum = 0.0252 (at node 1)
Injected packet length average = 1
Accepted packet length average = 1
Total in-flight flits = 9 (9 measured)
latency change    = 0.00715238
throughput change = 0.00764526
Draining all recorded packets ...
Draining remaining packets ...
Time taken is 8058 cycles
Class 0:
Packet latency average = 19.0066
	minimum = 7
	maximum = 37
Network latency average = 19.0066
	minimum = 7
	maximum = 37
Slowest packet = 16755
Flit latency average = 19.0066
	minimum = 7
	maximum = 37
Slowest flit = 16755
Fragmentation average = 0
	minimum = 0
	maximum = 0
Injected packet rate average = 0.019
	minimum = 0.011 (at node 1)
	maximum = 0.03 (at node 15)
Accepted packet rate average = 0.0188125
	minimum = 0.011 (at node 4)
	maximum = 0.03 (at node 15)
Injected flit rate average = 0.019
	minimum = 0.011 (at node 1)
	maximum = 0.03 (at node 15)
Accepted flit rate average= 0.0188125
	minimum = 0.011 (at node 4)
	maximum = 0.03 (at node 15)
Injected packet length average = 1
Accepted packet length average = 1
Total in-flight flits = 3 (0 measured)
latency change    = 1
throughput change = 1
Class 0:
Packet latency average = 19.6683
	minimum = 7
	maximum = 37
Network latency average = 19.6683
	minimum = 7
	maximum = 37
Slowest packet = 16755
Flit latency average = 19.6683
	minimum = 7
	maximum = 37
Slowest flit = 16755
Fragmentation average = 0
	minimum = 0
	maximum = 0
Injected packet rate average = 0.0194687
	minimum = 0.012 (at node 10)
	maximum = 0.0245 (at node 9)
Accepted packet rate average = 0.0193125
	minimum = 0.012 (at node 10)
	maximum = 0.0245 (at node 6)
Injected flit rate average = 0.0194687
	minimum = 0.012 (at node 10)
	maximum = 0.0245 (at node 9)
Accepted flit rate average= 0.0193125
	minimum = 0.012 (at node 10)
	maximum = 0.0245 (at node 6)
Injected packet length average = 1
Accepted packet length average = 1
Total in-flight flits = 5 (0 measured)
latency change    = 0.03364
throughput change = 0.02589
Class 0:
Packet latency average = 20.4633
	minimum = 7
	maximum = 38
Network latency average = 20.4633
	minimum = 7
	maximum = 38
Slowest packet = 17379
Flit latency average = 20.4633
	minimum = 7
	maximum = 38
Slowest flit = 17379
Fragmentation average = 0
	minimum = 0
	maximum = 0
Injected packet rate average = 0.0194375
	minimum = 0.01 (at node 1)
	maximum = 0.027 (at node 3)
Accepted packet rate average = 0.0195625
	minimum = 0.01 (at node 4)
	maximum = 0.027 (at node 12)
Injected flit rate average = 0.0194375
	minimum = 0.01 (at node 1)
	maximum = 0.027 (at node 3)
Accepted flit rate average= 0.0195625
	minimum = 0.01 (at node 4)
	maximum = 0.027 (at node 12)
Injected packet length average = 1
Accepted packet length average = 1
Total in-flight flits = 3 (0 measured)
latency change    = 0.0388488
throughput change = 0.0127796
Warmed up ...Time used is 3000 cycles
Class 0:
Packet latency average = 18.7829
	minimum = 7
	maximum = 38
Network latency average = 18.7829
	minimum = 7
	maximum = 38
Slowest packet = 17926
Flit latency average = 18.8273
	minimum = 7
	maximum = 38
Slowest flit = 17926
Fragmentation average = 0
	minimum = 0
	maximum = 0
Injected packet rate average = 0.0206875
	minimum = 0.012 (at node 3)
	maximum = 0.029 (at node 13)
Accepted packet rate average = 0.020625
	minimum = 0.012 (at node 12)
	maximum = 0.03 (at node 7)
Injected flit rate average = 0.0206875
	minimum = 0.012 (at node 3)
	maximum = 0.029 (at node 13)
Accepted flit rate average= 0.020625
	minimum = 0.012 (at node 12)
	maximum = 0.03 (at node 7)
Injected packet length average = 1
Accepted packet length average = 1
Total in-flight flits = 4 (4 measured)
latency change    = 0.0894636
throughput change = 0.0515152
Class 0:
Packet latency average = 18.992
	minimum = 7
	maximum = 38
Network latency average = 18.992
	minimum = 7
	maximum = 38
Slowest packet = 17926
Flit latency average = 19.0143
	minimum = 7
	maximum = 38
Slowest flit = 17926
Fragmentation average = 0
	minimum = 0
	maximum = 0
Injected packet rate average = 0.0195938
	minimum = 0.015 (at node 3)
	maximum = 0.0285 (at node 13)
Accepted packet rate average = 0.019625
	minimum = 0.015 (at node 12)
	maximum = 0.029 (at node 7)
Injected flit rate average = 0.0195938
	minimum = 0.015 (at node 3)
	maximum = 0.0285 (at node 13)
Accepted flit rate average= 0.019625
	minimum = 0.015 (at node 12)
	maximum = 0.029 (at node 7)
Injected packet length average = 1
Accepted packet length average = 1
Total in-flight flits = 2 (2 measured)
latency change    = 0.0110112
throughput change = 0.0509554
Class 0:
Packet latency average = 19.2131
	minimum = 7
	maximum = 38
Network latency average = 19.2131
	minimum = 7
	maximum = 38
Slowest packet = 17926
Flit latency average = 19.2273
	minimum = 7
	maximum = 38
Slowest flit = 17926
Fragmentation average = 0
	minimum = 0
	maximum = 0
Injected packet rate average = 0.0197292
	minimum = 0.0166667 (at node 4)
	maximum = 0.0243333 (at node 15)
Accepted packet rate average = 0.0197083
	minimum = 0.0166667 (at node 1)
	maximum = 0.0243333 (at node 15)
Injected flit rate average = 0.0197292
	minimum = 0.0166667 (at node 4)
	maximum = 0.0243333 (at node 15)
Accepted flit rate average= 0.0197083
	minimum = 0.0166667 (at node 1)
	maximum = 0.0243333 (at node 15)
Injected packet length average = 1
Accepted packet length average = 1
Total in-flight flits = 4 (4 measured)
latency change    = 0.0115103
throughput change = 0.00422833
Class 0:
Packet latency average = 19.1081
	minimum = 7
	maximum = 38
Network latency average = 19.1081
	minimum = 7
	maximum = 38
Slowest packet = 17926
Flit latency average = 19.1191
	minimum = 7
	maximum = 38
Slowest flit = 17926
Fragmentation average = 0
	minimum = 0
	maximum = 0
Injected packet rate average = 0.0194844
	minimum = 0.016 (at node 3)
	maximum = 0.02325 (at node 15)
Accepted packet rate average = 0.0194219
	minimum = 0.0155 (at node 12)
	maximum = 0.02325 (at node 15)
Injected flit rate average = 0.0194844
	minimum = 0.016 (at node 3)
	maximum = 0.02325 (at node 15)
Accepted flit rate average= 0.0194219
	minimum = 0.0155 (at node 12)
	maximum = 0.02325 (at node 15)
Injected packet length average = 1
Accepted packet length average = 1
Total in-flight flits = 7 (7 measured)
latency change    = 0.00549951
throughput change = 0.0147493
Class 0:
Packet latency average = 19.1629
	minimum = 7
	maximum = 38
Network latency average = 19.1629
	minimum = 7
	maximum = 38
Slowest packet = 17926
Flit latency average = 19.1716
	minimum = 7
	maximum = 38
Slowest flit = 17926
Fragmentation average = 0
	minimum = 0
	maximum = 0
Injected packet rate average = 0.0195125
	minimum = 0.0156 (at node 3)
	maximum = 0.0226 (at node 15)
Accepted packet rate average = 0.01945
	minimum = 0.0156 (at node 12)
	maximum = 0.0226 (at node 15)
Injected flit rate average = 0.0195125
	minimum = 0.0156 (at node 3)
	maximum = 0.0226 (at node 15)
Accepted flit rate average= 0.01945
	minimum = 0.0156 (at node 12)
	maximum = 0.0226 (at node 15)
Injected packet length average = 1
Accepted packet length average = 1
Total in-flight flits = 8 (8 measured)
latency change    = 0.00286209
throughput change = 0.00144602
Draining all recorded packets ...
Draining remaining packets ...
Time taken is 8049 cycles
Class 0:
Packet latency average = 19.8571
	minimum = 7
	maximum = 37
Network latency average = 19.8571
	minimum = 7
	maximum = 37
Slowest packet = 19260
Flit latency average = 19.8571
	minimum = 7
	maximum = 37
Slowest flit = 19260
Fragmentation average = 0
	minimum = 0
	maximum = 0
Injected packet rate average = 0.0205
	minimum = 0.015 (at node 4)
	maximum = 0.029 (at node 13)
Accepted packet rate average = 0.020125
	minimum = 0.014 (at node 1)
	maximum = 0.027 (at node 7)
Injected flit rate average = 0.0205
	minimum = 0.015 (at node 4)
	maximum = 0.029 (at node 13)
Accepted flit rate average= 0.020125
	minimum = 0.014 (at node 1)
	maximum = 0.027 (at node 7)
Injected packet length average = 1
Accepted packet length average = 1
Total in-flight flits = 6 (0 measured)
latency change    = 1
throughput change = 1
Class 0:
Packet latency average = 20.0425
	minimum = 7
	maximum = 38
Network latency average = 20.0425
	minimum = 7
	maximum = 38
Slowest packet = 19668
Flit latency average = 20.0425
	minimum = 7
	maximum = 38
Slowest flit = 19668
Fragmentation average = 0
	minimum = 0
	maximum = 0
Injected packet rate average = 0.0202813
	minimum = 0.016 (at node 1)
	maximum = 0.026 (at node 13)
Accepted packet rate average = 0.019875
	minimum = 0.0155 (at node 4)
	maximum = 0.026 (at node 7)
Injected flit rate average = 0.0202813
	minimum = 0.016 (at node 1)
	maximum = 0.026 (at node 13)
Accepted flit rate average= 0.019875
	minimum = 0.0155 (at node 4)
	maximum = 0.026 (at node 7)
Injected packet length average = 1
Accepted packet length average = 1
Total in-flight flits = 13 (0 measured)
latency change    = 0.00924587
throughput change = 0.0125786
Class 0:
Packet latency average = 19.6054
	minimum = 7
	maximum = 38
Network latency average = 19.6054
	minimum = 7
	maximum = 38
Slowest packet = 20075
Flit latency average = 19.6054
	minimum = 7
	maximum = 38
Slowest flit = 20075
Fragmentation average = 0
	minimum = 0
	maximum = 0
Injected packet rate average = 0.020625
	minimum = 0.012 (at node 5)
	maximum = 0.029 (at node 6)
Accepted packet rate average = 0.02075
	minimum = 0.012 (at node 5)
	maximum = 0.028 (at node 9)
Injected flit rate average = 0.020625
	minimum = 0.012 (at node 5)
	maximum = 0.029 (at node 6)
Accepted flit rate average= 0.02075
	minimum = 0.012 (at node 5)
	maximum = 0.028 (at node 9)
Injected packet length average = 1
Accepted packet length average = 1
Total in-flight flits = 11 (0 measured)
latency change    = 0.0222913
throughput change = 0.0421687
Warmed up ...Time used is 3000 cycles
Class 0:
Packet latency average = 19.1079
	minimum = 7
	maximum = 38
Network latency average = 19.1079
	minimum = 7
	maximum = 38
Slowest packet = 20487
Flit latency average = 19.2822
	minimum = 7
	maximum = 38
Slowest flit = 20487
Fragmentation average = 0
	minimum = 0
	maximum = 0
Injected packet rate average = 0.02
	minimum = 0.014 (at node 4)
	maximum = 0.027 (at node 11)
Accepted packet rate average = 0.020375
	minimum = 0.014 (at node 1)
	maximum = 0.027 (at node 14)
Injected flit rate average = 0.02
	minimum = 0.014 (at node 4)
	maximum = 0.027 (at node 11)
Accepted flit rate average= 0.020375
	minimum = 0.014 (at node 1)
	maximum = 0.027 (at node 14)
Injected packet length average = 1
Accepted packet length average = 1
Total in-flight flits = 5 (5 measured)
latency change    = 0.0260355
throughput change = 0.0184049
Class 0:
Packet latency average = 19.3026
	minimum = 7
	maximum = 38
Network latency average = 19.3026
	minimum = 7
	maximum = 38
Slowest packet = 20487
Flit latency average = 19.3943
	minimum = 7
	maximum = 38
Slowest flit = 20487
Fragmentation average = 0
	minimum = 0
	maximum = 0
Injected packet rate average = 0.0183125
	minimum = 0.013 (at node 1)
	maximum = 0.0215 (at node 5)
Accepted packet rate average = 0.018625
	minimum = 0.013 (at node 4)
	maximum = 0.022 (at node 14)
Injected flit rate average = 0.0183125
	minimum = 0.013 (at node 1)
	maximum = 0.0215 (at node 5)
Accepted flit rate average= 0.018625
	minimum = 0.013 (at node 4)
	maximum = 0.022 (at node 14)
Injected packet length average = 1
Accepted packet length average = 1
Total in-flight flits = 1 (1 measured)
latency change    = 0.010083
throughput change = 0.0939597
Class 0:
Packet latency average = 19.0044
	minimum = 7
	maximum = 38
Network latency average = 19.0044
	minimum = 7
	maximum = 38
Slowest packet = 20487
Flit latency average = 19.0675
	minimum = 7
	maximum = 38
Slowest flit = 20487
Fragmentation average = 0
	minimum = 0
	maximum = 0
Injected packet rate average = 0.0190417
	minimum = 0.0146667 (at node 12)
	maximum = 0.0226667 (at node 9)
Accepted packet rate average = 0.019125
	minimum = 0.015 (at node 3)
	maximum = 0.0226667 (at node 6)
Injected flit rate average = 0.0190417
	minimum = 0.0146667 (at node 12)
	maximum = 0.0226667 (at node 9)
Accepted flit rate average= 0.019125
	minimum = 0.015 (at node 3)
	maximum = 0.0226667 (at node 6)
Injected packet length average = 1
Accepted packet length average = 1
Total in-flight flits = 7 (7 measured)
latency change    = 0.0156887
throughput change = 0.0261438
Class 0:
Packet latency average = 18.9028
	minimum = 7
	maximum = 39
Network latency average = 18.9028
	minimum = 7
	maximum = 39
Slowest packet = 21339
Flit latency average = 18.9506
	minimum = 7
	maximum = 39
Slowest flit = 21339
Fragmentation average = 0
	minimum = 0
	maximum = 0
Injected packet rate average = 0.0192656
	minimum = 0.0145 (at node 12)
	maximum = 0.0225 (at node 11)
Accepted packet rate average = 0.0192969
	minimum = 0.0145 (at node 3)
	maximum = 0.0225 (at node 14)
Injected flit rate average = 0.0192656
	minimum = 0.0145 (at node 12)
	maximum = 0.0225 (at node 11)
Accepted flit rate average= 0.0192969
	minimum = 0.0145 (at node 3)
	maximum = 0.0225 (at node 14)
Injected packet length average = 1
Accepted packet length average = 1
Total in-flight flits = 9 (9 measured)
latency change    = 0.00537658
throughput change = 0.00890688
Class 0:
Packet latency average = 19.0209
	minimum = 7
	maximum = 39
Network latency average = 19.0209
	minimum = 7
	maximum = 39
Slowest packet = 21339
Flit latency average = 19.0573
	minimum = 7
	maximum = 39
Slowest flit = 21339
Fragmentation average = 0
	minimum = 0
	maximum = 0
Injected packet rate average = 0.0198375
	minimum = 0.0154 (at node 12)
	maximum = 0.0242 (at node 11)
Accepted packet rate average = 0.0198625
	minimum = 0.0154 (at node 3)
	maximum = 0.0242 (at node 14)
Injected flit rate average = 0.0198375
	minimum = 0.0154 (at node 12)
	maximum = 0.0242 (at node 11)
Accepted flit rate average= 0.0198625
	minimum = 0.0154 (at node 3)
	maximum = 0.0242 (at node 14)
Injected packet length average = 1
Accepted packet length average = 1
Total in-flight flits = 9 (9 measured)
latency change    = 0.00621078
throughput change = 0.028477
Draining all recorded packets ...
Draining remaining packets ...
Time taken is 8044 cycles
Class 0:
Packet latency average = 19.2547
	minimum = 7
	maximum = 37
Network latency average = 19.2547
	minimum = 7
	maximum = 37
Slowest packet = 21833
Flit latency average = 19.2547
	minimum = 7
	maximum = 37
Slowest flit = 21833
Fragmentation average = 0
	minimum = 0
	maximum = 0
Injected packet rate average = 0.020625
	minimum = 0.013 (at node 10)
	maximum = 0.032 (at node 8)
Accepted packet rate average = 0.020125
	minimum = 0.013 (at node 10)
	maximum = 0.03 (at node 2)
Injected flit rate average = 0.020625
	minimum = 0.013 (at node 10)
	maximum = 0.032 (at node 8)
Accepted flit rate average= 0.020125
	minimum = 0.013 (at node 10)
	maximum = 0.03 (at node 2)
Injected packet length average = 1
Accepted packet length average = 1
Total in-flight flits = 8 (0 measured)
latency change    = 1
throughput change = 1
Class 0:
Packet latency average = 19.5091
	minimum = 7
	maximum = 38
Network latency average = 19.5091
	minimum = 7
	maximum = 38
Slowest packet = 22267
Flit latency average = 19.5091
	minimum = 7
	maximum = 38
Slowest flit = 22267
Fragmentation average = 0
	minimum = 0
	maximum = 0
Injected packet rate average = 0.0207188
	minimum = 0.013 (at node 10)
	maximum = 0.0285 (at node 8)
Accepted packet rate average = 0.0205625
	minimum = 0.013 (at node 10)
	maximum = 0.028 (at node 2)
Injected flit rate average = 0.0207188
	minimum = 0.013 (at node 10)
	maximum = 0.0285 (at node 8)
Accepted flit rate average= 0.0205625
	minimum = 0.013 (at node 10)
	maximum = 0.028 (at node 2)
Injected packet length average = 1
Accepted packet length average = 1
Total in-flight flits = 5 (0 measured)
latency change    = 0.0130431
throughput change = 0.0212766
Class 0:
Packet latency average = 18.9853
	minimum = 7
	maximum = 38
Network latency average = 18.9853
	minimum = 7
	maximum = 38
Slowest packet = 22661
Flit latency average = 18.9853
	minimum = 7
	maximum = 38
Slowest flit = 22661
Fragmentation average = 0
	minimum = 0
	maximum = 0
Injected packet rate average = 0.0214375
	minimum = 0.014 (at node 6)
	maximum = 0.031 (at node 9)
Accepted packet rate average = 0.02125
	minimum = 0.014 (at node 3)
	maximum = 0.031 (at node 6)
Injected flit rate average = 0.0214375
	minimum = 0.014 (at node 6)
	maximum = 0.031 (at node 9)
Accepted flit rate average= 0.02125
	minimum = 0.014 (at node 3)
	maximum = 0.031 (at node 6)
Injected packet length average = 1
Accepted packet length average = 1
Total in-flight flits = 8 (0 measured)
latency change    = 0.0275911
throughput change = 0.0323529
Warmed up ...Time used is 3000 cycles
Class 0:
Packet latency average = 18.9532
	minimum = 7
	maximum = 37
Network latency average = 18.9532
	minimum = 7
	maximum = 37
Slowest packet = 22845
Flit latency average = 19.1954
	minimum = 7
	maximum = 37
Slowest flit = 22830
Fragmentation average = 0
	minimum = 0
	maximum = 0
Injected packet rate average = 0.0189375
	minimum = 0.011 (at node 3)
	maximum = 0.025 (at node 5)
Accepted packet rate average = 0.0191875
	minimum = 0.011 (at node 12)
	maximum = 0.026 (at node 5)
Injected flit rate average = 0.0189375
	minimum = 0.011 (at node 3)
	maximum = 0.025 (at node 5)
Accepted flit rate average= 0.0191875
	minimum = 0.011 (at node 12)
	maximum = 0.026 (at node 5)
Injected packet length average = 1
Accepted packet length average = 1
Total in-flight flits = 4 (4 measured)
latency change    = 0.00169454
throughput change = 0.107492
Class 0:
Packet latency average = 19.2714
	minimum = 7
	maximum = 37
Network latency average = 19.2714
	minimum = 7
	maximum = 37
Slowest packet = 22845
Flit latency average = 19.3901
	minimum = 7
	maximum = 37
Slowest flit = 22830
Fragmentation average = 0
	minimum = 0
	maximum = 0
Injected packet rate average = 0.0187812
	minimum = 0.0145 (at node 11)
	maximum = 0.0225 (at node 12)
Accepted packet rate average = 0.0189062
	minimum = 0.0145 (at node 14)
	maximum = 0.024 (at node 3)
Injected flit rate average = 0.0187812
	minimum = 0.0145 (at node 11)
	maximum = 0.0225 (at node 12)
Accepted flit rate average= 0.0189062
	minimum = 0.0145 (at node 14)
	maximum = 0.024 (at node 3)
Injected packet length average = 1
Accepted packet length average = 1
Total in-flight flits = 4 (4 measured)
latency change    = 0.0165105
throughput change = 0.014876
Class 0:
Packet latency average = 19.5115
	minimum = 7
	maximum = 37
Network latency average = 19.5115
	minimum = 7
	maximum = 37
Slowest packet = 22845
Flit latency average = 19.587
	minimum = 7
	maximum = 37
Slowest flit = 22830
Fragmentation average = 0
	minimum = 0
	maximum = 0
Injected packet rate average = 0.0192708
	minimum = 0.0146667 (at node 11)
	maximum = 0.0246667 (at node 12)
Accepted packet rate average = 0.0192708
	minimum = 0.0146667 (at node 14)
	maximum = 0.0253333 (at node 3)
Injected flit rate average = 0.0192708
	minimum = 0.0146667 (at node 11)
	maximum = 0.0246667 (at node 12)
Accepted flit rate average= 0.0192708
	minimum = 0.0146667 (at node 14)
	maximum = 0.0253333 (at node 3)
Injected packet length average = 1
Accepted packet length average = 1
Total in-flight flits = 8 (8 measured)
latency change    = 0.0123053
throughput change = 0.0189189
Class 0:
Packet latency average = 19.6159
	minimum = 7
	maximum = 38
Network latency average = 19.6159
	minimum = 7
	maximum = 38
Slowest packet = 23751
Flit latency average = 19.6718
	minimum = 7
	maximum = 38
Slowest flit = 23751
Fragmentation average = 0
	minimum = 0
	maximum = 0
Injected packet rate average = 0.0193281
	minimum = 0.0145 (at node 11)
	maximum = 0.023 (at node 12)
Accepted packet rate average = 0.0193281
	minimum = 0.0145 (at node 14)
	maximum = 0.02375 (at node 3)
Injected flit rate average = 0.0193281
	minimum = 0.0145 (at node 11)
	maximum = 0.023 (at node 12)
Accepted flit rate average= 0.0193281
	minimum = 0.0145 (at node 14)
	maximum = 0.02375 (at node 3)
Injected packet length average = 1
Accepted packet length average = 1
Total in-flight flits = 8 (8 measured)
latency change    = 0.00532717
throughput change = 0.00296416
Draining all recorded packets ...
Draining remaining packets ...
Time taken is 7049 cycles
Class 0:
Packet latency average = 19.5976
	minimum = 7
	maximum = 38
Network latency average = 19.5976
	minimum = 7
	maximum = 38
Slowest packet = 24211
Flit latency average = 19.5976
	minimum = 7
	maximum = 38
Slowest flit = 24211
Fragmentation average = 0
	minimum = 0
	maximum = 0
Injected packet rate average = 0.0215
	minimum = 0.015 (at node 8)
	maximum = 0.028 (at node 3)
Accepted packet rate average = 0.021125
	minimum = 0.015 (at node 2)
	maximum = 0.028 (at node 10)
Injected flit rate average = 0.0215
	minimum = 0.015 (at node 8)
	maximum = 0.028 (at node 3)
Accepted flit rate average= 0.021125
	minimum = 0.015 (at node 2)
	maximum = 0.028 (at node 10)
Injected packet length average = 1
Accepted packet length average = 1
Total in-flight flits = 6 (0 measured)
latency change    = 1
throughput change = 1
Class 0:
Packet latency average = 19.4469
	minimum = 7
	maximum = 38
Network latency average = 19.4469
	minimum = 7
	maximum = 38
Slowest packet = 24211
Flit latency average = 19.4469
	minimum = 7
	maximum = 38
Slowest flit = 24211
Fragmentation average = 0
	minimum = 0
	maximum = 0
Injected packet rate average = 0.0199063
	minimum = 0.0125 (at node 8)
	maximum = 0.0235 (at node 3)
Accepted packet rate average = 0.0197188
	minimum = 0.012 (at node 2)
	maximum = 0.0235 (at node 9)
Injected flit rate average = 0.0199063
	minimum = 0.0125 (at node 8)
	maximum = 0.0235 (at node 3)
Accepted flit rate average= 0.0197188
	minimum = 0.012 (at node 2)
	maximum = 0.0235 (at node 9)
Injected packet length average = 1
Accepted packet length average = 1
Total in-flight flits = 6 (0 measured)
latency change    = 0.00775051
throughput change = 0.0713154
Class 0:
Packet latency average = 18.9312
	minimum = 7
	maximum = 38
Network latency average = 18.9312
	minimum = 7
	maximum = 38
Slowest packet = 24880
Flit latency average = 18.9312
	minimum = 7
	maximum = 38
Slowest flit = 24880
Fragmentation average = 0
	minimum = 0
	maximum = 0
Injected packet rate average = 0.0199375
	minimum = 0.011 (at node 12)
	maximum = 0.026 (at node 2)
Accepted packet rate average = 0.02
	minimum = 0.011 (at node 3)
	maximum = 0.027 (at node 6)
Injected flit rate average = 0.0199375
	minimum = 0.011 (at node 12)
	maximum = 0.026 (at node 2)
Accepted flit rate average= 0.02
	minimum = 0.011 (at node 3)
	maximum = 0.027 (at node 6)
Injected packet length average = 1
Accepted packet length average = 1
Total in-flight flits = 5 (0 measured)
latency change    = 0.0272385
throughput change = 0.0140625
Warmed up ...Time used is 3000 cycles
Class 0:
Packet latency average = 18.9408
	minimum = 7
	maximum = 39
Network latency average = 18.9408
	minimum = 7
	maximum = 39
Slowest packet = 25157
Flit latency average = 18.9125
	minimum = 7
	maximum = 39
Slowest flit = 25157
Fragmentation average = 0
	minimum = 0
	maximum = 0
Injected packet rate average = 0.0218125
	minimum = 0.017 (at node 4)
	maximum = 0.03 (at node 15)
Accepted packet rate average = 0.0214375
	minimum = 0.015 (at node 3)
	maximum = 0.03 (at node 15)
Injected flit rate average = 0.0218125
	minimum = 0.017 (at node 4)
	maximum = 0.03 (at node 15)
Accepted flit rate average= 0.0214375
	minimum = 0.015 (at node 3)
	maximum = 0.03 (at node 15)
Injected packet length average = 1
Accepted packet length average = 1
Total in-flight flits = 11 (11 measured)
latency change    = 0.000505701
throughput change = 0.0670554
Class 0:
Packet latency average = 19.5768
	minimum = 7
	maximum = 39
Network latency average = 19.5768
	minimum = 7
	maximum = 39
Slowest packet = 25157
Flit latency average = 19.5575
	minimum = 7
	maximum = 39
Slowest flit = 25157
Fragmentation average = 0
	minimum = 0
	maximum = 0
Injected packet rate average = 0.0209375
	minimum = 0.0185 (at node 5)
	maximum = 0.0245 (at node 15)
Accepted packet rate average = 0.0209063
	minimum = 0.0185 (at node 5)
	maximum = 0.0245 (at node 15)
Injected flit rate average = 0.0209375
	minimum = 0.0185 (at node 5)
	maximum = 0.0245 (at node 15)
Accepted flit rate average= 0.0209063
	minimum = 0.0185 (at node 5)
	maximum = 0.0245 (at node 15)
Injected packet length average = 1
Accepted packet length average = 1
Total in-flight flits = 6 (6 measured)
latency change    = 0.0324863
throughput change = 0.0254111
Class 0:
Packet latency average = 19.9107
	minimum = 7
	maximum = 39
Network latency average = 19.9107
	minimum = 7
	maximum = 39
Slowest packet = 25157
Flit latency average = 19.8965
	minimum = 7
	maximum = 39
Slowest flit = 25157
Fragmentation average = 0
	minimum = 0
	maximum = 0
Injected packet rate average = 0.0213542
	minimum = 0.0163333 (at node 1)
	maximum = 0.0263333 (at node 12)
Accepted packet rate average = 0.0213333
	minimum = 0.0166667 (at node 4)
	maximum = 0.026 (at node 3)
Injected flit rate average = 0.0213542
	minimum = 0.0163333 (at node 1)
	maximum = 0.0263333 (at node 12)
Accepted flit rate average= 0.0213333
	minimum = 0.0166667 (at node 4)
	maximum = 0.026 (at node 3)
Injected packet length average = 1
Accepted packet length average = 1
Total in-flight flits = 6 (6 measured)
latency change    = 0.0167694
throughput change = 0.0200195
Class 0:
Packet latency average = 19.994
	minimum = 7
	maximum = 39
Network latency average = 19.994
	minimum = 7
	maximum = 39
Slowest packet = 25157
Flit latency average = 19.9827
	minimum = 7
	maximum = 39
Slowest flit = 25157
Fragmentation average = 0
	minimum = 0
	maximum = 0
Injected packet rate average = 0.0207344
	minimum = 0.018 (at node 1)
	maximum = 0.02575 (at node 12)
Accepted packet rate average = 0.02075
	minimum = 0.018 (at node 10)
	maximum = 0.02575 (at node 3)
Injected flit rate average = 0.0207344
	minimum = 0.018 (at node 1)
	maximum = 0.02575 (at node 12)
Accepted flit rate average= 0.02075
	minimum = 0.018 (at node 10)
	maximum = 0.02575 (at node 3)
Injected packet length average = 1
Accepted packet length average = 1
Total in-flight flits = 4 (4 measured)
latency change    = 0.00416408
throughput change = 0.0281124
Draining all recorded packets ...
Draining remaining packets ...
Time taken is 7038 cycles
Class 0:
Packet latency average = 19.6522
	minimum = 7
	maximum = 39
Network latency average = 19.6522
	minimum = 7
	maximum = 39
Slowest packet = 26514
Flit latency average = 19.6522
	minimum = 7
	maximum = 39
Slowest flit = 26514
Fragmentation average = 0
	minimum = 0
	maximum = 0
Injected packet rate average = 0.022125
	minimum = 0.018 (at node 2)
	maximum = 0.029 (at node 3)
Accepted packet rate average = 0.0215625
	minimum = 0.017 (at node 4)
	maximum = 0.029 (at node 5)
Injected flit rate average = 0.022125
	minimum = 0.018 (at node 2)
	maximum = 0.029 (at node 3)
Accepted flit rate average= 0.0215625
	minimum = 0.017 (at node 4)
	maximum = 0.029 (at node 5)
Injected packet length average = 1
Accepted packet length average = 1
Total in-flight flits = 9 (0 measured)
latency change    = 1
throughput change = 1
Class 0:
Packet latency average = 19.9047
	minimum = 7
	maximum = 39
Network latency average = 19.9047
	minimum = 7
	maximum = 39
Slowest packet = 26514
Flit latency average = 19.9047
	minimum = 7
	maximum = 39
Slowest flit = 26514
Fragmentation average = 0
	minimum = 0
	maximum = 0
Injected packet rate average = 0.020875
	minimum = 0.017 (at node 1)
	maximum = 0.0265 (at node 13)
Accepted packet rate average = 0.0206563
	minimum = 0.016 (at node 4)
	maximum = 0.0265 (at node 7)
Injected flit rate average = 0.020875
	minimum = 0.017 (at node 1)
	maximum = 0.0265 (at node 13)
Accepted flit rate average= 0.0206563
	minimum = 0.016 (at node 4)
	maximum = 0.0265 (at node 7)
Injected packet length average = 1
Accepted packet length average = 1
Total in-flight flits = 7 (0 measured)
latency change    = 0.0126863
throughput change = 0.0438729
Class 0:
Packet latency average = 18.2638
	minimum = 7
	maximum = 38
Network latency average = 18.2638
	minimum = 7
	maximum = 38
Slowest packet = 27177
Flit latency average = 18.2638
	minimum = 7
	maximum = 38
Slowest flit = 27177
Fragmentation average = 0
	minimum = 0
	maximum = 0
Injected packet rate average = 0.020375
	minimum = 0.012 (at node 8)
	maximum = 0.027 (at node 1)
Accepted packet rate average = 0.020375
	minimum = 0.012 (at node 2)
	maximum = 0.028 (at node 4)
Injected flit rate average = 0.020375
	minimum = 0.012 (at node 8)
	maximum = 0.027 (at node 1)
Accepted flit rate average= 0.020375
	minimum = 0.012 (at node 2)
	maximum = 0.028 (at node 4)
Injected packet length average = 1
Accepted packet length average = 1
Total in-flight flits = 7 (0 measured)
latency change    = 0.0898436
throughput change = 0.0138037
Warmed up ...Time used is 3000 cycles
Class 0:
Packet latency average = 20.0148
	minimum = 7
	maximum = 39
Network latency average = 20.0148
	minimum = 7
	maximum = 39
Slowest packet = 27493
Flit latency average = 19.9826
	minimum = 7
	maximum = 39
Slowest flit = 27493
Fragmentation average = 0
	minimum = 0
	maximum = 0
Injected packet rate average = 0.022
	minimum = 0.015 (at node 11)
	maximum = 0.034 (at node 13)
Accepted packet rate average = 0.0215625
	minimum = 0.015 (at node 4)
	maximum = 0.032 (at node 7)
Injected flit rate average = 0.022
	minimum = 0.015 (at node 11)
	maximum = 0.034 (at node 13)
Accepted flit rate average= 0.0215625
	minimum = 0.015 (at node 4)
	maximum = 0.032 (at node 7)
Injected packet length average = 1
Accepted packet length average = 1
Total in-flight flits = 14 (14 measured)
latency change    = 0.0874848
throughput change = 0.0550725
Class 0:
Packet latency average = 19.9698
	minimum = 7
	maximum = 39
Network latency average = 19.9698
	minimum = 7
	maximum = 39
Slowest packet = 27493
Flit latency average = 19.9544
	minimum = 7
	maximum = 39
Slowest flit = 27493
Fragmentation average = 0
	minimum = 0
	maximum = 0
Injected packet rate average = 0.0219062
	minimum = 0.0165 (at node 1)
	maximum = 0.0315 (at node 13)
Accepted packet rate average = 0.0219375
	minimum = 0.017 (at node 4)
	maximum = 0.032 (at node 7)
Injected flit rate average = 0.0219062
	minimum = 0.0165 (at node 1)
	maximum = 0.0315 (at node 13)
Accepted flit rate average= 0.0219375
	minimum = 0.017 (at node 4)
	maximum = 0.032 (at node 7)
Injected packet length average = 1
Accepted packet length average = 1
Total in-flight flits = 6 (6 measured)
latency change    = 0.00225384
throughput change = 0.017094
Class 0:
Packet latency average = 20.0556
	minimum = 7
	maximum = 40
Network latency average = 20.0556
	minimum = 7
	maximum = 40
Slowest packet = 28323
Flit latency average = 20.0443
	minimum = 7
	maximum = 40
Slowest flit = 28323
Fragmentation average = 0
	minimum = 0
	maximum = 0
Injected packet rate average = 0.021125
	minimum = 0.0163333 (at node 15)
	maximum = 0.029 (at node 13)
Accepted packet rate average = 0.0211458
	minimum = 0.0163333 (at node 15)
	maximum = 0.029 (at node 7)
Injected flit rate average = 0.021125
	minimum = 0.0163333 (at node 15)
	maximum = 0.029 (at node 13)
Accepted flit rate average= 0.0211458
	minimum = 0.0163333 (at node 15)
	maximum = 0.029 (at node 7)
Injected packet length average = 1
Accepted packet length average = 1
Total in-flight flits = 6 (6 measured)
latency change    = 0.00427669
throughput change = 0.0374384
Class 0:
Packet latency average = 19.626
	minimum = 7
	maximum = 40
Network latency average = 19.626
	minimum = 7
	maximum = 40
Slowest packet = 28323
Flit latency average = 19.6197
	minimum = 7
	maximum = 40
Slowest flit = 28323
Fragmentation average = 0
	minimum = 0
	maximum = 0
Injected packet rate average = 0.0207031
	minimum = 0.016 (at node 11)
	maximum = 0.02625 (at node 13)
Accepted packet rate average = 0.02075
	minimum = 0.01625 (at node 14)
	maximum = 0.02625 (at node 7)
Injected flit rate average = 0.0207031
	minimum = 0.016 (at node 11)
	maximum = 0.02625 (at node 13)
Accepted flit rate average= 0.02075
	minimum = 0.01625 (at node 14)
	maximum = 0.02625 (at node 7)
Injected packet length average = 1
Accepted packet length average = 1
Total in-flight flits = 4 (4 measured)
latency change    = 0.0218849
throughput change = 0.0190763
Draining all recorded packets ...
Draining remaining packets ...
Time taken is 7049 cycles
Class 0:
Packet latency average = 19.2824
	minimum = 7
	maximum = 38
Network latency average = 19.2824
	minimum = 7
	maximum = 38
Slowest packet = 28777
Flit latency average = 19.2824
	minimum = 7
	maximum = 38
Slowest flit = 28777
Fragmentation average = 0
	minimum = 0
	maximum = 0
Injected packet rate average = 0.021625
	minimum = 0.017 (at node 1)
	maximum = 0.029 (at node 7)
Accepted packet rate average = 0.02125
	minimum = 0.016 (at node 4)
	maximum = 0.028 (at node 13)
Injected flit rate average = 0.021625
	minimum = 0.017 (at node 1)
	maximum = 0.029 (at node 7)
Accepted flit rate average= 0.02125
	minimum = 0.016 (at node 4)
	maximum = 0.028 (at node 13)
Injected packet length average = 1
Accepted packet length average = 1
Total in-flight flits = 6 (0 measured)
latency change    = 1
throughput change = 1
Class 0:
Packet latency average = 19.6003
	minimum = 7
	maximum = 38
Network latency average = 19.6003
	minimum = 7
	maximum = 38
Slowest packet = 28777
Flit latency average = 19.6003
	minimum = 7
	maximum = 38
Slowest flit = 28777
Fragmentation average = 0
	minimum = 0
	maximum = 0
Injected packet rate average = 0.0202188
	minimum = 0.014 (at node 12)
	maximum = 0.0255 (at node 8)
Accepted packet rate average = 0.0199375
	minimum = 0.0135 (at node 3)
	maximum = 0.025 (at node 2)
Injected flit rate average = 0.0202188
	minimum = 0.014 (at node 12)
	maximum = 0.0255 (at node 8)
Accepted flit rate average= 0.0199375
	minimum = 0.0135 (at node 3)
	maximum = 0.025 (at node 2)
Injected packet length average = 1
Accepted packet length average = 1
Total in-flight flits = 9 (0 measured)
latency change    = 0.0162222
throughput change = 0.0658307
Class 0:
Packet latency average = 20.2125
	minimum = 7
	maximum = 38
Network latency average = 20.2125
	minimum = 7
	maximum = 38
Slowest packet = 29550
Flit latency average = 20.2125
	minimum = 7
	maximum = 38
Slowest flit = 29550
Fragmentation average = 0
	minimum = 0
	maximum = 0
Injected packet rate average = 0.0196875
	minimum = 0.014 (at node 0)
	maximum = 0.03 (at node 8)
Accepted packet rate average = 0.02
	minimum = 0.014 (at node 0)
	maximum = 0.03 (at node 2)
Injected flit rate average = 0.0196875
	minimum = 0.014 (at node 0)
	maximum = 0.03 (at node 8)
Accepted flit rate average= 0.02
	minimum = 0.014 (at node 0)
	maximum = 0.03 (at node 2)
Injected packet length average = 1
Accepted packet length average = 1
[...]
	maximum = 0
Injected packet rate average = 0.0197188
	minimum = 0.014 (at node 6)
	maximum = 0.025 (at node 15)
Accepted packet rate average = 0.0195312
	minimum = 0.014 (at node 9)
	maximum = 0.025 (at node 15)
Injected flit rate average = 0.0197188
	minimum = 0.014 (at node 6)
	maximum = 0.025 (at node 15)
Accepted flit rate average= 0.0195312
	minimum = 0.014 (at node 9)
	maximum = 0.025 (at node 15)
Injected packet length average = 1
Accepted packet length average = 1
Total in-flight flits = 9 (9 measured)
latency change    = 0.0195451
throughput change = 0.0144
Class 0:
Packet latency average = 19.4963
	minimum = 7
	maximum = 38
Network latency average = 19.4963
	minimum = 7
	maximum = 38
Slowest packet = 220108
Flit latency average = 19.5317
	minimum = 7
	maximum = 38
Slowest flit = 220108
Fragmentation average = 0
	minimum = 0
	maximum = 0
Injected packet rate average = 0.0197917
	minimum = 0.016 (at node 6)
	maximum = 0.0233333 (at node 5)
Accepted packet rate average = 0.0197083
	minimum = 0.0153333 (at node 9)
	maximum = 0.0233333 (at node 5)
Injected flit rate average = 0.0197917
	minimum = 0.016 (at node 6)
	maximum = 0.0233333 (at node 5)
Accepted flit rate average= 0.0197083
	minimum = 0.0153333 (at node 9)
	maximum = 0.0233333 (at node 5)
Injected packet length average = 1
Accepted packet length average = 1
Total in-flight flits = 7 (7 measured)
latency change    = 0.0271873
throughput change = 0.0089852
Class 0:
Packet latency average = 19.3844
	minimum = 7
	maximum = 40
Network latency average = 19.3844
	minimum = 7
	maximum = 40
Slowest packet = 220901
Flit latency average = 19.411
	minimum = 7
	maximum = 40
Slowest flit = 220901
Fragmentation average = 0
	minimum = 0
	maximum = 0
Injected packet rate average = 0.0199688
	minimum = 0.016 (at node 6)
	maximum = 0.02375 (at node 5)
Accepted packet rate average = 0.0199219
	minimum = 0.016 (at node 9)
	maximum = 0.02375 (at node 5)
Injected flit rate average = 0.0199688
	minimum = 0.016 (at node 6)
	maximum = 0.02375 (at node 5)
Accepted flit rate average= 0.0199219
	minimum = 0.016 (at node 9)
	maximum = 0.02375 (at node 5)
Injected packet length average = 1
Accepted packet length average = 1
Total in-flight flits = 6 (6 measured)
latency change    = 0.00577032
throughput change = 0.010719
Draining all recorded packets ...
Draining remaining packets ...
Time taken is 7057 cycles
Class 0:
Packet latency average = 19.5346
	minimum = 7
	maximum = 38
Network latency average = 19.5346
	minimum = 7
	maximum = 38
Slowest packet = 221178
Flit latency average = 19.5346
	minimum = 7
	maximum = 38
Slowest flit = 221178
Fragmentation average = 0
	minimum = 0
	maximum = 0
Injected packet rate average = 0.020375
	minimum = 0.01 (at node 12)
	maximum = 0.03 (at node 9)
Accepted packet rate average = 0.019875
	minimum = 0.01 (at node 3)
	maximum = 0.029 (at node 6)
Injected flit rate average = 0.020375
	minimum = 0.01 (at node 12)
	maximum = 0.03 (at node 9)
Accepted flit rate average= 0.019875
	minimum = 0.01 (at node 3)
	maximum = 0.029 (at node 6)
Injected packet length average = 1
Accepted packet length average = 1
Total in-flight flits = 8 (0 measured)
latency change    = 1
throughput change = 1
Class 0:
Packet latency average = 19.7145
	minimum = 7
	maximum = 38
Network latency average = 19.7145
	minimum = 7
	maximum = 38
Slowest packet = 221178
Flit latency average = 19.7145
	minimum = 7
	maximum = 38
Slowest flit = 221178
Fragmentation average = 0
	minimum = 0
	maximum = 0
Injected packet rate average = 0.019875
	minimum = 0.015 (at node 12)
	maximum = 0.025 (at node 3)
Accepted packet rate average = 0.0198125
	minimum = 0.015 (at node 3)
	maximum = 0.025 (at node 12)
Injected flit rate average = 0.019875
	minimum = 0.015 (at node 12)
	maximum = 0.025 (at node 3)
Accepted flit rate average= 0.0198125
	minimum = 0.015 (at node 3)
	maximum = 0.025 (at node 12)
Injected packet length average = 1
Accepted packet length average = 1
Total in-flight flits = 2 (0 measured)
latency change    = 0.00912626
throughput change = 0.00315457
Class 0:
Packet latency average = 20.1156
	minimum = 7
	maximum = 38
Network latency average = 20.1156
	minimum = 7
	maximum = 38
Slowest packet = 221884
Flit latency average = 20.1156
	minimum = 7
	maximum = 38
Slowest flit = 221884
Fragmentation average = 0
	minimum = 0
	maximum = 0
Injected packet rate average = 0.01875
	minimum = 0.01 (at node 11)
	maximum = 0.027 (at node 12)
Accepted packet rate average = 0.018375
	minimum = 0.008 (at node 14)
	maximum = 0.026 (at node 3)
Injected flit rate average = 0.01875
	minimum = 0.01 (at node 11)
	maximum = 0.027 (at node 12)
Accepted flit rate average= 0.018375
	minimum = 0.008 (at node 14)
	maximum = 0.026 (at node 3)
Injected packet length average = 1
Accepted packet length average = 1
Total in-flight flits = 8 (0 measured)
latency change    = 0.0199415
throughput change = 0.0782313
Warmed up ...Time used is 3000 cycles
Class 0:
Packet latency average = 19.1378
	minimum = 7
	maximum = 37
Network latency average = 19.1378
	minimum = 7
	maximum = 37
Slowest packet = 221989
Flit latency average = 19.2165
	minimum = 7
	maximum = 37
Slowest flit = 221983
Fragmentation average = 0
	minimum = 0
	maximum = 0
Injected packet rate average = 0.018125
	minimum = 0.008 (at node 6)
	maximum = 0.025 (at node 5)
Accepted packet rate average = 0.0181875
	minimum = 0.009 (at node 9)
	maximum = 0.025 (at node 5)
Injected flit rate average = 0.018125
	minimum = 0.008 (at node 6)
	maximum = 0.025 (at node 5)
Accepted flit rate average= 0.0181875
	minimum = 0.009 (at node 9)
	maximum = 0.025 (at node 5)
Injected packet length average = 1
Accepted packet length average = 1
Total in-flight flits = 7 (7 measured)
latency change    = 0.0510945
throughput change = 0.0103093
Class 0:
Packet latency average = 19.0116
	minimum = 7
	maximum = 38
Network latency average = 19.0116
	minimum = 7
	maximum = 38
Slowest packet = 222550
Flit latency average = 19.0508
	minimum = 7
	maximum = 38
Slowest flit = 222550
Fragmentation average = 0
	minimum = 0
	maximum = 0
Injected packet rate average = 0.019
	minimum = 0.0145 (at node 6)
	maximum = 0.025 (at node 15)
Accepted packet rate average = 0.0190625
	minimum = 0.0145 (at node 9)
	maximum = 0.025 (at node 15)
Injected flit rate average = 0.019
	minimum = 0.0145 (at node 6)
	maximum = 0.025 (at node 15)
Accepted flit rate average= 0.0190625
	minimum = 0.0145 (at node 9)
	maximum = 0.025 (at node 15)
Injected packet length average = 1
Accepted packet length average = 1
Total in-flight flits = 6 (6 measured)
latency change    = 0.00663706
throughput change = 0.0459016
Class 0:
Packet latency average = 19.287
	minimum = 7
	maximum = 38
Network latency average = 19.287
	minimum = 7
	maximum = 38
Slowest packet = 222550
Flit latency average = 19.3107
	minimum = 7
	maximum = 38
Slowest flit = 222550
Fragmentation average = 0
	minimum = 0
	maximum = 0
Injected packet rate average = 0.0189375
	minimum = 0.0163333 (at node 11)
	maximum = 0.0223333 (at node 9)
Accepted packet rate average = 0.0190417
	minimum = 0.0166667 (at node 7)
	maximum = 0.0226667 (at node 6)
Injected flit rate average = 0.0189375
	minimum = 0.0163333 (at node 11)
	maximum = 0.0223333 (at node 9)
Accepted flit rate average= 0.0190417
	minimum = 0.0166667 (at node 7)
	maximum = 0.0226667 (at node 6)
Injected packet length average = 1
Accepted packet length average = 1
Total in-flight flits = 3 (3 measured)
latency change    = 0.0142764
throughput change = 0.00109409
Class 0:
Packet latency average = 19.3799
	minimum = 7
	maximum = 38
Network latency average = 19.3799
	minimum = 7
	maximum = 38
Slowest packet = 222550
Flit latency average = 19.3971
	minimum = 7
	maximum = 38
Slowest flit = 222550
Fragmentation average = 0
	minimum = 0
	maximum = 0
Injected packet rate average = 0.0191562
	minimum = 0.01625 (at node 11)
	maximum = 0.0215 (at node 9)
Accepted packet rate average = 0.019125
	minimum = 0.01675 (at node 14)
	maximum = 0.02175 (at node 6)
Injected flit rate average = 0.0191562
	minimum = 0.01625 (at node 11)
	maximum = 0.0215 (at node 9)
Accepted flit rate average= 0.019125
	minimum = 0.01675 (at node 14)
	maximum = 0.02175 (at node 6)
Injected packet length average = 1
Accepted packet length average = 1
Total in-flight flits = 10 (10 measured)
latency change    = 0.00479664
throughput change = 0.0043573
Draining all recorded packets ...
Draining remaining packets ...
Time taken is 7061 cycles
Class 0:
Packet latency average = 19.0268
	minimum = 7
	maximum = 38
Network latency average = 19.0268
	minimum = 7
	maximum = 38
Slowest packet = 223306
Flit latency average = 19.0268
	minimum = 7
	maximum = 38
Slowest flit = 223306
Fragmentation average = 0
	minimum = 0
	maximum = 0
Injected packet rate average = 0.018875
	minimum = 0.011 (at node 13)
	maximum = 0.026 (at node 0)
Accepted packet rate average = 0.018625
	minimum = 0.011 (at node 7)
	maximum = 0.026 (at node 0)
Injected flit rate average = 0.018875
	minimum = 0.011 (at node 13)
	maximum = 0.026 (at node 0)
Accepted flit rate average= 0.018625
	minimum = 0.011 (at node 7)
	maximum = 0.026 (at node 0)
Injected packet length average = 1
Accepted packet length average = 1
Total in-flight flits = 4 (0 measured)
latency change    = 1
throughput change = 1
Class 0:
Packet latency average = 19.0217
	minimum = 7
	maximum = 38
Network latency average = 19.0217
	minimum = 7
	maximum = 38
Slowest packet = 223306
Flit latency average = 19.0217
	minimum = 7
	maximum = 38
Slowest flit = 223306
Fragmentation average = 0
	minimum = 0
	maximum = 0
Injected packet rate average = 0.0190312
	minimum = 0.011 (at node 13)
	maximum = 0.0245 (at node 0)
Accepted packet rate average = 0.0187187
	minimum = 0.01 (at node 7)
	maximum = 0.0245 (at node 0)
Injected flit rate average = 0.0190312
	minimum = 0.011 (at node 13)
	maximum = 0.0245 (at node 0)
Accepted flit rate average= 0.0187187
	minimum = 0.01 (at node 7)
	maximum = 0.0245 (at node 0)
Injected packet length average = 1
Accepted packet length average = 1
Total in-flight flits = 10 (0 measured)
latency change    = 0.000270365
throughput change = 0.00500835
Class 0:
Packet latency average = 20.1893
	minimum = 7
	maximum = 37
Network latency average = 20.1893
	minimum = 7
	maximum = 37
Slowest packet = 223817
Flit latency average = 20.1893
	minimum = 7
	maximum = 37
Slowest flit = 223817
Fragmentation average = 0
	minimum = 0
	maximum = 0
Injected packet rate average = 0.0196875
	minimum = 0.012 (at node 2)
	maximum = 0.028 (at node 3)
Accepted packet rate average = 0.0198125
	minimum = 0.014 (at node 0)
	maximum = 0.029 (at node 12)
Injected flit rate average = 0.0196875
	minimum = 0.012 (at node 2)
	maximum = 0.028 (at node 3)
Accepted flit rate average= 0.0198125
	minimum = 0.014 (at node 0)
	maximum = 0.029 (at node 12)
Injected packet length average = 1
Accepted packet length average = 1
Total in-flight flits = 8 (0 measured)
latency change    = 0.0578313
throughput change = 0.055205
Warmed up ...Time used is 3000 cycles
Class 0:
Packet latency average = 20.0625
	minimum = 7
	maximum = 38
Network latency average = 20.0625
	minimum = 7
	maximum = 38
Slowest packet = 224345
Flit latency average = 20.3686
	minimum = 7
	maximum = 38
Slowest flit = 224345
Fragmentation average = 0
	minimum = 0
	maximum = 0
Injected packet rate average = 0.0193125
	minimum = 0.014 (at node 10)
	maximum = 0.025 (at node 1)
Accepted packet rate average = 0.0195
	minimum = 0.014 (at node 10)
	maximum = 0.024 (at node 2)
Injected flit rate average = 0.0193125
	minimum = 0.014 (at node 10)
	maximum = 0.025 (at node 1)
Accepted flit rate average= 0.0195
	minimum = 0.014 (at node 10)
	maximum = 0.024 (at node 2)
Injected packet length average = 1
Accepted packet length average = 1
Total in-flight flits = 5 (5 measured)
latency change    = 0.00631898
throughput change = 0.0160256
Class 0:
Packet latency average = 19.3683
	minimum = 7
	maximum = 38
Network latency average = 19.3683
	minimum = 7
	maximum = 38
Slowest packet = 224345
Flit latency average = 19.5266
	minimum = 7
	maximum = 38
Slowest flit = 224345
Fragmentation average = 0
	minimum = 0
	maximum = 0
Injected packet rate average = 0.0198125
	minimum = 0.016 (at node 2)
	maximum = 0.023 (at node 5)
Accepted packet rate average = 0.0199375
	minimum = 0.016 (at node 8)
	maximum = 0.023 (at node 13)
Injected flit rate average = 0.0198125
	minimum = 0.016 (at node 2)
	maximum = 0.023 (at node 5)
Accepted flit rate average= 0.0199375
	minimum = 0.016 (at node 8)
	maximum = 0.023 (at node 13)
Injected packet length average = 1
Accepted packet length average = 1
Total in-flight flits = 4 (4 measured)
latency change    = 0.0358445
throughput change = 0.0219436
Class 0:
Packet latency average = 19.2573
	minimum = 7
	maximum = 38
Network latency average = 19.2573
	minimum = 7
	maximum = 38
Slowest packet = 224345
Flit latency average = 19.3661
	minimum = 7
	maximum = 38
Slowest flit = 224345
Fragmentation average = 0
	minimum = 0
	maximum = 0
Injected packet rate average = 0.0194167
	minimum = 0.0156667 (at node 3)
	maximum = 0.024 (at node 5)
Accepted packet rate average = 0.0195208
	minimum = 0.016 (at node 10)
	maximum = 0.024 (at node 1)
Injected flit rate average = 0.0194167
	minimum = 0.0156667 (at node 3)
	maximum = 0.024 (at node 5)
Accepted flit rate average= 0.0195208
	minimum = 0.016 (at node 10)
	maximum = 0.024 (at node 1)
Injected packet length average = 1
Accepted packet length average = 1
Total in-flight flits = 3 (3 measured)
latency change    = 0.00576344
throughput change = 0.0213447
Draining all recorded packets ...
Draining remaining packets ...
Time taken is 6045 cycles
Class 0:
Packet latency average = 19.2355
	minimum = 7
	maximum = 38
Network latency average = 19.2355
	minimum = 7
	maximum = 38
Slowest packet = 225106
Flit latency average = 19.2355
	minimum = 7
	maximum = 38
Slowest flit = 225106
Fragmentation average = 0
	minimum = 0
	maximum = 0
Injected packet rate average = 0.0185625
	minimum = 0.009 (at node 13)
	maximum = 0.03 (at node 6)
Accepted packet rate average = 0.0183125
	minimum = 0.008 (at node 7)
	maximum = 0.03 (at node 9)
Injected flit rate average = 0.0185625
	minimum = 0.009 (at node 13)
	maximum = 0.03 (at node 6)
Accepted flit rate average= 0.0183125
	minimum = 0.008 (at node 7)
	maximum = 0.03 (at node 9)
Injected packet length average = 1
Accepted packet length average = 1
Total in-flight flits = 4 (0 measured)
latency change    = 1
throughput change = 1
Class 0:
Packet latency average = 19.2026
	minimum = 7
	maximum = 38
Network latency average = 19.2026
	minimum = 7
	maximum = 38
Slowest packet = 225106
Flit latency average = 19.2026
	minimum = 7
	maximum = 38
Slowest flit = 225106
Fragmentation average = 0
	minimum = 0
	maximum = 0
Injected packet rate average = 0.0194375
	minimum = 0.015 (at node 8)
	maximum = 0.028 (at node 5)
Accepted packet rate average = 0.0192812
	minimum = 0.015 (at node 2)
	maximum = 0.028 (at node 5)
Injected flit rate average = 0.0194375
	minimum = 0.015 (at node 8)
	maximum = 0.028 (at node 5)
Accepted flit rate average= 0.0192812
	minimum = 0.015 (at node 2)
	maximum = 0.028 (at node 5)
Injected packet length average = 1
Accepted packet length average = 1
Total in-flight flits = 5 (0 measured)
latency change    = 0.0017134
throughput change = 0.0502431
Class 0:
Packet latency average = 20.2169
	minimum = 7
	maximum = 40
Network latency average = 20.2169
	minimum = 7
	maximum = 40
Slowest packet = 225743
Flit latency average = 20.2169
	minimum = 7
	maximum = 40
Slowest flit = 225743
Fragmentation average = 0
	minimum = 0
	maximum = 0
Injected packet rate average = 0.0208125
	minimum = 0.012 (at node 15)
	maximum = 0.034 (at node 8)
Accepted packet rate average = 0.02075
	minimum = 0.012 (at node 15)
	maximum = 0.032 (at node 2)
Injected flit rate average = 0.0208125
	minimum = 0.012 (at node 15)
	maximum = 0.034 (at node 8)
Accepted flit rate average= 0.02075
	minimum = 0.012 (at node 15)
	maximum = 0.032 (at node 2)
Injected packet length average = 1
Accepted packet length average = 1
Total in-flight flits = 6 (0 measured)
latency change    = 0.0501697
throughput change = 0.0707831
Warmed up ...Time used is 3000 cycles
Class 0:
Packet latency average = 20.538
	minimum = 7
	maximum = 37
Network latency average = 20.535
	minimum = 7
	maximum = 37
Slowest packet = 226043
Flit latency average = 20.7403
	minimum = 7
	maximum = 37
Slowest flit = 226028
Fragmentation average = 0
	minimum = 0
	maximum = 0
Injected packet rate average = 0.021
	minimum = 0.015 (at node 14)
	maximum = 0.032 (at node 7)
Accepted packet rate average = 0.0209375
	minimum = 0.015 (at node 11)
	maximum = 0.032 (at node 13)
Injected flit rate average = 0.021
	minimum = 0.015 (at node 14)
	maximum = 0.032 (at node 7)
Accepted flit rate average= 0.0209375
	minimum = 0.015 (at node 11)
	maximum = 0.032 (at node 13)
Injected packet length average = 1
Accepted packet length average = 1
Total in-flight flits = 7 (7 measured)
latency change    = 0.0156357
throughput change = 0.00895522
Class 0:
Packet latency average = 20.347
	minimum = 7
	maximum = 40
Network latency average = 20.3454
	minimum = 7
	maximum = 40
Slowest packet = 226644
Flit latency average = 20.4547
	minimum = 7
	maximum = 40
Slowest flit = 226644
Fragmentation average = 0
	minimum = 0
	maximum = 0
Injected packet rate average = 0.02
	minimum = 0.0155 (at node 15)
	maximum = 0.0275 (at node 7)
Accepted packet rate average = 0.02
	minimum = 0.0155 (at node 15)
	maximum = 0.0275 (at node 13)
Injected flit rate average = 0.02
	minimum = 0.0155 (at node 15)
	maximum = 0.0275 (at node 7)
Accepted flit rate average= 0.02
	minimum = 0.0155 (at node 15)
	maximum = 0.0275 (at node 13)
Injected packet length average = 1
Accepted packet length average = 1
Total in-flight flits = 6 (6 measured)
latency change    = 0.00938668
throughput change = 0.046875
Class 0:
Packet latency average = 20.0842
	minimum = 7
	maximum = 42
Network latency average = 20.0832
	minimum = 7
	maximum = 42
Slowest packet = 226901
Flit latency average = 20.1552
	minimum = 7
	maximum = 42
Slowest flit = 226901
Fragmentation average = 0
	minimum = 0
	maximum = 0
Injected packet rate average = 0.0206042
	minimum = 0.0173333 (at node 1)
	maximum = 0.028 (at node 7)
Accepted packet rate average = 0.0206667
	minimum = 0.0173333 (at node 4)
	maximum = 0.028 (at node 13)
Injected flit rate average = 0.0206042
	minimum = 0.0173333 (at node 1)
	maximum = 0.028 (at node 7)
Accepted flit rate average= 0.0206667
	minimum = 0.0173333 (at node 4)
	maximum = 0.028 (at node 13)
Injected packet length average = 1
Accepted packet length average = 1
Total in-flight flits = 3 (3 measured)
latency change    = 0.0130862
throughput change = 0.0322581
Draining all recorded packets ...
Draining remaining packets ...
Time taken is 6045 cycles
====== Overall Traffic Statistics ======
====== Traffic class 0 ======
Packet latency average = 19.5296 (100 samples)
	minimum = 7 (100 samples)
	maximum = 39 (100 samples)
Network latency average = 19.5296 (100 samples)
	minimum = 7 (100 samples)
	maximum = 39 (100 samples)
Flit latency average = 19.5518 (100 samples)
	minimum = 7 (100 samples)
	maximum = 39 (100 samples)
Fragmentation average = 0 (100 samples)
	minimum = 0 (100 samples)
	maximum = 0 (100 samples)
Injected packet rate average = 0.0199626 (100 samples)
	minimum = 0.016207 (100 samples)
	maximum = 0.0241703 (100 samples)
Accepted packet rate average = 0.0199629 (100 samples)
	minimum = 0.0162292 (100 samples)
	maximum = 0.0241473 (100 samples)
Injected flit rate average = 0.0199626 (100 samples)
	minimum = 0.016207 (100 samples)
	maximum = 0.0241703 (100 samples)
Accepted flit rate average = 0.0199629 (100 samples)
	minimum = 0.0162292 (100 samples)
	maximum = 0.0241473 (100 samples)
Injected packet size average = 1 (100 samples)
Accepted packet size average = 1 (100 samples)
Hops average = 3.50232 (100 samples)
Total run time 5.43634
