BEGIN Configuration File: /tmp/tmpvfwha2x0.cfg
topology = mesh;
k = 4;
n = 2;
routing_function = gnn_port_score_route_4x4;
num_vcs = 4;
vc_buf_size = 4;
wait_for_tail_credit = 1;
vc_allocator = islip;
sw_allocator = islip;
alloc_iters = 1;
credit_delay = 2;
routing_delay = 1;
vc_alloc_delay = 1;
sw_alloc_delay = 1;
input_speedup = 2;
output_speedup = 1;
internal_speedup = 1.0;
traffic = uniform;
packet_size = 1;
sim_type = latency;
injection_rate = 0.2;
warmup_periods = 3;
sample_period = 1000;
sim_count = 100;
seed = 0;

END Configuration File: /tmp/tmpvfwha2x0.cfg
WARNING: Possible network deadlock.
WARNING: Possible network deadlock.
Class 0:
Packet latency average = 34.8661
	minimum = 7
	maximum = 122
Network latency average = 32.5417
	minimum = 7
	maximum = 122
Slowest packet = 106
Flit latency average = 32.5417
	minimum = 7
	maximum = 122
Slowest flit = 106
Fragmentation average = 0
	minimum = 0
	maximum = 0
Injected packet rate average = 0.0296875
	minimum = 0.016 (at node 11)
	maximum = 0.038 (at node 4)
Accepted packet rate average = 0.021
	minimum = 0.013 (at node 11)
	maximum = 0.033 (at node 2)
Injected flit rate average = 0.0296875
	minimum = 0.016 (at node 11)
	maximum = 0.038 (at node 4)
Accepted flit rate average= 0.021
	minimum = 0.013 (at node 11)
	maximum = 0.033 (at node 2)
Injected packet length average = 1
Accepted packet length average = 1
Total in-flight flits = 155 (0 measured)
latency change    = 1
throughput change = 1
WARNING: Possible network deadlock.
WARNING: Possible network deadlock.
WARNING: Possible network deadlock.
WARNING: Possible network deadlock.
Class 0:
Packet latency average = 34.8661
	minimum = 7
	maximum = 122
Network latency average = 32.5417
	minimum = 7
	maximum = 122
Slowest packet = 106
Flit latency average = 32.5417
	minimum = 7
	maximum = 122
Slowest flit = 106
Fragmentation average = 0
	minimum = 0
	maximum = 0
Injected packet rate average = 0.0148437
	minimum = 0.008 (at node 11)
	maximum = 0.019 (at node 4)
Accepted packet rate average = 0.0105
	minimum = 0.0065 (at node 11)
	maximum = 0.0165 (at node 2)
Injected flit rate average = 0.0148437
	minimum = 0.008 (at node 11)
	maximum = 0.019 (at node 4)
Accepted flit rate average= 0.0105
	minimum = 0.0065 (at node 11)
	maximum = 0.0165 (at node 2)
Injected packet length average = 1
Accepted packet length average = 1
Total in-flight flits = 155 (0 measured)
latency change    = 0
throughput change = 1
Average latency for class 0 exceeded 500 cycles. Aborting simulation.
Too many sample periods needed to converge
Simulation unstable, ending ...
Total run time 0.157183
