BEGIN Configuration File: /tmp/tmp1j0n7zah.cfg
topology = mesh;
k = 4;
n = 2;
routing_function = planar_adapt;
num_vcs = 4;
vc_buf_size = 4;
wait_for_tail_credit = 1;
vc_allocator = islip;
sw_allocator = islip;
alloc_iters = 1;
credit_delay = 2;
routing_delay = 1;
vc_alloc_delay = 1;
sw_alloc_delay = 1;
input_speedup = 2;
output_speedup = 1;
internal_speedup = 1.0;
traffic = uniform;
packet_size = 1;
sim_type = latency;
injection_rate = 0.05;
warmup_periods = 3;
sample_period = 1000;
sim_count = 100;
seed = 2;

END Configuration File: /tmp/tmp1j0n7zah.cfg
Class 0:
Packet latency average = 20.6554
	minimum = 7
	maximum = 44
Network latency average = 20.6554
	minimum = 7
	maximum = 44
Slowest packet = 32
Flit latency average = 20.6554
	minimum = 7
	maximum = 44
Slowest flit = 32
Fragmentation average = 0
	minimum = 0
	maximum = 0
Injected packet rate average = 0.04975
	minimum = 0.035 (at node 8)
	maximum = 0.064 (at node 10)
Accepted packet rate average = 0.04825
	minimum = 0.038 (at node 2)
	maximum = 0.059 (at node 10)
Injected flit rate average = 0.04975
	minimum = 0.035 (at node 8)
	maximum = 0.064 (at node 10)
Accepted flit rate average= 0.04825
	minimum = 0.038 (at node 2)
	maximum = 0.059 (at node 10)
Injected packet length average = 1
Accepted packet length average = 1
Total in-flight flits = 24 (0 measured)
latency change    = 1
throughput change = 1
Class 0:
Packet latency average = 20.4793
	minimum = 7
	maximum = 48
Network latency average = 20.4793
	minimum = 7
	maximum = 48
Slowest packet = 1388
Flit latency average = 20.4793
	minimum = 7
	maximum = 48
Slowest flit = 1388
Fragmentation average = 0
	minimum = 0
	maximum = 0
Injected packet rate average = 0.0495
	minimum = 0.039 (at node 1)
	maximum = 0.067 (at node 10)
Accepted packet rate average = 0.0490312
	minimum = 0.0395 (at node 4)
	maximum = 0.057 (at node 10)
Injected flit rate average = 0.0495
	minimum = 0.039 (at node 1)
	maximum = 0.067 (at node 10)
Accepted flit rate average= 0.0490312
	minimum = 0.0395 (at node 4)
	maximum = 0.057 (at node 10)
Injected packet length average = 1
Accepted packet length average = 1
Total in-flight flits = 15 (0 measured)
latency change    = 0.00860158
throughput change = 0.0159337
Class 0:
Packet latency average = 20.0805
	minimum = 7
	maximum = 46
Network latency average = 20.0805
	minimum = 7
	maximum = 46
Slowest packet = 1722
Flit latency average = 20.0805
	minimum = 7
	maximum = 46
Slowest flit = 1722
Fragmentation average = 0
	minimum = 0
	maximum = 0
Injected packet rate average = 0.0475625
	minimum = 0.04 (at node 6)
	maximum = 0.059 (at node 10)
Accepted packet rate average = 0.047375
	minimum = 0.038 (at node 12)
	maximum = 0.06 (at node 15)
Injected flit rate average = 0.0475625
	minimum = 0.04 (at node 6)
	maximum = 0.059 (at node 10)
Accepted flit rate average= 0.047375
	minimum = 0.038 (at node 12)
	maximum = 0.06 (at node 15)
Injected packet length average = 1
Accepted packet length average = 1
Total in-flight flits = 18 (0 measured)
latency change    = 0.0198606
throughput change = 0.0349604
Warmed up ...Time used is 3000 cycles
Class 0:
Packet latency average = 19.7628
	minimum = 7
	maximum = 44
Network latency average = 19.7628
	minimum = 7
	maximum = 44
Slowest packet = 2633
Flit latency average = 19.8653
	minimum = 7
	maximum = 44
Slowest flit = 2633
Fragmentation average = 0
	minimum = 0
	maximum = 0
Injected packet rate average = 0.053625
	minimum = 0.037 (at node 1)
	maximum = 0.066 (at node 12)
Accepted packet rate average = 0.0538125
	minimum = 0.042 (at node 9)
	maximum = 0.063 (at node 11)
Injected flit rate average = 0.053625
	minimum = 0.037 (at node 1)
	maximum = 0.066 (at node 12)
Accepted flit rate average= 0.0538125
	minimum = 0.042 (at node 9)
	maximum = 0.063 (at node 11)
Injected packet length average = 1
Accepted packet length average = 1
Total in-flight flits = 15 (15 measured)
latency change    = 0.0160769
throughput change = 0.119628
Class 0:
Packet latency average = 20.0597
	minimum = 7
	maximum = 46
Network latency average = 20.0597
	minimum = 7
	maximum = 46
Slowest packet = 3452
Flit latency average = 20.1092
	minimum = 7
	maximum = 46
Slowest flit = 3452
Fragmentation average = 0
	minimum = 0
	maximum = 0
Injected packet rate average = 0.0524688
	minimum = 0.0415 (at node 1)
	maximum = 0.0585 (at node 12)
Accepted packet rate average = 0.052375
	minimum = 0.0415 (at node 9)
	maximum = 0.0615 (at node 0)
Injected flit rate average = 0.0524688
	minimum = 0.0415 (at node 1)
	maximum = 0.0585 (at node 12)
Accepted flit rate average= 0.052375
	minimum = 0.0415 (at node 9)
	maximum = 0.0615 (at node 0)
Injected packet length average = 1
Accepted packet length average = 1
Total in-flight flits = 21 (21 measured)
latency change    = 0.0148037
throughput change = 0.0274463
Class 0:
Packet latency average = 19.9679
	minimum = 7
	maximum = 52
Network latency average = 19.9679
	minimum = 7
	maximum = 52
Slowest packet = 4291
Flit latency average = 20.0016
	minimum = 7
	maximum = 52
Slowest flit = 4291
Fragmentation average = 0
	minimum = 0
	maximum = 0
Injected packet rate average = 0.0521042
	minimum = 0.0456667 (at node 2)
	maximum = 0.0576667 (at node 10)
Accepted packet rate average = 0.05225
	minimum = 0.0453333 (at node 14)
	maximum = 0.066 (at node 0)
Injected flit rate average = 0.0521042
	minimum = 0.0456667 (at node 2)
	maximum = 0.0576667 (at node 10)
Accepted flit rate average= 0.05225
	minimum = 0.0453333 (at node 14)
	maximum = 0.066 (at node 0)
Injected packet length average = 1
Accepted packet length average = 1
Total in-flight flits = 11 (11 measured)
latency change    = 0.00459934
throughput change = 0.00239234
Class 0:
Packet latency average = 19.8856
	minimum = 7
	maximum = 52
Network latency average = 19.8844
	minimum = 7
	maximum = 52
Slowest packet = 4291
Flit latency average = 19.9104
	minimum = 7
	maximum = 52
Slowest flit = 4291
Fragmentation average = 0
	minimum = 0
	maximum = 0
Injected packet rate average = 0.0516719
	minimum = 0.046 (at node 2)
	maximum = 0.0545 (at node 7)
Accepted packet rate average = 0.051625
	minimum = 0.0445 (at node 14)
	maximum = 0.062 (at node 0)
Injected flit rate average = 0.0516719
	minimum = 0.046 (at node 2)
	maximum = 0.0545 (at node 7)
Accepted flit rate average= 0.051625
	minimum = 0.0445 (at node 14)
	maximum = 0.062 (at node 0)
Injected packet length average = 1
Accepted packet length average = 1
Total in-flight flits = 21 (21 measured)
latency change    = 0.00413849
throughput change = 0.0121065
Draining all recorded packets ...
Draining remaining packets ...
Time taken is 7077 cycles
Class 0:
Packet latency average = 20.356
	minimum = 7
	maximum = 47
Network latency average = 20.356
	minimum = 7
	maximum = 47
Slowest packet = 5895
Flit latency average = 20.356
	minimum = 7
	maximum = 47
Slowest flit = 5895
Fragmentation average = 0
	minimum = 0
	maximum = 0
Injected packet rate average = 0.0498125
	minimum = 0.033 (at node 9)
	maximum = 0.058 (at node 4)
Accepted packet rate average = 0.0488125
	minimum = 0.043 (at node 6)
	maximum = 0.058 (at node 10)
Injected flit rate average = 0.0498125
	minimum = 0.033 (at node 9)
	maximum = 0.058 (at node 4)
Accepted flit rate average= 0.0488125
	minimum = 0.043 (at node 6)
	maximum = 0.058 (at node 10)
Injected packet length average = 1
Accepted packet length average = 1
Total in-flight flits = 16 (0 measured)
latency change    = 1
throughput change = 1
Class 0:
Packet latency average = 20.6879
	minimum = 7
	maximum = 51
Network latency average = 20.6879
	minimum = 7
	maximum = 51
Slowest packet = 6766
Flit latency average = 20.6879
	minimum = 7
	maximum = 51
Slowest flit = 6766
Fragmentation average = 0
	minimum = 0
	maximum = 0
Injected packet rate average = 0.0500312
	minimum = 0.0365 (at node 9)
	maximum = 0.0615 (at node 15)
Accepted packet rate average = 0.0495625
	minimum = 0.042 (at node 6)
	maximum = 0.0575 (at node 4)
Injected flit rate average = 0.0500312
	minimum = 0.0365 (at node 9)
	maximum = 0.0615 (at node 15)
Accepted flit rate average= 0.0495625
	minimum = 0.042 (at node 6)
	maximum = 0.0575 (at node 4)
Injected packet length average = 1
Accepted packet length average = 1
Total in-flight flits = 15 (0 measured)
latency change    = 0.0160451
throughput change = 0.0151324
Class 0:
Packet latency average = 19.9328
	minimum = 7
	maximum = 45
Network latency average = 19.9328
	minimum = 7
	maximum = 45
Slowest packet = 7780
Flit latency average = 19.9328
	minimum = 7
	maximum = 45
Slowest flit = 7780
Fragmentation average = 0
	minimum = 0
	maximum = 0
Injected packet rate average = 0.05
	minimum = 0.04 (at node 1)
	maximum = 0.061 (at node 0)
Accepted packet rate average = 0.05025
	minimum = 0.039 (at node 4)
	maximum = 0.067 (at node 10)
Injected flit rate average = 0.05
	minimum = 0.04 (at node 1)
	maximum = 0.061 (at node 0)
Accepted flit rate average= 0.05025
	minimum = 0.039 (at node 4)
	maximum = 0.067 (at node 10)
Injected packet length average = 1
Accepted packet length average = 1
Total in-flight flits = 11 (0 measured)
latency change    = 0.0378801
throughput change = 0.0136816
Warmed up ...Time used is 3000 cycles
Class 0:
Packet latency average = 19.5884
	minimum = 7
	maximum = 46
Network latency average = 19.5884
	minimum = 7
	maximum = 46
Slowest packet = 8130
Flit latency average = 19.687
	minimum = 7
	maximum = 46
Slowest flit = 8130
Fragmentation average = 0
	minimum = 0
	maximum = 0
Injected packet rate average = 0.0528125
	minimum = 0.041 (at node 5)
	maximum = 0.064 (at node 10)
Accepted packet rate average = 0.0523125
	minimum = 0.038 (at node 2)
	maximum = 0.062 (at node 4)
Injected flit rate average = 0.0528125
	minimum = 0.041 (at node 5)
	maximum = 0.064 (at node 10)
Accepted flit rate average= 0.0523125
	minimum = 0.038 (at node 2)
	maximum = 0.062 (at node 4)
Injected packet length average = 1
Accepted packet length average = 1
Total in-flight flits = 19 (19 measured)
latency change    = 0.0175848
throughput change = 0.0394265
Class 0:
Packet latency average = 19.795
	minimum = 7
	maximum = 46
Network latency average = 19.795
	minimum = 7
	maximum = 46
Slowest packet = 8130
Flit latency average = 19.844
	minimum = 7
	maximum = 46
Slowest flit = 8130
Fragmentation average = 0
	minimum = 0
	maximum = 0
Injected packet rate average = 0.0510938
	minimum = 0.045 (at node 5)
	maximum = 0.0565 (at node 6)
Accepted packet rate average = 0.0510938
	minimum = 0.045 (at node 0)
	maximum = 0.0605 (at node 4)
Injected flit rate average = 0.0510938
	minimum = 0.045 (at node 5)
	maximum = 0.0565 (at node 6)
Accepted flit rate average= 0.0510938
	minimum = 0.045 (at node 0)
	maximum = 0.0605 (at node 4)
Injected packet length average = 1
Accepted packet length average = 1
Total in-flight flits = 11 (11 measured)
latency change    = 0.0104356
throughput change = 0.0238532
Class 0:
Packet latency average = 19.817
	minimum = 7
	maximum = 46
Network latency average = 19.817
	minimum = 7
	maximum = 46
Slowest packet = 8130
Flit latency average = 19.8503
	minimum = 7
	maximum = 46
Slowest flit = 8130
Fragmentation average = 0
	minimum = 0
	maximum = 0
Injected packet rate average = 0.0501875
	minimum = 0.0456667 (at node 3)
	maximum = 0.0556667 (at node 15)
Accepted packet rate average = 0.0501042
	minimum = 0.042 (at node 0)
	maximum = 0.0593333 (at node 4)
Injected flit rate average = 0.0501875
	minimum = 0.0456667 (at node 3)
	maximum = 0.0556667 (at node 15)
Accepted flit rate average= 0.0501042
	minimum = 0.042 (at node 0)
	maximum = 0.0593333 (at node 4)
Injected packet length average = 1
Accepted packet length average = 1
Total in-flight flits = 15 (15 measured)
latency change    = 0.00111479
throughput change = 0.0197505
Draining all recorded packets ...
Draining remaining packets ...
Time taken is 6057 cycles
Class 0:
Packet latency average = 19.8186
	minimum = 7
	maximum = 45
Network latency average = 19.8186
	minimum = 7
	maximum = 45
Slowest packet = 10651
Flit latency average = 19.8186
	minimum = 7
	maximum = 45
Slowest flit = 10651
Fragmentation average = 0
	minimum = 0
	maximum = 0
Injected packet rate average = 0.0495
	minimum = 0.038 (at node 0)
	maximum = 0.062 (at node 6)
Accepted packet rate average = 0.0489375
	minimum = 0.034 (at node 7)
	maximum = 0.059 (at node 2)
Injected flit rate average = 0.0495
	minimum = 0.038 (at node 0)
	maximum = 0.062 (at node 6)
Accepted flit rate average= 0.0489375
	minimum = 0.034 (at node 7)
	maximum = 0.059 (at node 2)
Injected packet length average = 1
Accepted packet length average = 1
Total in-flight flits = 9 (0 measured)
latency change    = 1
throughput change = 1
Class 0:
Packet latency average = 19.8303
	minimum = 7
	maximum = 45
Network latency average = 19.8303
	minimum = 7
	maximum = 45
Slowest packet = 10651
Flit latency average = 19.8303
	minimum = 7
	maximum = 45
Slowest flit = 10651
Fragmentation average = 0
	minimum = 0
	maximum = 0
Injected packet rate average = 0.04975
	minimum = 0.0445 (at node 0)
	maximum = 0.058 (at node 11)
Accepted packet rate average = 0.0491562
	minimum = 0.039 (at node 7)
	maximum = 0.055 (at node 9)
Injected flit rate average = 0.04975
	minimum = 0.0445 (at node 0)
	maximum = 0.058 (at node 11)
Accepted flit rate average= 0.0491562
	minimum = 0.039 (at node 7)
	maximum = 0.055 (at node 9)
Injected packet length average = 1
Accepted packet length average = 1
Total in-flight flits = 19 (0 measured)
latency change    = 0.000585692
throughput change = 0.0044501
Class 0:
Packet latency average = 19.8934
	minimum = 7
	maximum = 44
Network latency average = 19.8934
	minimum = 7
	maximum = 44
Slowest packet = 12080
Flit latency average = 19.8934
	minimum = 7
	maximum = 44
Slowest flit = 12080
Fragmentation average = 0
	minimum = 0
	maximum = 0
Injected packet rate average = 0.053
	minimum = 0.039 (at node 13)
	maximum = 0.063 (at node 1)
Accepted packet rate average = 0.053375
	minimum = 0.039 (at node 9)
	maximum = 0.067 (at node 11)
Injected flit rate average = 0.053
	minimum = 0.039 (at node 13)
	maximum = 0.063 (at node 1)
Accepted flit rate average= 0.053375
	minimum = 0.039 (at node 9)
	maximum = 0.067 (at node 11)
Injected packet length average = 1
Accepted packet length average = 1
Total in-flight flits = 13 (0 measured)
latency change    = 0.00317602
throughput change = 0.0790398
Warmed up ...Time used is 3000 cycles
Class 0:
Packet latency average = 20.2234
	minimum = 7
	maximum = 53
Network latency average = 20.2234
	minimum = 7
	maximum = 53
Slowest packet = 13363
Flit latency average = 20.254
	minimum = 7
	maximum = 53
Slowest flit = 13363
Fragmentation average = 0
	minimum = 0
	maximum = 0
Injected packet rate average = 0.047125
	minimum = 0.035 (at node 1)
	maximum = 0.066 (at node 8)
Accepted packet rate average = 0.04725
	minimum = 0.038 (at node 7)
	maximum = 0.061 (at node 14)
Injected flit rate average = 0.047125
	minimum = 0.035 (at node 1)
	maximum = 0.066 (at node 8)
Accepted flit rate average= 0.04725
	minimum = 0.038 (at node 7)
	maximum = 0.061 (at node 14)
Injected packet length average = 1
Accepted packet length average = 1
Total in-flight flits = 11 (11 measured)
latency change    = 0.0163165
throughput change = 0.12963
Class 0:
Packet latency average = 19.8543
	minimum = 7
	maximum = 53
Network latency average = 19.8543
	minimum = 7
	maximum = 53
Slowest packet = 13363
Flit latency average = 19.8719
	minimum = 7
	maximum = 53
Slowest flit = 13363
Fragmentation average = 0
	minimum = 0
	maximum = 0
Injected packet rate average = 0.0499687
	minimum = 0.0395 (at node 1)
	maximum = 0.0605 (at node 8)
Accepted packet rate average = 0.04975
	minimum = 0.0425 (at node 15)
	maximum = 0.056 (at node 11)
Injected flit rate average = 0.0499687
	minimum = 0.0395 (at node 1)
	maximum = 0.0605 (at node 8)
Accepted flit rate average= 0.04975
	minimum = 0.0425 (at node 15)
	maximum = 0.056 (at node 11)
Injected packet length average = 1
Accepted packet length average = 1
Total in-flight flits = 20 (20 measured)
latency change    = 0.0185894
throughput change = 0.0502513
Class 0:
Packet latency average = 19.8129
	minimum = 7
	maximum = 53
Network latency average = 19.8129
	minimum = 7
	maximum = 53
Slowest packet = 13363
Flit latency average = 19.825
	minimum = 7
	maximum = 53
Slowest flit = 13363
Fragmentation average = 0
	minimum = 0
	maximum = 0
Injected packet rate average = 0.0490208
	minimum = 0.0423333 (at node 3)
	maximum = 0.0553333 (at node 8)
Accepted packet rate average = 0.0489375
	minimum = 0.043 (at node 5)
	maximum = 0.0543333 (at node 14)
Injected flit rate average = 0.0490208
	minimum = 0.0423333 (at node 3)
	maximum = 0.0553333 (at node 8)
Accepted flit rate average= 0.0489375
	minimum = 0.043 (at node 5)
	maximum = 0.0543333 (at node 14)
Injected packet length average = 1
Accepted packet length average = 1
Total in-flight flits = 17 (17 measured)
latency change    = 0.00209005
throughput change = 0.0166028
Class 0:
Packet latency average = 19.9593
	minimum = 7
	maximum = 53
Network latency average = 19.9593
	minimum = 7
	maximum = 53
Slowest packet = 13363
Flit latency average = 19.9678
	minimum = 7
	maximum = 53
Slowest flit = 13363
Fragmentation average = 0
	minimum = 0
	maximum = 0
Injected packet rate average = 0.049125
	minimum = 0.0435 (at node 3)
	maximum = 0.0555 (at node 8)
Accepted packet rate average = 0.0489531
	minimum = 0.0435 (at node 9)
	maximum = 0.054 (at node 8)
Injected flit rate average = 0.049125
	minimum = 0.0435 (at node 3)
	maximum = 0.0555 (at node 8)
Accepted flit rate average= 0.0489531
	minimum = 0.0435 (at node 9)
	maximum = 0.054 (at node 8)
Injected packet length average = 1
Accepted packet length average = 1
Total in-flight flits = 24 (24 measured)
latency change    = 0.00733326
throughput change = 0.000319183
Class 0:
Packet latency average = 20.0317
	minimum = 7
	maximum = 53
Network latency average = 20.0317
	minimum = 7
	maximum = 53
Slowest packet = 13363
Flit latency average = 20.0383
	minimum = 7
	maximum = 53
Slowest flit = 13363
Fragmentation average = 0
	minimum = 0
	maximum = 0
Injected packet rate average = 0.049
	minimum = 0.0456 (at node 3)
	maximum = 0.0534 (at node 4)
Accepted packet rate average = 0.049
	minimum = 0.042 (at node 9)
	maximum = 0.0542 (at node 8)
Injected flit rate average = 0.049
	minimum = 0.0456 (at node 3)
	maximum = 0.0534 (at node 4)
Accepted flit rate average= 0.049
	minimum = 0.042 (at node 9)
	maximum = 0.0542 (at node 8)
Injected packet length average = 1
Accepted packet length average = 1
Total in-flight flits = 13 (13 measured)
latency change    = 0.00361641
throughput change = 0.000956633
Draining all recorded packets ...
Draining remaining packets ...
Time taken is 8063 cycles
Class 0:
Packet latency average = 20.3437
	minimum = 7
	maximum = 55
Network latency average = 20.3437
	minimum = 7
	maximum = 55
Slowest packet = 17025
Flit latency average = 20.3437
	minimum = 7
	maximum = 55
Slowest flit = 17025
Fragmentation average = 0
	minimum = 0
	maximum = 0
Injected packet rate average = 0.0511875
	minimum = 0.036 (at node 10)
	maximum = 0.062 (at node 4)
Accepted packet rate average = 0.0501875
	minimum = 0.036 (at node 12)
	maximum = 0.065 (at node 13)
Injected flit rate average = 0.0511875
	minimum = 0.036 (at node 10)
	maximum = 0.062 (at node 4)
Accepted flit rate average= 0.0501875
	minimum = 0.036 (at node 12)
	maximum = 0.065 (at node 13)
Injected packet length average = 1
Accepted packet length average = 1
Total in-flight flits = 16 (0 measured)
latency change    = 1
throughput change = 1
Class 0:
Packet latency average = 20.1396
	minimum = 7
	maximum = 55
Network latency average = 20.1396
	minimum = 7
	maximum = 55
Slowest packet = 17025
Flit latency average = 20.1396
	minimum = 7
	maximum = 55
Slowest flit = 17025
Fragmentation average = 0
	minimum = 0
	maximum = 0
Injected packet rate average = 0.0498125
	minimum = 0.0425 (at node 10)
	maximum = 0.063 (at node 13)
Accepted packet rate average = 0.0494687
	minimum = 0.0445 (at node 12)
	maximum = 0.0555 (at node 13)
Injected flit rate average = 0.0498125
	minimum = 0.0425 (at node 10)
	maximum = 0.063 (at node 13)
Accepted flit rate average= 0.0494687
	minimum = 0.0445 (at node 12)
	maximum = 0.0555 (at node 13)
Injected packet length average = 1
Accepted packet length average = 1
Total in-flight flits = 11 (0 measured)
latency change    = 0.0101344
throughput change = 0.0145294
Class 0:
Packet latency average = 20.1675
	minimum = 7
	maximum = 45
Network latency average = 20.1675
	minimum = 7
	maximum = 45
Slowest packet = 18666
Flit latency average = 20.1675
	minimum = 7
	maximum = 45
Slowest flit = 18666
Fragmentation average = 0
	minimum = 0
	maximum = 0
Injected packet rate average = 0.0501875
	minimum = 0.039 (at node 5)
	maximum = 0.064 (at node 6)
Accepted packet rate average = 0.049625
	minimum = 0.037 (at node 5)
	maximum = 0.064 (at node 6)
Injected flit rate average = 0.0501875
	minimum = 0.039 (at node 5)
	maximum = 0.064 (at node 6)
Accepted flit rate average= 0.049625
	minimum = 0.037 (at node 5)
	maximum = 0.064 (at node 6)
Injected packet length average = 1
Accepted packet length average = 1
Total in-flight flits = 20 (0 measured)
latency change    = 0.00138331
throughput change = 0.00314861
Warmed up ...Time used is 3000 cycles
Class 0:
Packet latency average = 19.9534
	minimum = 7
	maximum = 57
Network latency average = 19.9534
	minimum = 7
	maximum = 57
Slowest packet = 19602
Flit latency average = 19.9831
	minimum = 7
	maximum = 57
Slowest flit = 19602
Fragmentation average = 0
	minimum = 0
	maximum = 0
Injected packet rate average = 0.0476875
	minimum = 0.036 (at node 5)
	maximum = 0.058 (at node 2)
Accepted packet rate average = 0.0481875
	minimum = 0.03 (at node 2)
	maximum = 0.069 (at node 7)
Injected flit rate average = 0.0476875
	minimum = 0.036 (at node 5)
	maximum = 0.058 (at node 2)
Accepted flit rate average= 0.0481875
	minimum = 0.03 (at node 2)
	maximum = 0.069 (at node 7)
Injected packet length average = 1
Accepted packet length average = 1
Total in-flight flits = 12 (12 measured)
latency change    = 0.0107305
throughput change = 0.0298314
Class 0:
Packet latency average = 19.8058
	minimum = 7
	maximum = 57
Network latency average = 19.8058
	minimum = 7
	maximum = 57
Slowest packet = 19602
Flit latency average = 19.8228
	minimum = 7
	maximum = 57
Slowest flit = 19602
Fragmentation average = 0
	minimum = 0
	maximum = 0
Injected packet rate average = 0.0475
	minimum = 0.036 (at node 5)
	maximum = 0.0535 (at node 6)
Accepted packet rate average = 0.0477812
	minimum = 0.036 (at node 2)
	maximum = 0.062 (at node 13)
Injected flit rate average = 0.0475
	minimum = 0.036 (at node 5)
	maximum = 0.0535 (at node 6)
Accepted flit rate average= 0.0477812
	minimum = 0.036 (at node 2)
	maximum = 0.062 (at node 13)
Injected packet length average = 1
Accepted packet length average = 1
Total in-flight flits = 11 (11 measured)
latency change    = 0.00745052
throughput change = 0.00850229
Class 0:
Packet latency average = 19.9607
	minimum = 7
	maximum = 57
Network latency average = 19.9607
	minimum = 7
	maximum = 57
Slowest packet = 19602
Flit latency average = 19.9704
	minimum = 7
	maximum = 57
Slowest flit = 19602
Fragmentation average = 0
	minimum = 0
	maximum = 0
Injected packet rate average = 0.0484375
	minimum = 0.0403333 (at node 1)
	maximum = 0.0536667 (at node 7)
Accepted packet rate average = 0.0486458
	minimum = 0.0353333 (at node 2)
	maximum = 0.0573333 (at node 13)
Injected flit rate average = 0.0484375
	minimum = 0.0403333 (at node 1)
	maximum = 0.0536667 (at node 7)
Accepted flit rate average= 0.0486458
	minimum = 0.0353333 (at node 2)
	maximum = 0.0573333 (at node 13)
Injected packet length average = 1
Accepted packet length average = 1
Total in-flight flits = 10 (10 measured)
latency change    = 0.00775822
throughput change = 0.017773
Draining all recorded packets ...
Draining remaining packets ...
Time taken is 6056 cycles
Class 0:
Packet latency average = 20.3755
	minimum = 7
	maximum = 45
Network latency average = 20.3755
	minimum = 7
	maximum = 45
Slowest packet = 22077
Flit latency average = 20.3755
	minimum = 7
	maximum = 45
Slowest flit = 22077
Fragmentation average = 0
	minimum = 0
	maximum = 0
Injected packet rate average = 0.052125
	minimum = 0.04 (at node 13)
	maximum = 0.073 (at node 14)
Accepted packet rate average = 0.0514375
	minimum = 0.037 (at node 9)
	maximum = 0.069 (at node 15)
Injected flit rate average = 0.052125
	minimum = 0.04 (at node 13)
	maximum = 0.073 (at node 14)
Accepted flit rate average= 0.0514375
	minimum = 0.037 (at node 9)
	maximum = 0.069 (at node 15)
Injected packet length average = 1
Accepted packet length average = 1
Total in-flight flits = 11 (0 measured)
latency change    = 1
throughput change = 1
Class 0:
Packet latency average = 20.19
	minimum = 7
	maximum = 50
Network latency average = 20.19
	minimum = 7
	maximum = 50
Slowest packet = 22594
Flit latency average = 20.19
	minimum = 7
	maximum = 50
Slowest flit = 22594
Fragmentation average = 0
	minimum = 0
	maximum = 0
Injected packet rate average = 0.0527188
	minimum = 0.04 (at node 9)
	maximum = 0.0665 (at node 14)
Accepted packet rate average = 0.0523125
	minimum = 0.0445 (at node 1)
	maximum = 0.0665 (at node 2)
Injected flit rate average = 0.0527188
	minimum = 0.04 (at node 9)
	maximum = 0.0665 (at node 14)
Accepted flit rate average= 0.0523125
	minimum = 0.0445 (at node 1)
	maximum = 0.0665 (at node 2)
Injected packet length average = 1
Accepted packet length average = 1
Total in-flight flits = 13 (0 measured)
latency change    = 0.00918731
throughput change = 0.0167264
Class 0:
Packet latency average = 19.8099
	minimum = 7
	maximum = 39
Network latency average = 19.8099
	minimum = 7
	maximum = 39
Slowest packet = 23557
Flit latency average = 19.8099
	minimum = 7
	maximum = 39
Slowest flit = 23557
Fragmentation average = 0
	minimum = 0
	maximum = 0
Injected packet rate average = 0.0506875
	minimum = 0.041 (at node 13)
	maximum = 0.059 (at node 1)
Accepted packet rate average = 0.0503125
	minimum = 0.035 (at node 6)
	maximum = 0.068 (at node 9)
Injected flit rate average = 0.0506875
	minimum = 0.041 (at node 13)
	maximum = 0.059 (at node 1)
Accepted flit rate average= 0.0503125
	minimum = 0.035 (at node 6)
	maximum = 0.068 (at node 9)
Injected packet length average = 1
Accepted packet length average = 1
Total in-flight flits = 19 (0 measured)
latency change    = 0.0191836
throughput change = 0.0397516
Warmed up ...Time used is 3000 cycles
Class 0:
Packet latency average = 20.2706
	minimum = 7
	maximum = 45
Network latency average = 20.2706
	minimum = 7
	maximum = 45
Slowest packet = 24556
Flit latency average = 20.2841
	minimum = 7
	maximum = 45
Slowest flit = 24556
Fragmentation average = 0
	minimum = 0
	maximum = 0
Injected packet rate average = 0.050125
	minimum = 0.038 (at node 5)
	maximum = 0.057 (at node 15)
Accepted packet rate average = 0.050375
	minimum = 0.035 (at node 3)
	maximum = 0.064 (at node 5)
Injected flit rate average = 0.050125
	minimum = 0.038 (at node 5)
	maximum = 0.057 (at node 15)
Accepted flit rate average= 0.050375
	minimum = 0.035 (at node 3)
	maximum = 0.064 (at node 5)
Injected packet length average = 1
Accepted packet length average = 1
Total in-flight flits = 15 (15 measured)
latency change    = 0.0227279
throughput change = 0.00124069
Class 0:
Packet latency average = 19.9255
	minimum = 7
	maximum = 46
Network latency average = 19.9255
	minimum = 7
	maximum = 46
Slowest packet = 25235
Flit latency average = 19.9367
	minimum = 7
	maximum = 46
Slowest flit = 25235
Fragmentation average = 0
	minimum = 0
	maximum = 0
Injected packet rate average = 0.048625
	minimum = 0.0405 (at node 7)
	maximum = 0.0615 (at node 4)
Accepted packet rate average = 0.0488437
	minimum = 0.04 (at node 15)
	maximum = 0.0575 (at node 9)
Injected flit rate average = 0.048625
	minimum = 0.0405 (at node 7)
	maximum = 0.0615 (at node 4)
Accepted flit rate average= 0.0488437
	minimum = 0.04 (at node 15)
	maximum = 0.0575 (at node 9)
Injected packet length average = 1
Accepted packet length average = 1
Total in-flight flits = 12 (12 measured)
latency change    = 0.017321
throughput change = 0.03135
Class 0:
Packet latency average = 19.8259
	minimum = 7
	maximum = 46
Network latency average = 19.8259
	minimum = 7
	maximum = 46
Slowest packet = 25235
Flit latency average = 19.834
	minimum = 7
	maximum = 46
Slowest flit = 25235
Fragmentation average = 0
	minimum = 0
	maximum = 0
Injected packet rate average = 0.049625
	minimum = 0.0446667 (at node 8)
	maximum = 0.0593333 (at node 3)
Accepted packet rate average = 0.0496875
	minimum = 0.043 (at node 15)
	maximum = 0.058 (at node 9)
Injected flit rate average = 0.049625
	minimum = 0.0446667 (at node 8)
	maximum = 0.0593333 (at node 3)
Accepted flit rate average= 0.0496875
	minimum = 0.043 (at node 15)
	maximum = 0.058 (at node 9)
Injected packet length average = 1
Accepted packet length average = 1
Total in-flight flits = 16 (16 measured)
latency change    = 0.00502635
throughput change = 0.0169811
Draining all recorded packets ...
Draining remaining packets ...
Time taken is 6054 cycles
Class 0:
Packet latency average = 20.4031
	minimum = 7
	maximum = 46
Network latency average = 20.4031
	minimum = 7
	maximum = 46
Slowest packet = 26581
Flit latency average = 20.4031
	minimum = 7
	maximum = 46
Slowest flit = 26581
Fragmentation average = 0
	minimum = 0
	maximum = 0
Injected packet rate average = 0.049125
	minimum = 0.039 (at node 12)
	maximum = 0.059 (at node 11)
Accepted packet rate average = 0.0480625
	minimum = 0.037 (at node 8)
	maximum = 0.056 (at node 9)
Injected flit rate average = 0.049125
	minimum = 0.039 (at node 12)
	maximum = 0.059 (at node 11)
Accepted flit rate average= 0.0480625
	minimum = 0.037 (at node 8)
	maximum = 0.056 (at node 9)
Injected packet length average = 1
Accepted packet length average = 1
Total in-flight flits = 17 (0 measured)
latency change    = 1
throughput change = 1
Class 0:
Packet latency average = 20.3457
	minimum = 7
	maximum = 52
Network latency average = 20.3457
	minimum = 7
	maximum = 52
Slowest packet = 27610
Flit latency average = 20.3457
	minimum = 7
	maximum = 52
Slowest flit = 27610
Fragmentation average = 0
	minimum = 0
	maximum = 0
Injected packet rate average = 0.049125
	minimum = 0.041 (at node 4)
	maximum = 0.0565 (at node 0)
Accepted packet rate average = 0.0487187
	minimum = 0.0355 (at node 8)
	maximum = 0.0555 (at node 0)
Injected flit rate average = 0.049125
	minimum = 0.041 (at node 4)
	maximum = 0.0565 (at node 0)
Accepted flit rate average= 0.0487187
	minimum = 0.0355 (at node 8)
	maximum = 0.0555 (at node 0)
Injected packet length average = 1
Accepted packet length average = 1
Total in-flight flits = 13 (0 measured)
latency change    = 0.00282057
throughput change = 0.0134702
Class 0:
Packet latency average = 20.0501
	minimum = 7
	maximum = 46
Network latency average = 20.0463
	minimum = 7
	maximum = 46
Slowest packet = 28423
Flit latency average = 20.0463
	minimum = 7
	maximum = 46
Slowest flit = 28423
Fragmentation average = 0
	minimum = 0
	maximum = 0
Injected packet rate average = 0.0498125
	minimum = 0.038 (at node 0)
	maximum = 0.061 (at node 15)
Accepted packet rate average = 0.0499375
	minimum = 0.029 (at node 2)
	maximum = 0.068 (at node 15)
Injected flit rate average = 0.0498125
	minimum = 0.038 (at node 0)
	maximum = 0.061 (at node 15)
Accepted flit rate average= 0.0499375
	minimum = 0.029 (at node 2)
	maximum = 0.068 (at node 15)
Injected packet length average = 1
Accepted packet length average = 1
Total in-flight flits = 11 (0 measured)
latency change    = 0.0147467
throughput change = 0.0244055
Warmed up ...Time used is 3000 cycles
Class 0:
Packet latency average = 19.869
	minimum = 7
	maximum = 43
Network latency average = 19.869
	minimum = 7
	maximum = 43
Slowest packet = 29479
Flit latency average = 19.8734
	minimum = 7
	maximum = 43
Slowest flit = 29479
Fragmentation average = 0
	minimum = 0
	maximum = 0
Injected packet rate average = 0.0491875
	minimum = 0.036 (at node 2)
	maximum = 0.063 (at node 5)
Accepted packet rate average = 0.048875
	minimum = 0.035 (at node 13)
	maximum = 0.061 (at node 9)
Injected flit rate average = 0.0491875
	minimum = 0.036 (at node 2)
	maximum = 0.063 (at node 5)
Accepted flit rate average= 0.048875
	minimum = 0.035 (at node 13)
	maximum = 0.061 (at node 9)
Injected packet length average = 1
Accepted packet length average = 1
Total in-flight flits = 16 (16 measured)
latency change    = 0.00911275
throughput change = 0.0217391
Class 0:
Packet latency average = 20.2085
	minimum = 7
	maximum = 48
Network latency average = 20.2085
	minimum = 7
	maximum = 48
Slowest packet = 29820
Flit latency average = 20.2083
	minimum = 7
	maximum = 48
Slowest flit = 29820
Fragmentation average = 0
	minimum = 0
	maximum = 0
Injected packet rate average = 0.0488437
	minimum = 0.0395 (at node 6)
	maximum = 0.054 (at node 11)
Accepted packet rate average = 0.0489062
	minimum = 0.0405 (at node 5)
	maximum = 0.0545 (at node 9)
Injected flit rate average = 0.0488437
	minimum = 0.0395 (at node 6)
	maximum = 0.054 (at node 11)
Accepted flit rate average= 0.0489062
	minimum = 0.0405 (at node 5)
	maximum = 0.0545 (at node 9)
Injected packet length average = 1
Accepted packet length average = 1
Total in-flight flits = 9 (9 measured)
latency change    = 0.0167995
throughput change = 0.000638978
Class 0:
Packet latency average = 20.0441
	minimum = 7
	maximum = 48
Network latency average = 20.0441
	minimum = 7
	maximum = 48
Slowest packet = 29820
Flit latency average = 20.0447
	minimum = 7
	maximum = 48
Slowest flit = 29820
Fragmentation average = 0
	minimum = 0
	maximum = 0
Injected packet rate average = 0.0476667
	minimum = 0.043 (at node 15)
	maximum = 0.051 (at node 3)
Accepted packet rate average = 0.0475208
	minimum = 0.0406667 (at node 5)
	maximum = 0.053 (at node 7)
Injected flit rate average = 0.0476667
	minimum = 0.043 (at node 15)
	maximum = 0.051 (at node 3)
Accepted flit rate average= 0.0475208
	minimum = 0.0406667 (at node 5)
	maximum = 0.053 (at node 7)
Injected packet length average = 1
Accepted packet length average = 1
Total in-flight flits = 18 (18 measured)
latency change    = 0.008204
throughput change = 0.0291539
Draining all recorded packets ...
Draining remaining packets ...
Time taken is 6056 cycles
Class 0:
Packet latency average = 19.8189
	minimum = 7
	maximum = 44
Network latency average = 19.8189
	minimum = 7
	maximum = 44
Slowest packet = 31543
Flit latency average = 19.8189
	minimum = 7
	maximum = 44
Slowest flit = 31543
Fragmentation average = 0
	minimum = 0
	maximum = 0
Injected packet rate average = 0.05075
	minimum = 0.031 (at node 13)
	maximum = 0.061 (at node 5)
Accepted packet rate average = 0.0496875
	minimum = 0.035 (at node 14)
	maximum = 0.062 (at node 9)
Injected flit rate average = 0.05075
	minimum = 0.031 (at node 13)
	maximum = 0.061 (at node 5)
Accepted flit rate average= 0.0496875
	minimum = 0.035 (at node 14)
	maximum = 0.062 (at node 9)
Injected packet length average = 1
Accepted packet length average = 1
Total in-flight flits = 17 (0 measured)
latency change    = 1
throughput change = 1
Class 0:
Packet latency average = 19.883
	minimum = 7
	maximum = 46
Network latency average = 19.883
	minimum = 7
	maximum = 46
Slowest packet = 32194
Flit latency average = 19.883
	minimum = 7
	maximum = 46
Slowest flit = 32194
Fragmentation average = 0
	minimum = 0
	maximum = 0
Injected packet rate average = 0.0510313
	minimum = 0.0355 (at node 13)
	maximum = 0.058 (at node 1)
Accepted packet rate average = 0.0505
	minimum = 0.0395 (at node 3)
	maximum = 0.0555 (at node 2)
Injected flit rate average = 0.0510313
	minimum = 0.0355 (at node 13)
	maximum = 0.058 (at node 1)
Accepted flit rate average= 0.0505
	minimum = 0.0395 (at node 3)
	maximum = 0.0555 (at node 2)
Injected packet length average = 1
Accepted packet length average = 1
Total in-flight flits = 17 (0 measured)
latency change    = 0.00322771
throughput change = 0.0160891
Class 0:
Packet latency average = 20.1135
	minimum = 7
	maximum = 52
Network latency average = 20.1135
	minimum = 7
	maximum = 52
Slowest packet = 32948
Flit latency average = 20.1135
	minimum = 7
	maximum = 52
Slowest flit = 32948
Fragmentation average = 0
	minimum = 0
	maximum = 0
Injected packet rate average = 0.0484375
	minimum = 0.034 (at node 5)
	maximum = 0.059 (at node 8)
Accepted packet rate average = 0.0484375
	minimum = 0.042 (at node 6)
	maximum = 0.058 (at node 9)
Injected flit rate average = 0.0484375
	minimum = 0.034 (at node 5)
	maximum = 0.059 (at node 8)
Accepted flit rate average= 0.0484375
	minimum = 0.042 (at node 6)
	maximum = 0.058 (at node 9)
Injected packet length average = 1
Accepted packet length average = 1
Total in-flight flits = 17 (0 measured)
latency change    = 0.0114601
throughput change = 0.0425806
Warmed up ...Time used is 3000 cycles
Class 0:
Packet latency average = 19.6768
	minimum = 7
	maximum = 49
Network latency average = 19.6768
	minimum = 7
	maximum = 49
Slowest packet = 33656
Flit latency average = 19.7439
	minimum = 7
	maximum = 49
Slowest flit = 33656
Fragmentation average = 0
	minimum = 0
	maximum = 0
Injected packet rate average = 0.0463125
	minimum = 0.032 (at node 12)
	maximum = 0.059 (at node 6)
Accepted packet rate average = 0.046125
	minimum = 0.037 (at node 2)
	maximum = 0.054 (at node 14)
Injected flit rate average = 0.0463125
	minimum = 0.032 (at node 12)
	maximum = 0.059 (at node 6)
Accepted flit rate average= 0.046125
	minimum = 0.037 (at node 2)
	maximum = 0.054 (at node 14)
Injected packet length average = 1
Accepted packet length average = 1
Total in-flight flits = 20 (20 measured)
latency change    = 0.0221941
throughput change = 0.0501355
Class 0:
Packet latency average = 19.7663
	minimum = 7
	maximum = 49
Network latency average = 19.7656
	minimum = 7
	maximum = 49
Slowest packet = 33656
Flit latency average = 19.796
	minimum = 7
	maximum = 49
Slowest flit = 33656
Fragmentation average = 0
	minimum = 0
	maximum = 0
Injected packet rate average = 0.0495625
	minimum = 0.044 (at node 15)
	maximum = 0.061 (at node 4)
Accepted packet rate average = 0.0494687
	minimum = 0.0415 (at node 2)
	maximum = 0.0595 (at node 14)
Injected flit rate average = 0.0495625
	minimum = 0.044 (at node 15)
	maximum = 0.061 (at node 4)
Accepted flit rate average= 0.0494687
	minimum = 0.0415 (at node 2)
	maximum = 0.0595 (at node 14)
Injected packet length average = 1
Accepted packet length average = 1
Total in-flight flits = 20 (20 measured)
latency change    = 0.00452517
throughput change = 0.0675932
Class 0:
Packet latency average = 19.8783
	minimum = 7
	maximum = 49
Network latency average = 19.8779
	minimum = 7
	maximum = 49
Slowest packet = 33656
Flit latency average = 19.8971
	minimum = 7
	maximum = 49
Slowest flit = 33656
Fragmentation average = 0
	minimum = 0
	maximum = 0
Injected packet rate average = 0.0501875
	minimum = 0.0436667 (at node 2)
	maximum = 0.059 (at node 4)
Accepted packet rate average = 0.0501875
	minimum = 0.0393333 (at node 2)
	maximum = 0.0616667 (at node 14)
Injected flit rate average = 0.0501875
	minimum = 0.0436667 (at node 2)
	maximum = 0.059 (at node 4)
Accepted flit rate average= 0.0501875
	minimum = 0.0393333 (at node 2)
	maximum = 0.0616667 (at node 14)
Injected packet length average = 1
Accepted packet length average = 1
Total in-flight flits = 17 (17 measured)
latency change    = 0.00563734
throughput change = 0.0143213
Class 0:
Packet latency average = 19.9366
	minimum = 7
	maximum = 49
Network latency average = 19.9363
	minimum = 7
	maximum = 49
Slowest packet = 33656
Flit latency average = 19.9503
	minimum = 7
	maximum = 49
Slowest flit = 33656
Fragmentation average = 0
	minimum = 0
	maximum = 0
Injected packet rate average = 0.0502969
	minimum = 0.04475 (at node 9)
	maximum = 0.05525 (at node 4)
Accepted packet rate average = 0.0502812
	minimum = 0.0415 (at node 2)
	maximum = 0.056 (at node 14)
Injected flit rate average = 0.0502969
	minimum = 0.04475 (at node 9)
	maximum = 0.05525 (at node 4)
Accepted flit rate average= 0.0502812
	minimum = 0.0415 (at node 2)
	maximum = 0.056 (at node 14)
Injected packet length average = 1
Accepted packet length average = 1
Total in-flight flits = 18 (18 measured)
latency change    = 0.00292115
throughput change = 0.00186451
Class 0:
Packet latency average = 19.8612
	minimum = 7
	maximum = 49
Network latency average = 19.8609
	minimum = 7
	maximum = 49
Slowest packet = 33656
Flit latency average = 19.8723
	minimum = 7
	maximum = 49
Slowest flit = 33656
Fragmentation average = 0
	minimum = 0
	maximum = 0
Injected packet rate average = 0.05085
	minimum = 0.0454 (at node 9)
	maximum = 0.0582 (at node 4)
Accepted packet rate average = 0.0508125
	minimum = 0.0424 (at node 2)
	maximum = 0.059 (at node 14)
Injected flit rate average = 0.05085
	minimum = 0.0454 (at node 9)
	maximum = 0.0582 (at node 4)
Accepted flit rate average= 0.0508125
	minimum = 0.0424 (at node 2)
	maximum = 0.059 (at node 14)
Injected packet length average = 1
Accepted packet length average = 1
Total in-flight flits = 20 (20 measured)
latency change    = 0.00379717
throughput change = 0.0104551
Draining all recorded packets ...
Draining remaining packets ...
Time taken is 8056 cycles
Class 0:
Packet latency average = 20.0491
	minimum = 7
	maximum = 47
Network latency average = 20.0491
	minimum = 7
	maximum = 47
Slowest packet = 37744
Flit latency average = 20.0491
	minimum = 7
	maximum = 47
Slowest flit = 37744
Fragmentation average = 0
	minimum = 0
	maximum = 0
Injected packet rate average = 0.0509375
	minimum = 0.041 (at node 13)
	maximum = 0.062 (at node 9)
Accepted packet rate average = 0.0496875
	minimum = 0.034 (at node 5)
	maximum = 0.062 (at node 3)
Injected flit rate average = 0.0509375
	minimum = 0.041 (at node 13)
	maximum = 0.062 (at node 9)
Accepted flit rate average= 0.0496875
	minimum = 0.034 (at node 5)
	maximum = 0.062 (at node 3)
Injected packet length average = 1
Accepted packet length average = 1
Total in-flight flits = 20 (0 measured)
latency change    = 1
throughput change = 1
Class 0:
Packet latency average = 20.1718
	minimum = 7
	maximum = 56
Network latency average = 20.1718
	minimum = 7
	maximum = 56
Slowest packet = 38748
Flit latency average = 20.1718
	minimum = 7
	maximum = 56
Slowest flit = 38748
Fragmentation average = 0
	minimum = 0
	maximum = 0
Injected packet rate average = 0.0505312
	minimum = 0.044 (at node 13)
	maximum = 0.0555 (at node 6)
Accepted packet rate average = 0.0498437
	minimum = 0.04 (at node 5)
	maximum = 0.056 (at node 4)
Injected flit rate average = 0.0505312
	minimum = 0.044 (at node 13)
	maximum = 0.0555 (at node 6)
Accepted flit rate average= 0.0498437
	minimum = 0.04 (at node 5)
	maximum = 0.056 (at node 4)
Injected packet length average = 1
Accepted packet length average = 1
Total in-flight flits = 22 (0 measured)
latency change    = 0.00608425
throughput change = 0.0031348
Class 0:
Packet latency average = 20.2449
	minimum = 7
	maximum = 55
Network latency average = 20.2449
	minimum = 7
	maximum = 55
Slowest packet = 40026
Flit latency average = 20.2449
	minimum = 7
	maximum = 55
Slowest flit = 40026
Fragmentation average = 0
	minimum = 0
	maximum = 0
Injected packet rate average = 0.0515625
	minimum = 0.035 (at node 9)
	maximum = 0.061 (at node 2)
Accepted packet rate average = 0.0520625
	minimum = 0.04 (at node 7)
	maximum = 0.063 (at node 10)
Injected flit rate average = 0.0515625
	minimum = 0.035 (at node 9)
	maximum = 0.061 (at node 2)
Accepted flit rate average= 0.0520625
	minimum = 0.04 (at node 7)
	maximum = 0.063 (at node 10)
Injected packet length average = 1
Accepted packet length average = 1
Total in-flight flits = 14 (0 measured)
latency change    = 0.00361134
throughput change = 0.042617
Warmed up ...Time used is 3000 cycles
Class 0:
Packet latency average = 19.7619
	minimum = 7
	maximum = 38
Network latency average = 19.7619
	minimum = 7
	maximum = 38
Slowest packet = 40285
Flit latency average = 19.8331
	minimum = 7
	maximum = 39
Slowest flit = 40165
Fragmentation average = 0
	minimum = 0
	maximum = 0
Injected packet rate average = 0.047125
	minimum = 0.037 (at node 1)
	maximum = 0.064 (at node 13)
Accepted packet rate average = 0.0468125
	minimum = 0.04 (at node 13)
	maximum = 0.058 (at node 10)
Injected flit rate average = 0.047125
	minimum = 0.037 (at node 1)
	maximum = 0.064 (at node 13)
Accepted flit rate average= 0.0468125
	minimum = 0.04 (at node 13)
	maximum = 0.058 (at node 10)
Injected packet length average = 1
Accepted packet length average = 1
Total in-flight flits = 19 (19 measured)
latency change    = 0.0244406
throughput change = 0.11215
Class 0:
Packet latency average = 19.921
	minimum = 7
	maximum = 51
Network latency average = 19.921
	minimum = 7
	maximum = 51
Slowest packet = 40972
Flit latency average = 19.9535
	minimum = 7
	maximum = 51
Slowest flit = 40972
Fragmentation average = 0
	minimum = 0
	maximum = 0
Injected packet rate average = 0.0492187
	minimum = 0.0395 (at node 8)
	maximum = 0.0585 (at node 6)
Accepted packet rate average = 0.0490625
	minimum = 0.044 (at node 14)
	maximum = 0.057 (at node 10)
Injected flit rate average = 0.0492187
	minimum = 0.0395 (at node 8)
	maximum = 0.0585 (at node 6)
Accepted flit rate average= 0.0490625
	minimum = 0.044 (at node 14)
	maximum = 0.057 (at node 10)
Injected packet length average = 1
Accepted packet length average = 1
Total in-flight flits = 19 (19 measured)
latency change    = 0.00798388
throughput change = 0.0458599
Class 0:
Packet latency average = 19.9225
	minimum = 7
	maximum = 51
Network latency average = 19.9225
	minimum = 7
	maximum = 51
Slowest packet = 40972
Flit latency average = 19.9441
	minimum = 7
	maximum = 51
Slowest flit = 40972
Fragmentation average = 0
	minimum = 0
	maximum = 0
Injected packet rate average = 0.0493542
	minimum = 0.0433333 (at node 7)
	maximum = 0.0553333 (at node 6)
Accepted packet rate average = 0.0491875
	minimum = 0.0416667 (at node 8)
	maximum = 0.0563333 (at node 3)
Injected flit rate average = 0.0493542
	minimum = 0.0433333 (at node 7)
	maximum = 0.0553333 (at node 6)
Accepted flit rate average= 0.0491875
	minimum = 0.0416667 (at node 8)
	maximum = 0.0563333 (at node 3)
Injected packet length average = 1
Accepted packet length average = 1
Total in-flight flits = 22 (22 measured)
latency change    = 7.54445e-05
throughput change = 0.0025413
Class 0:
Packet latency average = 19.8649
	minimum = 7
	maximum = 51
Network latency average = 19.8649
	minimum = 7
	maximum = 51
Slowest packet = 40972
Flit latency average = 19.8815
	minimum = 7
	maximum = 51
Slowest flit = 40972
Fragmentation average = 0
	minimum = 0
	maximum = 0
Injected packet rate average = 0.048875
	minimum = 0.04475 (at node 14)
	maximum = 0.05625 (at node 13)
Accepted packet rate average = 0.0490312
	minimum = 0.04325 (at node 8)
	maximum = 0.05525 (at node 6)
Injected flit rate average = 0.048875
	minimum = 0.04475 (at node 14)
	maximum = 0.05625 (at node 13)
Accepted flit rate average= 0.0490312
	minimum = 0.04325 (at node 8)
	maximum = 0.05525 (at node 6)
Injected packet length average = 1
Accepted packet length average = 1
Total in-flight flits = 4 (4 measured)
latency change    = 0.00289643
throughput change = 0.00318674
Draining all recorded packets ...
Draining remaining packets ...
Time taken is 7052 cycles
Class 0:
Packet latency average = 19.7383
	minimum = 7
	maximum = 43
Network latency average = 19.7383
	minimum = 7
	maximum = 43
Slowest packet = 43790
Flit latency average = 19.7383
	minimum = 7
	maximum = 43
Slowest flit = 43790
Fragmentation average = 0
	minimum = 0
	maximum = 0
Injected packet rate average = 0.0488125
	minimum = 0.037 (at node 7)
	maximum = 0.065 (at node 1)
Accepted packet rate average = 0.04825
	minimum = 0.034 (at node 2)
	maximum = 0.06 (at node 0)
Injected flit rate average = 0.0488125
	minimum = 0.037 (at node 7)
	maximum = 0.065 (at node 1)
Accepted flit rate average= 0.04825
	minimum = 0.034 (at node 2)
	maximum = 0.06 (at node 0)
Injected packet length average = 1
Accepted packet length average = 1
Total in-flight flits = 9 (0 measured)
latency change    = 1
throughput change = 1
Class 0:
Packet latency average = 20.0673
	minimum = 7
	maximum = 43
Network latency average = 20.0673
	minimum = 7
	maximum = 43
Slowest packet = 43790
Flit latency average = 20.0673
	minimum = 7
	maximum = 43
Slowest flit = 43790
Fragmentation average = 0
	minimum = 0
	maximum = 0
Injected packet rate average = 0.0497187
	minimum = 0.04 (at node 7)
	maximum = 0.063 (at node 1)
Accepted packet rate average = 0.0492187
	minimum = 0.0435 (at node 2)
	maximum = 0.0605 (at node 1)
Injected flit rate average = 0.0497187
	minimum = 0.04 (at node 7)
	maximum = 0.063 (at node 1)
Accepted flit rate average= 0.0492187
	minimum = 0.0435 (at node 2)
	maximum = 0.0605 (at node 1)
Injected packet length average = 1
Accepted packet length average = 1
Total in-flight flits = 16 (0 measured)
latency change    = 0.0163928
throughput change = 0.0196825
Class 0:
Packet latency average = 20.2258
	minimum = 7
	maximum = 45
Network latency average = 20.2246
	minimum = 7
	maximum = 45
Slowest packet = 44878
Flit latency average = 20.2246
	minimum = 7
	maximum = 45
Slowest flit = 44878
Fragmentation average = 0
	minimum = 0
	maximum = 0
Injected packet rate average = 0.0516875
	minimum = 0.032 (at node 13)
	maximum = 0.068 (at node 0)
Accepted packet rate average = 0.05175
	minimum = 0.042 (at node 3)
	maximum = 0.069 (at node 5)
Injected flit rate average = 0.0516875
	minimum = 0.032 (at node 13)
	maximum = 0.068 (at node 0)
Accepted flit rate average= 0.05175
	minimum = 0.042 (at node 3)
	maximum = 0.069 (at node 5)
Injected packet length average = 1
Accepted packet length average = 1
Total in-flight flits = 15 (0 measured)
latency change    = 0.00783867
throughput change = 0.048913
Warmed up ...Time used is 3000 cycles
Class 0:
Packet latency average = 19.7102
	minimum = 7
	maximum = 42
Network latency average = 19.7102
	minimum = 7
	maximum = 42
Slowest packet = 46364
Flit latency average = 19.8015
	minimum = 7
	maximum = 42
Slowest flit = 46364
Fragmentation average = 0
	minimum = 0
	maximum = 0
Injected packet rate average = 0.051625
	minimum = 0.04 (at node 7)
	maximum = 0.065 (at node 11)
Accepted packet rate average = 0.051625
	minimum = 0.035 (at node 4)
	maximum = 0.074 (at node 0)
Injected flit rate average = 0.051625
	minimum = 0.04 (at node 7)
	maximum = 0.065 (at node 11)
Accepted flit rate average= 0.051625
	minimum = 0.035 (at node 4)
	maximum = 0.074 (at node 0)
Injected packet length average = 1
Accepted packet length average = 1
Total in-flight flits = 15 (15 measured)
latency change    = 0.0261596
throughput change = 0.00242131
Class 0:
Packet latency average = 19.9244
	minimum = 7
	maximum = 42
Network latency average = 19.9233
	minimum = 7
	maximum = 42
Slowest packet = 46364
Flit latency average = 19.9652
	minimum = 7
	maximum = 42
Slowest flit = 46364
Fragmentation average = 0
	minimum = 0
	maximum = 0
Injected packet rate average = 0.0538438
	minimum = 0.0435 (at node 5)
	maximum = 0.0635 (at node 10)
Accepted packet rate average = 0.0538125
	minimum = 0.043 (at node 3)
	maximum = 0.0705 (at node 0)
Injected flit rate average = 0.0538438
	minimum = 0.0435 (at node 5)
	maximum = 0.0635 (at node 10)
Accepted flit rate average= 0.0538125
	minimum = 0.043 (at node 3)
	maximum = 0.0705 (at node 0)
Injected packet length average = 1
Accepted packet length average = 1
Total in-flight flits = 16 (16 measured)
latency change    = 0.0107503
throughput change = 0.0406504
Class 0:
Packet latency average = 19.8567
	minimum = 7
	maximum = 44
Network latency average = 19.8555
	minimum = 7
	maximum = 44
Slowest packet = 47495
Flit latency average = 19.8847
	minimum = 7
	maximum = 44
Slowest flit = 47495
Fragmentation average = 0
	minimum = 0
	maximum = 0
Injected packet rate average = 0.052125
	minimum = 0.043 (at node 5)
	maximum = 0.0596667 (at node 0)
Accepted packet rate average = 0.0522292
	minimum = 0.0416667 (at node 3)
	maximum = 0.0623333 (at node 0)
Injected flit rate average = 0.052125
	minimum = 0.043 (at node 5)
	maximum = 0.0596667 (at node 0)
Accepted flit rate average= 0.0522292
	minimum = 0.0416667 (at node 3)
	maximum = 0.0623333 (at node 0)
Injected packet length average = 1
Accepted packet length average = 1
Total in-flight flits = 10 (10 measured)
latency change    = 0.00340878
throughput change = 0.0303151
Draining all recorded packets ...
Draining remaining packets ...
Time taken is 6053 cycles
Class 0:
Packet latency average = 19.8892
	minimum = 7
	maximum = 49
Network latency average = 19.8892
	minimum = 7
	maximum = 49
Slowest packet = 48687
Flit latency average = 19.8892
	minimum = 7
	maximum = 49
Slowest flit = 48687
Fragmentation average = 0
	minimum = 0
	maximum = 0
Injected packet rate average = 0.05075
	minimum = 0.036 (at node 14)
	maximum = 0.066 (at node 11)
Accepted packet rate average = 0.0501875
	minimum = 0.041 (at node 6)
	maximum = 0.065 (at node 15)
Injected flit rate average = 0.05075
	minimum = 0.036 (at node 14)
	maximum = 0.066 (at node 11)
Accepted flit rate average= 0.0501875
	minimum = 0.041 (at node 6)
	maximum = 0.065 (at node 15)
Injected packet length average = 1
Accepted packet length average = 1
Total in-flight flits = 9 (0 measured)
latency change    = 1
throughput change = 1
Class 0:
Packet latency average = 19.9987
	minimum = 7
	maximum = 49
Network latency average = 19.9987
	minimum = 7
	maximum = 49
Slowest packet = 48687
Flit latency average = 19.9987
	minimum = 7
	maximum = 49
Slowest flit = 48687
Fragmentation average = 0
	minimum = 0
	maximum = 0
Injected packet rate average = 0.0493125
	minimum = 0.043 (at node 14)
	maximum = 0.0595 (at node 13)
Accepted packet rate average = 0.0488437
	minimum = 0.0405 (at node 8)
	maximum = 0.058 (at node 14)
Injected flit rate average = 0.0493125
	minimum = 0.043 (at node 14)
	maximum = 0.0595 (at node 13)
Accepted flit rate average= 0.0488437
	minimum = 0.0405 (at node 8)
	maximum = 0.058 (at node 14)
Injected packet length average = 1
Accepted packet length average = 1
Total in-flight flits = 15 (0 measured)
latency change    = 0.00547809
throughput change = 0.0275112
Class 0:
Packet latency average = 19.8473
	minimum = 7
	maximum = 41
Network latency average = 19.8473
	minimum = 7
	maximum = 41
Slowest packet = 50220
Flit latency average = 19.8473
	minimum = 7
	maximum = 41
Slowest flit = 50220
Fragmentation average = 0
	minimum = 0
	maximum = 0
Injected packet rate average = 0.0473125
	minimum = 0.031 (at node 11)
	maximum = 0.058 (at node 2)
Accepted packet rate average = 0.0470625
	minimum = 0.033 (at node 12)
	maximum = 0.057 (at node 9)
Injected flit rate average = 0.0473125
	minimum = 0.031 (at node 11)
	maximum = 0.058 (at node 2)
Accepted flit rate average= 0.0470625
	minimum = 0.033 (at node 12)
	maximum = 0.057 (at node 9)
Injected packet length average = 1
Accepted packet length average = 1
Total in-flight flits = 19 (0 measured)
latency change    = 0.00763041
throughput change = 0.0378486
Warmed up ...Time used is 3000 cycles
Class 0:
Packet latency average = 20.0482
	minimum = 7
	maximum = 53
Network latency average = 20.0482
	minimum = 7
	maximum = 53
Slowest packet = 50707
Flit latency average = 20.1272
	minimum = 7
	maximum = 53
Slowest flit = 50707
Fragmentation average = 0
	minimum = 0
	maximum = 0
Injected packet rate average = 0.0484375
	minimum = 0.035 (at node 12)
	maximum = 0.063 (at node 6)
Accepted packet rate average = 0.049125
	minimum = 0.038 (at node 12)
	maximum = 0.065 (at node 14)
Injected flit rate average = 0.0484375
	minimum = 0.035 (at node 12)
	maximum = 0.063 (at node 6)
Accepted flit rate average= 0.049125
	minimum = 0.038 (at node 12)
	maximum = 0.065 (at node 14)
Injected packet length average = 1
Accepted packet length average = 1
Total in-flight flits = 8 (8 measured)
latency change    = 0.0100239
throughput change = 0.0419847
Class 0:
Packet latency average = 19.9359
	minimum = 7
	maximum = 53
Network latency average = 19.9359
	minimum = 7
	maximum = 53
Slowest packet = 50707
Flit latency average = 19.9766
	minimum = 7
	maximum = 53
Slowest flit = 50707
Fragmentation average = 0
	minimum = 0
	maximum = 0
Injected packet rate average = 0.0493437
	minimum = 0.04 (at node 12)
	maximum = 0.0585 (at node 11)
Accepted packet rate average = 0.0493125
	minimum = 0.042 (at node 1)
	maximum = 0.059 (at node 10)
Injected flit rate average = 0.0493437
	minimum = 0.04 (at node 12)
	maximum = 0.0585 (at node 11)
Accepted flit rate average= 0.0493125
	minimum = 0.042 (at node 1)
	maximum = 0.059 (at node 10)
Injected packet length average = 1
Accepted packet length average = 1
Total in-flight flits = 20 (20 measured)
latency change    = 0.00563726
throughput change = 0.00380228
Class 0:
Packet latency average = 20.0371
	minimum = 7
	maximum = 53
Network latency average = 20.0371
	minimum = 7
	maximum = 53
Slowest packet = 50707
Flit latency average = 20.0637
	minimum = 7
	maximum = 53
Slowest flit = 50707
Fragmentation average = 0
	minimum = 0
	maximum = 0
Injected packet rate average = 0.048625
	minimum = 0.0433333 (at node 3)
	maximum = 0.0546667 (at node 8)
Accepted packet rate average = 0.0487292
	minimum = 0.0426667 (at node 1)
	maximum = 0.0596667 (at node 10)
Injected flit rate average = 0.048625
	minimum = 0.0433333 (at node 3)
	maximum = 0.0546667 (at node 8)
Accepted flit rate average= 0.0487292
	minimum = 0.0426667 (at node 1)
	maximum = 0.0596667 (at node 10)
Injected packet length average = 1
Accepted packet length average = 1
Total in-flight flits = 14 (14 measured)
latency change    = 0.00505127
throughput change = 0.0119709
Draining all recorded packets ...
Draining remaining packets ...
Time taken is 6069 cycles
Class 0:
Packet latency average = 19.816
	minimum = 7
	maximum = 49
Network latency average = 19.816
	minimum = 7
	maximum = 49
Slowest packet = 52963
Flit latency average = 19.816
	minimum = 7
	maximum = 49
Slowest flit = 52963
Fragmentation average = 0
	minimum = 0
	maximum = 0
Injected packet rate average = 0.0510625
	minimum = 0.044 (at node 4)
	maximum = 0.062 (at node 14)
Accepted packet rate average = 0.0499375
	minimum = 0.03 (at node 12)
	maximum = 0.065 (at node 13)
Injected flit rate average = 0.0510625
	minimum = 0.044 (at node 4)
	maximum = 0.062 (at node 14)
Accepted flit rate average= 0.0499375
	minimum = 0.03 (at node 12)
	maximum = 0.065 (at node 13)
Injected packet length average = 1
Accepted packet length average = 1
Total in-flight flits = 18 (0 measured)
latency change    = 1
throughput change = 1
Class 0:
Packet latency average = 19.9943
	minimum = 7
	maximum = 49
Network latency average = 19.9943
	minimum = 7
	maximum = 49
Slowest packet = 52963
Flit latency average = 19.9943
	minimum = 7
	maximum = 49
Slowest flit = 52963
Fragmentation average = 0
	minimum = 0
	maximum = 0
Injected packet rate average = 0.0492812
	minimum = 0.0415 (at node 9)
	maximum = 0.0565 (at node 6)
Accepted packet rate average = 0.0489375
	minimum = 0.038 (at node 12)
	maximum = 0.059 (at node 13)
Injected flit rate average = 0.0492812
	minimum = 0.0415 (at node 9)
	maximum = 0.0565 (at node 6)
Accepted flit rate average= 0.0489375
	minimum = 0.038 (at node 12)
	maximum = 0.059 (at node 13)
Injected packet length average = 1
Accepted packet length average = 1
Total in-flight flits = 11 (0 measured)
latency change    = 0.0089142
throughput change = 0.0204342
Class 0:
Packet latency average = 20.1416
	minimum = 7
	maximum = 45
Network latency average = 20.1416
	minimum = 7
	maximum = 45
Slowest packet = 55124
Flit latency average = 20.1416
	minimum = 7
	maximum = 45
Slowest flit = 55124
Fragmentation average = 0
	minimum = 0
	maximum = 0
Injected packet rate average = 0.049375
	minimum = 0.035 (at node 3)
	maximum = 0.06 (at node 15)
Accepted packet rate average = 0.0494375
	minimum = 0.032 (at node 8)
	maximum = 0.063 (at node 5)
Injected flit rate average = 0.049375
	minimum = 0.035 (at node 3)
	maximum = 0.06 (at node 15)
Accepted flit rate average= 0.0494375
	minimum = 0.032 (at node 8)
	maximum = 0.063 (at node 5)
Injected packet length average = 1
Accepted packet length average = 1
Total in-flight flits = 10 (0 measured)
latency change    = 0.00731521
throughput change = 0.0101138
Warmed up ...Time used is 3000 cycles
Class 0:
Packet latency average = 19.9528
	minimum = 7
	maximum = 50
Network latency average = 19.9528
	minimum = 7
	maximum = 50
Slowest packet = 55991
Flit latency average = 19.9534
	minimum = 7
	maximum = 50
Slowest flit = 55991
Fragmentation average = 0
	minimum = 0
	maximum = 0
Injected packet rate average = 0.0499375
	minimum = 0.041 (at node 12)
	maximum = 0.057 (at node 4)
Accepted packet rate average = 0.049625
	minimum = 0.036 (at node 13)
	maximum = 0.068 (at node 14)
Injected flit rate average = 0.0499375
	minimum = 0.041 (at node 12)
	maximum = 0.057 (at node 4)
Accepted flit rate average= 0.049625
	minimum = 0.036 (at node 13)
	maximum = 0.068 (at node 14)
Injected packet length average = 1
Accepted packet length average = 1
Total in-flight flits = 15 (15 measured)
latency change    = 0.00946167
throughput change = 0.00377834
Class 0:
Packet latency average = 19.9905
	minimum = 7
	maximum = 50
Network latency average = 19.9905
	minimum = 7
	maximum = 50
Slowest packet = 55991
Flit latency average = 19.9905
	minimum = 7
	maximum = 50
Slowest flit = 55991
Fragmentation average = 0
	minimum = 0
	maximum = 0
Injected packet rate average = 0.0495937
	minimum = 0.045 (at node 6)
	maximum = 0.058 (at node 0)
Accepted packet rate average = 0.0495
	minimum = 0.0395 (at node 12)
	maximum = 0.0615 (at node 14)
Injected flit rate average = 0.0495937
	minimum = 0.045 (at node 6)
	maximum = 0.058 (at node 0)
Accepted flit rate average= 0.0495
	minimum = 0.0395 (at node 12)
	maximum = 0.0615 (at node 14)
Injected packet length average = 1
Accepted packet length average = 1
Total in-flight flits = 13 (13 measured)
latency change    = 0.0018841
throughput change = 0.00252525
Class 0:
Packet latency average = 20.1329
	minimum = 7
	maximum = 50
Network latency average = 20.1329
	minimum = 7
	maximum = 50
Slowest packet = 55991
Flit latency average = 20.1324
	minimum = 7
	maximum = 50
Slowest flit = 55991
Fragmentation average = 0
	minimum = 0
	maximum = 0
Injected packet rate average = 0.04925
	minimum = 0.0456667 (at node 10)
	maximum = 0.0606667 (at node 0)
Accepted packet rate average = 0.0491042
	minimum = 0.042 (at node 12)
	maximum = 0.0576667 (at node 14)
Injected flit rate average = 0.04925
	minimum = 0.0456667 (at node 10)
	maximum = 0.0606667 (at node 0)
Accepted flit rate average= 0.0491042
	minimum = 0.042 (at node 12)
	maximum = 0.0576667 (at node 14)
Injected packet length average = 1
Accepted packet length average = 1
Total in-flight flits = 17 (17 measured)
latency change    = 0.00707624
throughput change = 0.00806109
Draining all recorded packets ...
Draining remaining packets ...
Time taken is 6056 cycles
Class 0:
Packet latency average = 19.8988
	minimum = 7
	maximum = 48
Network latency average = 19.8988
	minimum = 7
	maximum = 48
Slowest packet = 58385
Flit latency average = 19.8988
	minimum = 7
	maximum = 48
Slowest flit = 58385
Fragmentation average = 0
	minimum = 0
	maximum = 0
Injected packet rate average = 0.0490625
	minimum = 0.039 (at node 12)
	maximum = 0.067 (at node 13)
Accepted packet rate average = 0.0481875
	minimum = 0.035 (at node 6)
	maximum = 0.061 (at node 9)
Injected flit rate average = 0.0490625
	minimum = 0.039 (at node 12)
	maximum = 0.067 (at node 13)
Accepted flit rate average= 0.0481875
	minimum = 0.035 (at node 6)
	maximum = 0.061 (at node 9)
Injected packet length average = 1
Accepted packet length average = 1
Total in-flight flits = 14 (0 measured)
latency change    = 1
throughput change = 1
Class 0:
Packet latency average = 20.1033
	minimum = 7
	maximum = 48
Network latency average = 20.1033
	minimum = 7
	maximum = 48
Slowest packet = 58385
Flit latency average = 20.1033
	minimum = 7
	maximum = 48
Slowest flit = 58385
Fragmentation average = 0
	minimum = 0
	maximum = 0
Injected packet rate average = 0.0501562
	minimum = 0.0425 (at node 5)
	maximum = 0.061 (at node 14)
Accepted packet rate average = 0.049625
	minimum = 0.041 (at node 6)
	maximum = 0.057 (at node 4)
Injected flit rate average = 0.0501562
	minimum = 0.0425 (at node 5)
	maximum = 0.061 (at node 14)
Accepted flit rate average= 0.049625
	minimum = 0.041 (at node 6)
	maximum = 0.057 (at node 4)
Injected packet length average = 1
Accepted packet length average = 1
Total in-flight flits = 17 (0 measured)
latency change    = 0.0101696
throughput change = 0.0289673
Class 0:
Packet latency average = 20.2778
	minimum = 7
	maximum = 56
Network latency average = 20.2778
	minimum = 7
	maximum = 56
Slowest packet = 59850
Flit latency average = 20.2778
	minimum = 7
	maximum = 56
Slowest flit = 59850
Fragmentation average = 0
	minimum = 0
	maximum = 0
Injected packet rate average = 0.0488125
	minimum = 0.037 (at node 12)
	maximum = 0.061 (at node 0)
Accepted packet rate average = 0.0488125
	minimum = 0.033 (at node 5)
	maximum = 0.065 (at node 3)
Injected flit rate average = 0.0488125
	minimum = 0.037 (at node 12)
	maximum = 0.061 (at node 0)
Accepted flit rate average= 0.0488125
	minimum = 0.033 (at node 5)
	maximum = 0.065 (at node 3)
Injected packet length average = 1
Accepted packet length average = 1
Total in-flight flits = 17 (0 measured)
latency change    = 0.00860912
throughput change = 0.0166453
Warmed up ...Time used is 3000 cycles
Class 0:
Packet latency average = 20.3063
	minimum = 7
	maximum = 53
Network latency average = 20.3063
	minimum = 7
	maximum = 53
Slowest packet = 60188
Flit latency average = 20.3172
	minimum = 7
	maximum = 53
Slowest flit = 60188
Fragmentation average = 0
	minimum = 0
	maximum = 0
Injected packet rate average = 0.0508125
	minimum = 0.04 (at node 15)
	maximum = 0.061 (at node 14)
Accepted packet rate average = 0.0504375
	minimum = 0.038 (at node 0)
	maximum = 0.065 (at node 8)
Injected flit rate average = 0.0508125
	minimum = 0.04 (at node 15)
	maximum = 0.061 (at node 14)
Accepted flit rate average= 0.0504375
	minimum = 0.038 (at node 0)
	maximum = 0.065 (at node 8)
Injected packet length average = 1
Accepted packet length average = 1
Total in-flight flits = 23 (23 measured)
latency change    = 0.00140253
throughput change = 0.0322181
Class 0:
Packet latency average = 20.0886
	minimum = 7
	maximum = 53
Network latency average = 20.0886
	minimum = 7
	maximum = 53
Slowest packet = 60188
Flit latency average = 20.0963
	minimum = 7
	maximum = 53
Slowest flit = 60188
Fragmentation average = 0
	minimum = 0
	maximum = 0
Injected packet rate average = 0.0509688
	minimum = 0.044 (at node 7)
	maximum = 0.06 (at node 14)
Accepted packet rate average = 0.0509688
	minimum = 0.04 (at node 1)
	maximum = 0.0595 (at node 10)
Injected flit rate average = 0.0509688
	minimum = 0.044 (at node 7)
	maximum = 0.06 (at node 14)
Accepted flit rate average= 0.0509688
	minimum = 0.04 (at node 1)
	maximum = 0.0595 (at node 10)
Injected packet length average = 1
Accepted packet length average = 1
Total in-flight flits = 17 (17 measured)
latency change    = 0.0108385
throughput change = 0.0104231
Class 0:
Packet latency average = 20.2125
	minimum = 7
	maximum = 53
Network latency average = 20.2125
	minimum = 7
	maximum = 53
Slowest packet = 60188
Flit latency average = 20.2167
	minimum = 7
	maximum = 53
Slowest flit = 60188
Fragmentation average = 0
	minimum = 0
	maximum = 0
Injected packet rate average = 0.0515625
	minimum = 0.0443333 (at node 8)
	maximum = 0.0586667 (at node 1)
Accepted packet rate average = 0.0515417
	minimum = 0.0413333 (at node 1)
	maximum = 0.0586667 (at node 5)
Injected flit rate average = 0.0515625
	minimum = 0.0443333 (at node 8)
	maximum = 0.0586667 (at node 1)
Accepted flit rate average= 0.0515417
	minimum = 0.0413333 (at node 1)
	maximum = 0.0586667 (at node 5)
Injected packet length average = 1
Accepted packet length average = 1
Total in-flight flits = 18 (18 measured)
latency change    = 0.00612763
throughput change = 0.0111156
Draining all recorded packets ...
Draining remaining packets ...
Time taken is 6052 cycles
Class 0:
Packet latency average = 19.7782
	minimum = 7
	maximum = 52
Network latency average = 19.7782
	minimum = 7
	maximum = 52
Slowest packet = 63356
Flit latency average = 19.7782
	minimum = 7
	maximum = 52
Slowest flit = 63356
Fragmentation average = 0
	minimum = 0
	maximum = 0
Injected packet rate average = 0.052625
	minimum = 0.041 (at node 3)
	maximum = 0.066 (at node 8)
Accepted packet rate average = 0.0515625
	minimum = 0.04 (at node 13)
	maximum = 0.068 (at node 10)
Injected flit rate average = 0.052625
	minimum = 0.041 (at node 3)
	maximum = 0.066 (at node 8)
Accepted flit rate average= 0.0515625
	minimum = 0.04 (at node 13)
	maximum = 0.068 (at node 10)
Injected packet length average = 1
Accepted packet length average = 1
Total in-flight flits = 17 (0 measured)
latency change    = 1
throughput change = 1
Class 0:
Packet latency average = 19.8583
	minimum = 7
	maximum = 52
Network latency average = 19.8583
	minimum = 7
	maximum = 52
Slowest packet = 63356
Flit latency average = 19.8583
	minimum = 7
	maximum = 52
Slowest flit = 63356
Fragmentation average = 0
	minimum = 0
	maximum = 0
Injected packet rate average = 0.0523438
	minimum = 0.0395 (at node 13)
	maximum = 0.0615 (at node 11)
Accepted packet rate average = 0.0518125
	minimum = 0.0375 (at node 13)
	maximum = 0.06 (at node 9)
Injected flit rate average = 0.0523438
	minimum = 0.0395 (at node 13)
	maximum = 0.0615 (at node 11)
Accepted flit rate average= 0.0518125
	minimum = 0.0375 (at node 13)
	maximum = 0.06 (at node 9)
Injected packet length average = 1
Accepted packet length average = 1
Total in-flight flits = 17 (0 measured)
latency change    = 0.00403264
throughput change = 0.00482509
Class 0:
Packet latency average = 19.97
	minimum = 7
	maximum = 48
Network latency average = 19.97
	minimum = 7
	maximum = 48
Slowest packet = 64685
Flit latency average = 19.97
	minimum = 7
	maximum = 48
Slowest flit = 64685
Fragmentation average = 0
	minimum = 0
	maximum = 0
Injected packet rate average = 0.0521875
	minimum = 0.04 (at node 9)
	maximum = 0.062 (at node 11)
Accepted packet rate average = 0.052125
	minimum = 0.044 (at node 2)
	maximum = 0.068 (at node 5)
Injected flit rate average = 0.0521875
	minimum = 0.04 (at node 9)
	maximum = 0.062 (at node 11)
Accepted flit rate average= 0.052125
	minimum = 0.044 (at node 2)
	maximum = 0.068 (at node 5)
Injected packet length average = 1
Accepted packet length average = 1
Total in-flight flits = 18 (0 measured)
latency change    = 0.00559644
throughput change = 0.0059952
Warmed up ...Time used is 3000 cycles
Class 0:
Packet latency average = 19.952
	minimum = 7
	maximum = 45
Network latency average = 19.952
	minimum = 7
	maximum = 45
Slowest packet = 65253
Flit latency average = 19.9531
	minimum = 7
	maximum = 45
Slowest flit = 65253
Fragmentation average = 0
	minimum = 0
	maximum = 0
Injected packet rate average = 0.0506875
	minimum = 0.038 (at node 9)
	maximum = 0.071 (at node 1)
Accepted packet rate average = 0.050625
	minimum = 0.041 (at node 10)
	maximum = 0.065 (at node 7)
Injected flit rate average = 0.0506875
	minimum = 0.038 (at node 9)
	maximum = 0.071 (at node 1)
Accepted flit rate average= 0.050625
	minimum = 0.041 (at node 10)
	maximum = 0.065 (at node 7)
Injected packet length average = 1
Accepted packet length average = 1
Total in-flight flits = 19 (19 measured)
latency change    = 0.000902354
throughput change = 0.0296296
Class 0:
Packet latency average = 20.0162
	minimum = 7
	maximum = 50
Network latency average = 20.0162
	minimum = 7
	maximum = 50
Slowest packet = 66061
Flit latency average = 20.016
	minimum = 7
	maximum = 50
Slowest flit = 66061
Fragmentation average = 0
	minimum = 0
	maximum = 0
Injected packet rate average = 0.0506875
	minimum = 0.0415 (at node 3)
	maximum = 0.066 (at node 5)
Accepted packet rate average = 0.0507187
	minimum = 0.043 (at node 6)
	maximum = 0.0615 (at node 5)
Injected flit rate average = 0.0506875
	minimum = 0.0415 (at node 3)
	maximum = 0.066 (at node 5)
Accepted flit rate average= 0.0507187
	minimum = 0.043 (at node 6)
	maximum = 0.0615 (at node 5)
Injected packet length average = 1
Accepted packet length average = 1
Total in-flight flits = 17 (17 measured)
latency change    = 0.00320636
throughput change = 0.00184843
Class 0:
Packet latency average = 19.9593
	minimum = 7
	maximum = 53
Network latency average = 19.9593
	minimum = 7
	maximum = 53
Slowest packet = 67405
Flit latency average = 19.9596
	minimum = 7
	maximum = 53
Slowest flit = 67405
Fragmentation average = 0
	minimum = 0
	maximum = 0
Injected packet rate average = 0.0498333
	minimum = 0.0433333 (at node 3)
	maximum = 0.06 (at node 5)
Accepted packet rate average = 0.05
	minimum = 0.0426667 (at node 12)
	maximum = 0.0566667 (at node 7)
Injected flit rate average = 0.0498333
	minimum = 0.0433333 (at node 3)
	maximum = 0.06 (at node 5)
Accepted flit rate average= 0.05
	minimum = 0.0426667 (at node 12)
	maximum = 0.0566667 (at node 7)
Injected packet length average = 1
Accepted packet length average = 1
Total in-flight flits = 10 (10 measured)
latency change    = 0.00285188
throughput change = 0.014375
Draining all recorded packets ...
Draining remaining packets ...
Time taken is 6047 cycles
Class 0:
Packet latency average = 20.0052
	minimum = 7
	maximum = 40
Network latency average = 20.0052
	minimum = 7
	maximum = 40
Slowest packet = 67569
Flit latency average = 20.0052
	minimum = 7
	maximum = 40
Slowest flit = 67569
Fragmentation average = 0
	minimum = 0
	maximum = 0
Injected packet rate average = 0.0485625
	minimum = 0.035 (at node 3)
	maximum = 0.064 (at node 7)
Accepted packet rate average = 0.0478125
	minimum = 0.034 (at node 13)
	maximum = 0.063 (at node 6)
Injected flit rate average = 0.0485625
	minimum = 0.035 (at node 3)
	maximum = 0.064 (at node 7)
Accepted flit rate average= 0.0478125
	minimum = 0.034 (at node 13)
	maximum = 0.063 (at node 6)
Injected packet length average = 1
Accepted packet length average = 1
Total in-flight flits = 12 (0 measured)
latency change    = 1
throughput change = 1
Class 0:
Packet latency average = 20.1151
	minimum = 7
	maximum = 45
Network latency average = 20.1151
	minimum = 7
	maximum = 45
Slowest packet = 68879
Flit latency average = 20.1151
	minimum = 7
	maximum = 45
Slowest flit = 68879
Fragmentation average = 0
	minimum = 0
	maximum = 0
Injected packet rate average = 0.0487812
	minimum = 0.0395 (at node 3)
	maximum = 0.0555 (at node 7)
Accepted packet rate average = 0.0483437
	minimum = 0.0415 (at node 9)
	maximum = 0.0575 (at node 14)
Injected flit rate average = 0.0487812
	minimum = 0.0395 (at node 3)
	maximum = 0.0555 (at node 7)
Accepted flit rate average= 0.0483437
	minimum = 0.0415 (at node 9)
	maximum = 0.0575 (at node 14)
Injected packet length average = 1
Accepted packet length average = 1
Total in-flight flits = 14 (0 measured)
latency change    = 0.00546022
throughput change = 0.010989
Class 0:
Packet latency average = 20.0265
	minimum = 7
	maximum = 71
Network latency average = 20.0265
	minimum = 7
	maximum = 71
Slowest packet = 69627
Flit latency average = 20.0265
	minimum = 7
	maximum = 71
Slowest flit = 69627
Fragmentation average = 0
	minimum = 0
	maximum = 0
Injected packet rate average = 0.0520625
	minimum = 0.041 (at node 8)
	maximum = 0.062 (at node 13)
Accepted packet rate average = 0.0518125
	minimum = 0.045 (at node 0)
	maximum = 0.059 (at node 7)
Injected flit rate average = 0.0520625
	minimum = 0.041 (at node 8)
	maximum = 0.062 (at node 13)
Accepted flit rate average= 0.0518125
	minimum = 0.045 (at node 0)
	maximum = 0.059 (at node 7)
Injected packet length average = 1
Accepted packet length average = 1
Total in-flight flits = 18 (0 measured)
latency change    = 0.00442031
throughput change = 0.0669481
Warmed up ...Time used is 3000 cycles
Class 0:
Packet latency average = 20.1009
	minimum = 7
	maximum = 41
Network latency average = 20.1009
	minimum = 7
	maximum = 41
Slowest packet = 70050
Flit latency average = 20.1492
	minimum = 7
	maximum = 41
Slowest flit = 70050
Fragmentation average = 0
	minimum = 0
	maximum = 0
Injected packet rate average = 0.0509375
	minimum = 0.037 (at node 6)
	maximum = 0.061 (at node 11)
Accepted packet rate average = 0.0506875
	minimum = 0.038 (at node 13)
	maximum = 0.071 (at node 4)
Injected flit rate average = 0.0509375
	minimum = 0.037 (at node 6)
	maximum = 0.061 (at node 11)
Accepted flit rate average= 0.0506875
	minimum = 0.038 (at node 13)
	maximum = 0.071 (at node 4)
Injected packet length average = 1
Accepted packet length average = 1
Total in-flight flits = 22 (22 measured)
latency change    = 0.00369858
throughput change = 0.0221948
Class 0:
Packet latency average = 20.1858
	minimum = 7
	maximum = 46
Network latency average = 20.1858
	minimum = 7
	maximum = 46
Slowest packet = 70805
Flit latency average = 20.2092
	minimum = 7
	maximum = 46
Slowest flit = 70805
Fragmentation average = 0
	minimum = 0
	maximum = 0
Injected packet rate average = 0.0500937
	minimum = 0.041 (at node 6)
	maximum = 0.059 (at node 12)
Accepted packet rate average = 0.0501875
	minimum = 0.0415 (at node 2)
	maximum = 0.0625 (at node 4)
Injected flit rate average = 0.0500937
	minimum = 0.041 (at node 6)
	maximum = 0.059 (at node 12)
Accepted flit rate average= 0.0501875
	minimum = 0.0415 (at node 2)
	maximum = 0.0625 (at node 4)
Injected packet length average = 1
Accepted packet length average = 1
Total in-flight flits = 15 (15 measured)
latency change    = 0.00420522
throughput change = 0.00996264
Class 0:
Packet latency average = 20.1629
	minimum = 7
	maximum = 46
Network latency average = 20.1629
	minimum = 7
	maximum = 46
Slowest packet = 70805
Flit latency average = 20.1789
	minimum = 7
	maximum = 46
Slowest flit = 70805
Fragmentation average = 0
	minimum = 0
	maximum = 0
Injected packet rate average = 0.0494792
	minimum = 0.0426667 (at node 6)
	maximum = 0.0553333 (at node 3)
Accepted packet rate average = 0.0496042
	minimum = 0.042 (at node 13)
	maximum = 0.0586667 (at node 3)
Injected flit rate average = 0.0494792
	minimum = 0.0426667 (at node 6)
	maximum = 0.0553333 (at node 3)
Accepted flit rate average= 0.0496042
	minimum = 0.042 (at node 13)
	maximum = 0.0586667 (at node 3)
Injected packet length average = 1
Accepted packet length average = 1
Total in-flight flits = 12 (12 measured)
latency change    = 0.00113276
throughput change = 0.0117598
Draining all recorded packets ...
Draining remaining packets ...
Time taken is 6052 cycles
Class 0:
Packet latency average = 19.7776
	minimum = 7
	maximum = 45
Network latency average = 19.7776
	minimum = 7
	maximum = 45
Slowest packet = 73034
Flit latency average = 19.7776
	minimum = 7
	maximum = 45
Slowest flit = 73034
Fragmentation average = 0
	minimum = 0
	maximum = 0
Injected packet rate average = 0.0509375
	minimum = 0.042 (at node 9)
	maximum = 0.058 (at node 10)
Accepted packet rate average = 0.0503125
	minimum = 0.038 (at node 15)
	maximum = 0.067 (at node 5)
Injected flit rate average = 0.0509375
	minimum = 0.042 (at node 9)
	maximum = 0.058 (at node 10)
Accepted flit rate average= 0.0503125
	minimum = 0.038 (at node 15)
	maximum = 0.067 (at node 5)
Injected packet length average = 1
Accepted packet length average = 1
Total in-flight flits = 10 (0 measured)
latency change    = 1
throughput change = 1
Class 0:
Packet latency average = 19.9015
	minimum = 7
	maximum = 45
Network latency average = 19.9015
	minimum = 7
	maximum = 45
Slowest packet = 73034
Flit latency average = 19.9015
	minimum = 7
	maximum = 45
Slowest flit = 73034
Fragmentation average = 0
	minimum = 0
	maximum = 0
Injected packet rate average = 0.0500312
	minimum = 0.0435 (at node 10)
	maximum = 0.0575 (at node 2)
[...]
	minimum = 0.036 (at node 5)
	maximum = 0.059 (at node 12)
Accepted packet rate average = 0.048625
	minimum = 0.039 (at node 4)
	maximum = 0.063 (at node 0)
Injected flit rate average = 0.0489375
	minimum = 0.036 (at node 5)
	maximum = 0.059 (at node 12)
Accepted flit rate average= 0.048625
	minimum = 0.039 (at node 4)
	maximum = 0.063 (at node 0)
Injected packet length average = 1
Accepted packet length average = 1
Total in-flight flits = 25 (25 measured)
latency change    = 0.00765266
throughput change = 0.0398458
Class 0:
Packet latency average = 19.8988
	minimum = 7
	maximum = 50
Network latency average = 19.8988
	minimum = 7
	maximum = 50
Slowest packet = 493387
Flit latency average = 19.9696
	minimum = 7
	maximum = 50
Slowest flit = 493387
Fragmentation average = 0
	minimum = 0
	maximum = 0
Injected packet rate average = 0.0492812
	minimum = 0.044 (at node 5)
	maximum = 0.0565 (at node 9)
Accepted packet rate average = 0.0494062
	minimum = 0.042 (at node 4)
	maximum = 0.059 (at node 2)
Injected flit rate average = 0.0492812
	minimum = 0.044 (at node 5)
	maximum = 0.0565 (at node 9)
Accepted flit rate average= 0.0494062
	minimum = 0.042 (at node 4)
	maximum = 0.059 (at node 2)
Injected packet length average = 1
Accepted packet length average = 1
Total in-flight flits = 16 (16 measured)
latency change    = 0.00409212
throughput change = 0.0158128
Class 0:
Packet latency average = 20.0646
	minimum = 7
	maximum = 52
Network latency average = 20.0646
	minimum = 7
	maximum = 52
Slowest packet = 495079
Flit latency average = 20.1106
	minimum = 7
	maximum = 52
Slowest flit = 495079
Fragmentation average = 0
	minimum = 0
	maximum = 0
Injected packet rate average = 0.0491458
	minimum = 0.044 (at node 5)
	maximum = 0.055 (at node 2)
Accepted packet rate average = 0.0491458
	minimum = 0.0403333 (at node 4)
	maximum = 0.0576667 (at node 13)
Injected flit rate average = 0.0491458
	minimum = 0.044 (at node 5)
	maximum = 0.055 (at node 2)
Accepted flit rate average= 0.0491458
	minimum = 0.0403333 (at node 4)
	maximum = 0.0576667 (at node 13)
Injected packet length average = 1
Accepted packet length average = 1
Total in-flight flits = 20 (20 measured)
latency change    = 0.00826206
throughput change = 0.00529886
Draining all recorded packets ...
Draining remaining packets ...
Time taken is 6058 cycles
Class 0:
Packet latency average = 20.2415
	minimum = 7
	maximum = 47
Network latency average = 20.2415
	minimum = 7
	maximum = 47
Slowest packet = 495544
Flit latency average = 20.2415
	minimum = 7
	maximum = 47
Slowest flit = 495544
Fragmentation average = 0
	minimum = 0
	maximum = 0
Injected packet rate average = 0.0504375
	minimum = 0.041 (at node 13)
	maximum = 0.062 (at node 7)
Accepted packet rate average = 0.0496875
	minimum = 0.042 (at node 12)
	maximum = 0.064 (at node 9)
Injected flit rate average = 0.0504375
	minimum = 0.041 (at node 13)
	maximum = 0.062 (at node 7)
Accepted flit rate average= 0.0496875
	minimum = 0.042 (at node 12)
	maximum = 0.064 (at node 9)
Injected packet length average = 1
Accepted packet length average = 1
Total in-flight flits = 12 (0 measured)
latency change    = 1
throughput change = 1
Class 0:
Packet latency average = 20.1949
	minimum = 7
	maximum = 48
Network latency average = 20.1949
	minimum = 7
	maximum = 48
Slowest packet = 496792
Flit latency average = 20.1949
	minimum = 7
	maximum = 48
Slowest flit = 496792
Fragmentation average = 0
	minimum = 0
	maximum = 0
Injected packet rate average = 0.0511563
	minimum = 0.0445 (at node 12)
	maximum = 0.06 (at node 14)
Accepted packet rate average = 0.0506562
	minimum = 0.0415 (at node 1)
	maximum = 0.062 (at node 9)
Injected flit rate average = 0.0511563
	minimum = 0.0445 (at node 12)
	maximum = 0.06 (at node 14)
Accepted flit rate average= 0.0506562
	minimum = 0.0415 (at node 1)
	maximum = 0.062 (at node 9)
Injected packet length average = 1
Accepted packet length average = 1
Total in-flight flits = 16 (0 measured)
latency change    = 0.00230593
throughput change = 0.019124
Class 0:
Packet latency average = 20.4223
	minimum = 7
	maximum = 42
Network latency average = 20.4223
	minimum = 7
	maximum = 42
Slowest packet = 497419
Flit latency average = 20.4223
	minimum = 7
	maximum = 42
Slowest flit = 497419
Fragmentation average = 0
	minimum = 0
	maximum = 0
Injected packet rate average = 0.0483125
	minimum = 0.038 (at node 2)
	maximum = 0.059 (at node 7)
Accepted packet rate average = 0.04825
	minimum = 0.037 (at node 1)
	maximum = 0.06 (at node 4)
Injected flit rate average = 0.0483125
	minimum = 0.038 (at node 2)
	maximum = 0.059 (at node 7)
Accepted flit rate average= 0.04825
	minimum = 0.037 (at node 1)
	maximum = 0.06 (at node 4)
Injected packet length average = 1
Accepted packet length average = 1
Total in-flight flits = 17 (0 measured)
latency change    = 0.0111319
throughput change = 0.0498705
Warmed up ...Time used is 3000 cycles
Class 0:
Packet latency average = 19.8801
	minimum = 7
	maximum = 43
Network latency average = 19.8801
	minimum = 7
	maximum = 43
Slowest packet = 497661
Flit latency average = 19.9089
	minimum = 7
	maximum = 43
Slowest flit = 497661
Fragmentation average = 0
	minimum = 0
	maximum = 0
Injected packet rate average = 0.0500625
	minimum = 0.037 (at node 7)
	maximum = 0.066 (at node 0)
Accepted packet rate average = 0.0500625
	minimum = 0.036 (at node 9)
	maximum = 0.063 (at node 11)
Injected flit rate average = 0.0500625
	minimum = 0.037 (at node 7)
	maximum = 0.066 (at node 0)
Accepted flit rate average= 0.0500625
	minimum = 0.036 (at node 9)
	maximum = 0.063 (at node 11)
Injected packet length average = 1
Accepted packet length average = 1
Total in-flight flits = 17 (17 measured)
latency change    = 0.0272724
throughput change = 0.0362047
Class 0:
Packet latency average = 19.9759
	minimum = 7
	maximum = 45
Network latency average = 19.9759
	minimum = 7
	maximum = 45
Slowest packet = 498970
Flit latency average = 19.989
	minimum = 7
	maximum = 45
Slowest flit = 498970
Fragmentation average = 0
	minimum = 0
	maximum = 0
Injected packet rate average = 0.051
	minimum = 0.0405 (at node 7)
	maximum = 0.0615 (at node 6)
Accepted packet rate average = 0.0510625
	minimum = 0.043 (at node 14)
	maximum = 0.057 (at node 11)
Injected flit rate average = 0.051
	minimum = 0.0405 (at node 7)
	maximum = 0.0615 (at node 6)
Accepted flit rate average= 0.0510625
	minimum = 0.043 (at node 14)
	maximum = 0.057 (at node 11)
Injected packet length average = 1
Accepted packet length average = 1
Total in-flight flits = 15 (15 measured)
latency change    = 0.00479474
throughput change = 0.0195838
Class 0:
Packet latency average = 19.9321
	minimum = 7
	maximum = 45
Network latency average = 19.9321
	minimum = 7
	maximum = 45
Slowest packet = 498970
Flit latency average = 19.9412
	minimum = 7
	maximum = 45
Slowest flit = 498970
Fragmentation average = 0
	minimum = 0
	maximum = 0
Injected packet rate average = 0.0505
	minimum = 0.045 (at node 7)
	maximum = 0.058 (at node 6)
Accepted packet rate average = 0.0506667
	minimum = 0.044 (at node 2)
	maximum = 0.0583333 (at node 8)
Injected flit rate average = 0.0505
	minimum = 0.045 (at node 7)
	maximum = 0.058 (at node 6)
Accepted flit rate average= 0.0506667
	minimum = 0.044 (at node 2)
	maximum = 0.0583333 (at node 8)
Injected packet length average = 1
Accepted packet length average = 1
Total in-flight flits = 9 (9 measured)
latency change    = 0.00219697
throughput change = 0.0078125
Draining all recorded packets ...
Draining remaining packets ...
Time taken is 6047 cycles
Class 0:
Packet latency average = 20.68
	minimum = 7
	maximum = 51
Network latency average = 20.68
	minimum = 7
	maximum = 51
Slowest packet = 500192
Flit latency average = 20.68
	minimum = 7
	maximum = 51
Slowest flit = 500192
Fragmentation average = 0
	minimum = 0
	maximum = 0
Injected packet rate average = 0.051
	minimum = 0.038 (at node 6)
	maximum = 0.067 (at node 1)
Accepted packet rate average = 0.0501875
	minimum = 0.039 (at node 1)
	maximum = 0.059 (at node 8)
Injected flit rate average = 0.051
	minimum = 0.038 (at node 6)
	maximum = 0.067 (at node 1)
Accepted flit rate average= 0.0501875
	minimum = 0.039 (at node 1)
	maximum = 0.059 (at node 8)
Injected packet length average = 1
Accepted packet length average = 1
Total in-flight flits = 13 (0 measured)
latency change    = 1
throughput change = 1
Class 0:
Packet latency average = 20.4081
	minimum = 7
	maximum = 51
Network latency average = 20.4081
	minimum = 7
	maximum = 51
Slowest packet = 500192
Flit latency average = 20.4081
	minimum = 7
	maximum = 51
Slowest flit = 500192
Fragmentation average = 0
	minimum = 0
	maximum = 0
Injected packet rate average = 0.05125
	minimum = 0.043 (at node 7)
	maximum = 0.0655 (at node 0)
Accepted packet rate average = 0.0508438
	minimum = 0.0425 (at node 1)
	maximum = 0.0625 (at node 14)
Injected flit rate average = 0.05125
	minimum = 0.043 (at node 7)
	maximum = 0.0655 (at node 0)
Accepted flit rate average= 0.0508438
	minimum = 0.0425 (at node 1)
	maximum = 0.0625 (at node 14)
Injected packet length average = 1
Accepted packet length average = 1
Total in-flight flits = 13 (0 measured)
latency change    = 0.0133201
throughput change = 0.0129072
Class 0:
Packet latency average = 20.0999
	minimum = 7
	maximum = 52
Network latency average = 20.0999
	minimum = 7
	maximum = 52
Slowest packet = 502082
Flit latency average = 20.0999
	minimum = 7
	maximum = 52
Slowest flit = 502082
Fragmentation average = 0
	minimum = 0
	maximum = 0
Injected packet rate average = 0.051875
	minimum = 0.037 (at node 10)
	maximum = 0.073 (at node 6)
Accepted packet rate average = 0.0519375
	minimum = 0.041 (at node 1)
	maximum = 0.064 (at node 0)
Injected flit rate average = 0.051875
	minimum = 0.037 (at node 10)
	maximum = 0.073 (at node 6)
Accepted flit rate average= 0.0519375
	minimum = 0.041 (at node 1)
	maximum = 0.064 (at node 0)
Injected packet length average = 1
Accepted packet length average = 1
Total in-flight flits = 12 (0 measured)
latency change    = 0.0153351
throughput change = 0.021059
Warmed up ...Time used is 3000 cycles
Class 0:
Packet latency average = 19.7911
	minimum = 7
	maximum = 44
Network latency average = 19.7911
	minimum = 7
	maximum = 44
Slowest packet = 502544
Flit latency average = 19.8215
	minimum = 7
	maximum = 44
Slowest flit = 502544
Fragmentation average = 0
	minimum = 0
	maximum = 0
Injected packet rate average = 0.048625
	minimum = 0.026 (at node 5)
	maximum = 0.058 (at node 2)
Accepted packet rate average = 0.0483125
	minimum = 0.036 (at node 10)
	maximum = 0.061 (at node 0)
Injected flit rate average = 0.048625
	minimum = 0.026 (at node 5)
	maximum = 0.058 (at node 2)
Accepted flit rate average= 0.0483125
	minimum = 0.036 (at node 10)
	maximum = 0.061 (at node 0)
Injected packet length average = 1
Accepted packet length average = 1
Total in-flight flits = 17 (17 measured)
latency change    = 0.0156038
throughput change = 0.0750323
Class 0:
Packet latency average = 19.9215
	minimum = 7
	maximum = 49
Network latency average = 19.9215
	minimum = 7
	maximum = 49
Slowest packet = 503604
Flit latency average = 19.9356
	minimum = 7
	maximum = 49
Slowest flit = 503604
Fragmentation average = 0
	minimum = 0
	maximum = 0
Injected packet rate average = 0.0486875
	minimum = 0.037 (at node 5)
	maximum = 0.0575 (at node 0)
Accepted packet rate average = 0.0485625
	minimum = 0.037 (at node 15)
	maximum = 0.0595 (at node 0)
Injected flit rate average = 0.0486875
	minimum = 0.037 (at node 5)
	maximum = 0.0575 (at node 0)
Accepted flit rate average= 0.0485625
	minimum = 0.037 (at node 15)
	maximum = 0.0595 (at node 0)
Injected packet length average = 1
Accepted packet length average = 1
Total in-flight flits = 16 (16 measured)
latency change    = 0.006549
throughput change = 0.00514801
Class 0:
Packet latency average = 19.9155
	minimum = 7
	maximum = 49
Network latency average = 19.9155
	minimum = 7
	maximum = 49
Slowest packet = 503604
Flit latency average = 19.9251
	minimum = 7
	maximum = 49
Slowest flit = 503604
Fragmentation average = 0
	minimum = 0
	maximum = 0
Injected packet rate average = 0.0482708
	minimum = 0.039 (at node 5)
	maximum = 0.059 (at node 11)
Accepted packet rate average = 0.0481042
	minimum = 0.0413333 (at node 8)
	maximum = 0.0556667 (at node 0)
Injected flit rate average = 0.0482708
	minimum = 0.039 (at node 5)
	maximum = 0.059 (at node 11)
Accepted flit rate average= 0.0481042
	minimum = 0.0413333 (at node 8)
	maximum = 0.0556667 (at node 0)
Injected packet length average = 1
Accepted packet length average = 1
Total in-flight flits = 20 (20 measured)
latency change    = 0.000300693
throughput change = 0.00952793
Class 0:
Packet latency average = 19.9443
	minimum = 7
	maximum = 54
Network latency average = 19.9443
	minimum = 7
	maximum = 54
Slowest packet = 505172
Flit latency average = 19.9513
	minimum = 7
	maximum = 54
Slowest flit = 505172
Fragmentation average = 0
	minimum = 0
	maximum = 0
Injected packet rate average = 0.0478906
	minimum = 0.042 (at node 3)
	maximum = 0.05575 (at node 11)
Accepted packet rate average = 0.0478437
	minimum = 0.042 (at node 8)
	maximum = 0.0545 (at node 0)
Injected flit rate average = 0.0478906
	minimum = 0.042 (at node 3)
	maximum = 0.05575 (at node 11)
Accepted flit rate average= 0.0478437
	minimum = 0.042 (at node 8)
	maximum = 0.0545 (at node 0)
Injected packet length average = 1
Accepted packet length average = 1
Total in-flight flits = 15 (15 measured)
latency change    = 0.00144003
throughput change = 0.00544307
Draining all recorded packets ...
Draining remaining packets ...
Time taken is 7047 cycles
Class 0:
Packet latency average = 19.8509
	minimum = 7
	maximum = 46
Network latency average = 19.8509
	minimum = 7
	maximum = 46
Slowest packet = 505878
Flit latency average = 19.8509
	minimum = 7
	maximum = 46
Slowest flit = 505878
Fragmentation average = 0
	minimum = 0
	maximum = 0
Injected packet rate average = 0.05125
	minimum = 0.039 (at node 11)
	maximum = 0.067 (at node 14)
Accepted packet rate average = 0.049875
	minimum = 0.04 (at node 6)
	maximum = 0.06 (at node 13)
Injected flit rate average = 0.05125
	minimum = 0.039 (at node 11)
	maximum = 0.067 (at node 14)
Accepted flit rate average= 0.049875
	minimum = 0.04 (at node 6)
	maximum = 0.06 (at node 13)
Injected packet length average = 1
Accepted packet length average = 1
Total in-flight flits = 22 (0 measured)
latency change    = 1
throughput change = 1
Class 0:
Packet latency average = 19.9555
	minimum = 7
	maximum = 46
Network latency average = 19.9555
	minimum = 7
	maximum = 46
Slowest packet = 505878
Flit latency average = 19.9555
	minimum = 7
	maximum = 46
Slowest flit = 505878
Fragmentation average = 0
	minimum = 0
	maximum = 0
Injected packet rate average = 0.0509688
	minimum = 0.043 (at node 3)
	maximum = 0.059 (at node 14)
Accepted packet rate average = 0.0505625
	minimum = 0.043 (at node 0)
	maximum = 0.056 (at node 1)
Injected flit rate average = 0.0509688
	minimum = 0.043 (at node 3)
	maximum = 0.059 (at node 14)
Accepted flit rate average= 0.0505625
	minimum = 0.043 (at node 0)
	maximum = 0.056 (at node 1)
Injected packet length average = 1
Accepted packet length average = 1
Total in-flight flits = 13 (0 measured)
latency change    = 0.00524284
throughput change = 0.013597
Class 0:
Packet latency average = 19.8158
	minimum = 7
	maximum = 52
Network latency average = 19.8158
	minimum = 7
	maximum = 52
Slowest packet = 507334
Flit latency average = 19.8158
	minimum = 7
	maximum = 52
Slowest flit = 507334
Fragmentation average = 0
	minimum = 0
	maximum = 0
Injected packet rate average = 0.0509375
	minimum = 0.038 (at node 15)
	maximum = 0.067 (at node 1)
Accepted packet rate average = 0.0505625
	minimum = 0.039 (at node 12)
	maximum = 0.063 (at node 0)
Injected flit rate average = 0.0509375
	minimum = 0.038 (at node 15)
	maximum = 0.067 (at node 1)
Accepted flit rate average= 0.0505625
	minimum = 0.039 (at node 12)
	maximum = 0.063 (at node 0)
Injected packet length average = 1
Accepted packet length average = 1
Total in-flight flits = 19 (0 measured)
latency change    = 0.00704884
throughput change = 0
Warmed up ...Time used is 3000 cycles
Class 0:
Packet latency average = 20.3456
	minimum = 7
	maximum = 42
Network latency average = 20.3456
	minimum = 7
	maximum = 42
Slowest packet = 508090
Flit latency average = 20.3678
	minimum = 7
	maximum = 42
Slowest flit = 508090
Fragmentation average = 0
	minimum = 0
	maximum = 0
Injected packet rate average = 0.0520625
	minimum = 0.041 (at node 4)
	maximum = 0.059 (at node 8)
Accepted packet rate average = 0.052
	minimum = 0.034 (at node 12)
	maximum = 0.063 (at node 15)
Injected flit rate average = 0.0520625
	minimum = 0.041 (at node 4)
	maximum = 0.059 (at node 8)
Accepted flit rate average= 0.052
	minimum = 0.034 (at node 12)
	maximum = 0.063 (at node 15)
Injected packet length average = 1
Accepted packet length average = 1
Total in-flight flits = 20 (20 measured)
latency change    = 0.0260405
throughput change = 0.0276442
Class 0:
Packet latency average = 20.3113
	minimum = 7
	maximum = 45
Network latency average = 20.3113
	minimum = 7
	maximum = 45
Slowest packet = 509233
Flit latency average = 20.3228
	minimum = 7
	maximum = 45
Slowest flit = 509233
Fragmentation average = 0
	minimum = 0
	maximum = 0
Injected packet rate average = 0.052125
	minimum = 0.0445 (at node 10)
	maximum = 0.0625 (at node 3)
Accepted packet rate average = 0.0521875
	minimum = 0.0405 (at node 12)
	maximum = 0.0605 (at node 5)
Injected flit rate average = 0.052125
	minimum = 0.0445 (at node 10)
	maximum = 0.0625 (at node 3)
Accepted flit rate average= 0.0521875
	minimum = 0.0405 (at node 12)
	maximum = 0.0605 (at node 5)
Injected packet length average = 1
Accepted packet length average = 1
Total in-flight flits = 17 (17 measured)
latency change    = 0.00168906
throughput change = 0.00359281
Class 0:
Packet latency average = 20.3567
	minimum = 7
	maximum = 45
Network latency average = 20.3567
	minimum = 7
	maximum = 45
Slowest packet = 509233
Flit latency average = 20.3642
	minimum = 7
	maximum = 45
Slowest flit = 509233
Fragmentation average = 0
	minimum = 0
	maximum = 0
Injected packet rate average = 0.0511042
	minimum = 0.0463333 (at node 5)
	maximum = 0.0593333 (at node 3)
Accepted packet rate average = 0.0511458
	minimum = 0.0443333 (at node 1)
	maximum = 0.0583333 (at node 15)
Injected flit rate average = 0.0511042
	minimum = 0.0463333 (at node 5)
	maximum = 0.0593333 (at node 3)
Accepted flit rate average= 0.0511458
	minimum = 0.0443333 (at node 1)
	maximum = 0.0583333 (at node 15)
Injected packet length average = 1
Accepted packet length average = 1
Total in-flight flits = 17 (17 measured)
latency change    = 0.00223051
throughput change = 0.0203666
Draining all recorded packets ...
Draining remaining packets ...
Time taken is 6062 cycles
====== Overall Traffic Statistics ======
====== Traffic class 0 ======
Packet latency average = 20.0685 (100 samples)
	minimum = 7 (100 samples)
	maximum = 50.54 (100 samples)
Network latency average = 20.0684 (100 samples)
	minimum = 7 (100 samples)
	maximum = 50.53 (100 samples)
Flit latency average = 20.0833 (100 samples)
	minimum = 7 (100 samples)
	maximum = 50.53 (100 samples)
Fragmentation average = 0 (100 samples)
	minimum = 0 (100 samples)
	maximum = 0 (100 samples)
Injected packet rate average = 0.0498204 (100 samples)
	minimum = 0.0429848 (100 samples)
	maximum = 0.0567887 (100 samples)
Accepted packet rate average = 0.0498259 (100 samples)
	minimum = 0.0430465 (100 samples)
	maximum = 0.0567557 (100 samples)
Injected flit rate average = 0.0498204 (100 samples)
	minimum = 0.0429848 (100 samples)
	maximum = 0.0567887 (100 samples)
Accepted flit rate average = 0.0498259 (100 samples)
	minimum = 0.0430465 (100 samples)
	maximum = 0.0567557 (100 samples)
Injected packet size average = 1 (100 samples)
Accepted packet size average = 1 (100 samples)
Hops average = 3.50327 (100 samples)
Total run time 6.84651
