BEGIN Configuration File: /tmp/tmpbdd4f1ts.cfg
topology = mesh;
k = 8; n = 2;
routing_function = dor;
num_vcs = 4; vc_buf_size = 4;
wait_for_tail_credit = 1;
vc_allocator = islip; sw_allocator = islip;
alloc_iters = 1;
credit_delay = 2; routing_delay = 1;
vc_alloc_delay = 1; sw_alloc_delay = 1;
input_speedup = 2; output_speedup = 1; internal_speedup = 1.0;
traffic = uniform;
packet_size = 1; sim_type = latency;
injection_rate = 0.05;
warmup_periods = 3; sample_period = 1000; sim_count = 100;
seed = 1;

END Configuration File: /tmp/tmpbdd4f1ts.cfg
Class 0:
Packet latency average = 33.0462
	minimum = 7
	maximum = 78
Network latency average = 33.0462
	minimum = 7
	maximum = 78
Slowest packet = 1481
Flit latency average = 33.0462
	minimum = 7
	maximum = 78
Slowest flit = 1481
Fragmentation average = 0
	minimum = 0
	maximum = 0
Injected packet rate average = 0.0512813
	minimum = 0.035 (at node 0)
	maximum = 0.07 (at node 23)
Accepted packet rate average = 0.0493437
	minimum = 0.035 (at node 23)
	maximum = 0.069 (at node 63)
Injected flit rate average = 0.0512813
	minimum = 0.035 (at node 0)
	maximum = 0.07 (at node 23)
Accepted flit rate average= 0.0493437
	minimum = 0.035 (at node 23)
	maximum = 0.069 (at node 63)
Injected packet length average = 1
Accepted packet length average = 1
Total in-flight flits = 124 (0 measured)
latency change    = 1
throughput change = 1
Class 0:
Packet latency average = 33.2858
	minimum = 7
	maximum = 78
Network latency average = 33.2858
	minimum = 7
	maximum = 78
Slowest packet = 1481
Flit latency average = 33.2858
	minimum = 7
	maximum = 78
Slowest flit = 1481
Fragmentation average = 0
	minimum = 0
	maximum = 0
Injected packet rate average = 0.0509219
	minimum = 0.0405 (at node 47)
	maximum = 0.062 (at node 33)
Accepted packet rate average = 0.0500469
	minimum = 0.037 (at node 10)
	maximum = 0.061 (at node 63)
Injected flit rate average = 0.0509219
	minimum = 0.0405 (at node 47)
	maximum = 0.062 (at node 33)
Accepted flit rate average= 0.0500469
	minimum = 0.037 (at node 10)
	maximum = 0.061 (at node 63)
Injected packet length average = 1
Accepted packet length average = 1
Total in-flight flits = 112 (0 measured)
latency change    = 0.00719808
throughput change = 0.0140493
Class 0:
Packet latency average = 33.3774
	minimum = 7
	maximum = 78
Network latency average = 33.3768
	minimum = 7
	maximum = 78
Slowest packet = 6514
Flit latency average = 33.3768
	minimum = 7
	maximum = 78
Slowest flit = 6514
Fragmentation average = 0
	minimum = 0
	maximum = 0
Injected packet rate average = 0.0487812
	minimum = 0.034 (at node 37)
	maximum = 0.063 (at node 6)
Accepted packet rate average = 0.0488125
	minimum = 0.038 (at node 27)
	maximum = 0.062 (at node 22)
Injected flit rate average = 0.0487812
	minimum = 0.034 (at node 37)
	maximum = 0.063 (at node 6)
Accepted flit rate average= 0.0488125
	minimum = 0.038 (at node 27)
	maximum = 0.062 (at node 22)
Injected packet length average = 1
Accepted packet length average = 1
Total in-flight flits = 110 (0 measured)
latency change    = 0.00274362
throughput change = 0.0252881
Warmed up ...Time used is 3000 cycles
Class 0:
Packet latency average = 33.0534
	minimum = 7
	maximum = 78
Network latency average = 33.0534
	minimum = 7
	maximum = 78
Slowest packet = 9756
Flit latency average = 33.2918
	minimum = 7
	maximum = 78
Slowest flit = 9756
Fragmentation average = 0
	minimum = 0
	maximum = 0
Injected packet rate average = 0.0492969
	minimum = 0.036 (at node 46)
	maximum = 0.066 (at node 4)
Accepted packet rate average = 0.049375
	minimum = 0.036 (at node 4)
	maximum = 0.065 (at node 52)
Injected flit rate average = 0.0492969
	minimum = 0.036 (at node 46)
	maximum = 0.066 (at node 4)
Accepted flit rate average= 0.049375
	minimum = 0.036 (at node 4)
	maximum = 0.065 (at node 52)
Injected packet length average = 1
Accepted packet length average = 1
Total in-flight flits = 105 (105 measured)
latency change    = 0.00980104
throughput change = 0.0113924
Class 0:
Packet latency average = 33.0822
	minimum = 7
	maximum = 79
Network latency average = 33.0819
	minimum = 7
	maximum = 79
Slowest packet = 12716
Flit latency average = 33.2007
	minimum = 7
	maximum = 79
Slowest flit = 12716
Fragmentation average = 0
	minimum = 0
	maximum = 0
Injected packet rate average = 0.0493359
	minimum = 0.0365 (at node 24)
	maximum = 0.0675 (at node 55)
Accepted packet rate average = 0.0493203
	minimum = 0.0355 (at node 45)
	maximum = 0.061 (at node 17)
Injected flit rate average = 0.0493359
	minimum = 0.0365 (at node 24)
	maximum = 0.0675 (at node 55)
Accepted flit rate average= 0.0493203
	minimum = 0.0355 (at node 45)
	maximum = 0.061 (at node 17)
Injected packet length average = 1
Accepted packet length average = 1
Total in-flight flits = 112 (112 measured)
latency change    = 0.000869823
throughput change = 0.00110882
Class 0:
Packet latency average = 33.2939
	minimum = 7
	maximum = 79
Network latency average = 33.2937
	minimum = 7
	maximum = 79
Slowest packet = 12716
Flit latency average = 33.3696
	minimum = 7
	maximum = 79
Slowest flit = 12716
Fragmentation average = 0
	minimum = 0
	maximum = 0
Injected packet rate average = 0.0497969
	minimum = 0.038 (at node 24)
	maximum = 0.0606667 (at node 55)
Accepted packet rate average = 0.0498542
	minimum = 0.0366667 (at node 24)
	maximum = 0.0596667 (at node 7)
Injected flit rate average = 0.0497969
	minimum = 0.038 (at node 24)
	maximum = 0.0606667 (at node 55)
Accepted flit rate average= 0.0498542
	minimum = 0.0366667 (at node 24)
	maximum = 0.0596667 (at node 7)
Injected packet length average = 1
Accepted packet length average = 1
Total in-flight flits = 99 (99 measured)
latency change    = 0.00635835
throughput change = 0.0107083
Draining all recorded packets ...
Draining remaining packets ...
Time taken is 6106 cycles
Class 0:
Packet latency average = 33.1719
	minimum = 7
	maximum = 78
Network latency average = 33.1719
	minimum = 7
	maximum = 78
Slowest packet = 21998
Flit latency average = 33.1719
	minimum = 7
	maximum = 78
Slowest flit = 21998
Fragmentation average = 0
	minimum = 0
	maximum = 0
Injected packet rate average = 0.0508438
	minimum = 0.035 (at node 25)
	maximum = 0.067 (at node 26)
Accepted packet rate average = 0.0491875
	minimum = 0.031 (at node 27)
	maximum = 0.074 (at node 37)
Injected flit rate average = 0.0508438
	minimum = 0.035 (at node 25)
	maximum = 0.067 (at node 26)
Accepted flit rate average= 0.0491875
	minimum = 0.031 (at node 27)
	maximum = 0.074 (at node 37)
Injected packet length average = 1
Accepted packet length average = 1
Total in-flight flits = 106 (0 measured)
latency change    = 1
throughput change = 1
Class 0:
Packet latency average = 33.2669
	minimum = 7
	maximum = 78
Network latency average = 33.2669
	minimum = 7
	maximum = 78
Slowest packet = 21998
Flit latency average = 33.2669
	minimum = 7
	maximum = 78
Slowest flit = 21998
Fragmentation average = 0
	minimum = 0
	maximum = 0
Injected packet rate average = 0.0513281
	minimum = 0.039 (at node 47)
	maximum = 0.0635 (at node 27)
Accepted packet rate average = 0.0504062
	minimum = 0.0365 (at node 27)
	maximum = 0.065 (at node 59)
Injected flit rate average = 0.0513281
	minimum = 0.039 (at node 47)
	maximum = 0.0635 (at node 27)
Accepted flit rate average= 0.0504062
	minimum = 0.0365 (at node 27)
	maximum = 0.065 (at node 59)
Injected packet length average = 1
Accepted packet length average = 1
Total in-flight flits = 118 (0 measured)
latency change    = 0.00285686
throughput change = 0.0241785
Class 0:
Packet latency average = 33.1039
	minimum = 7
	maximum = 78
Network latency average = 33.1039
	minimum = 7
	maximum = 78
Slowest packet = 25733
Flit latency average = 33.1039
	minimum = 7
	maximum = 78
Slowest flit = 25733
Fragmentation average = 0
	minimum = 0
	maximum = 0
Injected packet rate average = 0.0504375
	minimum = 0.035 (at node 1)
	maximum = 0.067 (at node 44)
Accepted packet rate average = 0.0505312
	minimum = 0.034 (at node 50)
	maximum = 0.068 (at node 25)
Injected flit rate average = 0.0504375
	minimum = 0.035 (at node 1)
	maximum = 0.067 (at node 44)
Accepted flit rate average= 0.0505312
	minimum = 0.034 (at node 50)
	maximum = 0.068 (at node 25)
Injected packet length average = 1
Accepted packet length average = 1
Total in-flight flits = 112 (0 measured)
latency change    = 0.00492383
throughput change = 0.00247372
Warmed up ...Time used is 3000 cycles
Class 0:
Packet latency average = 33.5495
	minimum = 7
	maximum = 78
Network latency average = 33.5495
	minimum = 7
	maximum = 78
Slowest packet = 31998
Flit latency average = 33.6887
	minimum = 7
	maximum = 78
Slowest flit = 31998
Fragmentation average = 0
	minimum = 0
	maximum = 0
Injected packet rate average = 0.0482344
	minimum = 0.036 (at node 50)
	maximum = 0.064 (at node 47)
Accepted packet rate average = 0.0484375
	minimum = 0.036 (at node 42)
	maximum = 0.06 (at node 63)
Injected flit rate average = 0.0482344
	minimum = 0.036 (at node 50)
	maximum = 0.064 (at node 47)
Accepted flit rate average= 0.0484375
	minimum = 0.036 (at node 42)
	maximum = 0.06 (at node 63)
Injected packet length average = 1
Accepted packet length average = 1
Total in-flight flits = 99 (99 measured)
latency change    = 0.0132829
throughput change = 0.0432258
Class 0:
Packet latency average = 33.5141
	minimum = 7
	maximum = 80
Network latency average = 33.5141
	minimum = 7
	maximum = 80
Slowest packet = 33297
Flit latency average = 33.583
	minimum = 7
	maximum = 80
Slowest flit = 33297
Fragmentation average = 0
	minimum = 0
	maximum = 0
Injected packet rate average = 0.0491484
	minimum = 0.037 (at node 12)
	maximum = 0.0595 (at node 43)
Accepted packet rate average = 0.0493672
	minimum = 0.039 (at node 45)
	maximum = 0.063 (at node 22)
Injected flit rate average = 0.0491484
	minimum = 0.037 (at node 12)
	maximum = 0.0595 (at node 43)
Accepted flit rate average= 0.0493672
	minimum = 0.039 (at node 45)
	maximum = 0.063 (at node 22)
Injected packet length average = 1
Accepted packet length average = 1
Total in-flight flits = 84 (84 measured)
latency change    = 0.0010573
throughput change = 0.0188321
Class 0:
Packet latency average = 33.372
	minimum = 7
	maximum = 80
Network latency average = 33.3717
	minimum = 7
	maximum = 80
Slowest packet = 33297
Flit latency average = 33.4192
	minimum = 7
	maximum = 80
Slowest flit = 33297
Fragmentation average = 0
	minimum = 0
	maximum = 0
Injected packet rate average = 0.0495312
	minimum = 0.042 (at node 6)
	maximum = 0.058 (at node 43)
Accepted packet rate average = 0.0495365
	minimum = 0.0403333 (at node 42)
	maximum = 0.0593333 (at node 22)
Injected flit rate average = 0.0495312
	minimum = 0.042 (at node 6)
	maximum = 0.058 (at node 43)
Accepted flit rate average= 0.0495365
	minimum = 0.0403333 (at node 42)
	maximum = 0.0593333 (at node 22)
Injected packet length average = 1
Accepted packet length average = 1
Total in-flight flits = 111 (111 measured)
latency change    = 0.00425934
throughput change = 0.0034171
Draining all recorded packets ...
Draining remaining packets ...
Time taken is 6103 cycles
Class 0:
Packet latency average = 33.389
	minimum = 7
	maximum = 78
Network latency average = 33.389
	minimum = 7
	maximum = 78
Slowest packet = 41507
Flit latency average = 33.389
	minimum = 7
	maximum = 78
Slowest flit = 41507
Fragmentation average = 0
	minimum = 0
	maximum = 0
Injected packet rate average = 0.0505469
	minimum = 0.034 (at node 61)
	maximum = 0.072 (at node 53)
Accepted packet rate average = 0.049
	minimum = 0.035 (at node 7)
	maximum = 0.062 (at node 61)
Injected flit rate average = 0.0505469
	minimum = 0.034 (at node 61)
	maximum = 0.072 (at node 53)
Accepted flit rate average= 0.049
	minimum = 0.035 (at node 7)
	maximum = 0.062 (at node 61)
Injected packet length average = 1
Accepted packet length average = 1
Total in-flight flits = 99 (0 measured)
latency change    = 1
throughput change = 1
Class 0:
Packet latency average = 33.7402
	minimum = 7
	maximum = 78
Network latency average = 33.7402
	minimum = 7
	maximum = 78
Slowest packet = 41507
Flit latency average = 33.7402
	minimum = 7
	maximum = 78
Slowest flit = 41507
Fragmentation average = 0
	minimum = 0
	maximum = 0
Injected packet rate average = 0.0504375
	minimum = 0.0385 (at node 35)
	maximum = 0.0615 (at node 9)
Accepted packet rate average = 0.0495
	minimum = 0.0355 (at node 17)
	maximum = 0.0585 (at node 48)
Injected flit rate average = 0.0504375
	minimum = 0.0385 (at node 35)
	maximum = 0.0615 (at node 9)
Accepted flit rate average= 0.0495
	minimum = 0.0355 (at node 17)
	maximum = 0.0585 (at node 48)
Injected packet length average = 1
Accepted packet length average = 1
Total in-flight flits = 120 (0 measured)
latency change    = 0.0104085
throughput change = 0.010101
Class 0:
Packet latency average = 33.6749
	minimum = 7
	maximum = 77
Network latency average = 33.6749
	minimum = 7
	maximum = 77
Slowest packet = 46216
Flit latency average = 33.6749
	minimum = 7
	maximum = 77
Slowest flit = 46216
Fragmentation average = 0
	minimum = 0
	maximum = 0
Injected packet rate average = 0.0486406
	minimum = 0.035 (at node 44)
	maximum = 0.068 (at node 6)
Accepted packet rate average = 0.0489219
	minimum = 0.03 (at node 19)
	maximum = 0.061 (at node 26)
Injected flit rate average = 0.0486406
	minimum = 0.035 (at node 44)
	maximum = 0.068 (at node 6)
Accepted flit rate average= 0.0489219
	minimum = 0.03 (at node 19)
	maximum = 0.061 (at node 26)
Injected packet length average = 1
Accepted packet length average = 1
Total in-flight flits = 102 (0 measured)
latency change    = 0.00194063
throughput change = 0.0118173
Warmed up ...Time used is 3000 cycles
Class 0:
Packet latency average = 33.131
	minimum = 7
	maximum = 77
Network latency average = 33.131
	minimum = 7
	maximum = 77
Slowest packet = 48542
Flit latency average = 33.3143
	minimum = 7
	maximum = 77
Slowest flit = 48291
Fragmentation average = 0
	minimum = 0
	maximum = 0
Injected packet rate average = 0.0509063
	minimum = 0.036 (at node 28)
	maximum = 0.065 (at node 18)
Accepted packet rate average = 0.0506094
	minimum = 0.035 (at node 6)
	maximum = 0.07 (at node 19)
Injected flit rate average = 0.0509063
	minimum = 0.036 (at node 28)
	maximum = 0.065 (at node 18)
Accepted flit rate average= 0.0506094
	minimum = 0.035 (at node 6)
	maximum = 0.07 (at node 19)
Injected packet length average = 1
Accepted packet length average = 1
Total in-flight flits = 121 (121 measured)
latency change    = 0.0164151
throughput change = 0.0333436
Class 0:
Packet latency average = 33.3415
	minimum = 7
	maximum = 77
Network latency average = 33.3415
	minimum = 7
	maximum = 77
Slowest packet = 48542
Flit latency average = 33.4297
	minimum = 7
	maximum = 77
Slowest flit = 48291
Fragmentation average = 0
	minimum = 0
	maximum = 0
Injected packet rate average = 0.0505781
	minimum = 0.04 (at node 13)
	maximum = 0.059 (at node 24)
Accepted packet rate average = 0.0506875
	minimum = 0.0405 (at node 55)
	maximum = 0.061 (at node 36)
Injected flit rate average = 0.0505781
	minimum = 0.04 (at node 13)
	maximum = 0.059 (at node 24)
Accepted flit rate average= 0.0506875
	minimum = 0.0405 (at node 55)
	maximum = 0.061 (at node 36)
Injected packet length average = 1
Accepted packet length average = 1
Total in-flight flits = 88 (88 measured)
latency change    = 0.00631379
throughput change = 0.00154131
Class 0:
Packet latency average = 33.393
	minimum = 7
	maximum = 77
Network latency average = 33.393
	minimum = 7
	maximum = 77
Slowest packet = 48542
Flit latency average = 33.4514
	minimum = 7
	maximum = 77
Slowest flit = 48291
Fragmentation average = 0
	minimum = 0
	maximum = 0
Injected packet rate average = 0.0505
	minimum = 0.0413333 (at node 13)
	maximum = 0.0593333 (at node 3)
Accepted packet rate average = 0.0505208
	minimum = 0.0393333 (at node 6)
	maximum = 0.0593333 (at node 36)
Injected flit rate average = 0.0505
	minimum = 0.0413333 (at node 13)
	maximum = 0.0593333 (at node 3)
Accepted flit rate average= 0.0505208
	minimum = 0.0393333 (at node 6)
	maximum = 0.0593333 (at node 36)
Injected packet length average = 1
Accepted packet length average = 1
Total in-flight flits = 98 (98 measured)
latency change    = 0.00154135
throughput change = 0.00329897
Draining all recorded packets ...
Draining remaining packets ...
Time taken is 6126 cycles
Class 0:
Packet latency average = 33.3412
	minimum = 7
	maximum = 77
Network latency average = 33.3412
	minimum = 7
	maximum = 77
Slowest packet = 58423
Flit latency average = 33.3412
	minimum = 7
	maximum = 77
Slowest flit = 58423
Fragmentation average = 0
	minimum = 0
	maximum = 0
Injected packet rate average = 0.0507812
	minimum = 0.03 (at node 52)
	maximum = 0.07 (at node 16)
Accepted packet rate average = 0.0490469
	minimum = 0.037 (at node 44)
	maximum = 0.068 (at node 50)
Injected flit rate average = 0.0507812
	minimum = 0.03 (at node 52)
	maximum = 0.07 (at node 16)
Accepted flit rate average= 0.0490469
	minimum = 0.037 (at node 44)
	maximum = 0.068 (at node 50)
Injected packet length average = 1
Accepted packet length average = 1
Total in-flight flits = 111 (0 measured)
latency change    = 1
throughput change = 1
Class 0:
Packet latency average = 33.3508
	minimum = 7
	maximum = 79
Network latency average = 33.3508
	minimum = 7
	maximum = 79
Slowest packet = 62740
Flit latency average = 33.3508
	minimum = 7
	maximum = 79
Slowest flit = 62740
Fragmentation average = 0
	minimum = 0
	maximum = 0
Injected packet rate average = 0.0504062
	minimum = 0.0365 (at node 52)
	maximum = 0.0635 (at node 28)
Accepted packet rate average = 0.0495234
	minimum = 0.037 (at node 44)
	maximum = 0.061 (at node 50)
Injected flit rate average = 0.0504062
	minimum = 0.0365 (at node 52)
	maximum = 0.0635 (at node 28)
Accepted flit rate average= 0.0495234
	minimum = 0.037 (at node 44)
	maximum = 0.061 (at node 50)
Injected packet length average = 1
Accepted packet length average = 1
Total in-flight flits = 113 (0 measured)
latency change    = 0.000289424
throughput change = 0.00962297
Class 0:
Packet latency average = 33.3529
	minimum = 7
	maximum = 78
Network latency average = 33.3529
	minimum = 7
	maximum = 78
Slowest packet = 66059
Flit latency average = 33.3529
	minimum = 7
	maximum = 78
Slowest flit = 66059
Fragmentation average = 0
	minimum = 0
	maximum = 0
Injected packet rate average = 0.0510625
	minimum = 0.037 (at node 10)
	maximum = 0.067 (at node 33)
Accepted packet rate average = 0.051
	minimum = 0.033 (at node 31)
	maximum = 0.067 (at node 50)
Injected flit rate average = 0.0510625
	minimum = 0.037 (at node 10)
	maximum = 0.067 (at node 33)
Accepted flit rate average= 0.051
	minimum = 0.033 (at node 31)
	maximum = 0.067 (at node 50)
Injected packet length average = 1
Accepted packet length average = 1
Total in-flight flits = 117 (0 measured)
latency change    = 6.28789e-05
throughput change = 0.0289522
Warmed up ...Time used is 3000 cycles
Class 0:
Packet latency average = 33.1264
	minimum = 7
	maximum = 78
Network latency average = 33.1264
	minimum = 7
	maximum = 78
Slowest packet = 70618
Flit latency average = 33.3801
	minimum = 7
	maximum = 78
Slowest flit = 70618
Fragmentation average = 0
	minimum = 0
	maximum = 0
Injected packet rate average = 0.0496562
	minimum = 0.036 (at node 44)
	maximum = 0.065 (at node 16)
Accepted packet rate average = 0.0500312
	minimum = 0.036 (at node 20)
	maximum = 0.065 (at node 50)
Injected flit rate average = 0.0496562
	minimum = 0.036 (at node 44)
	maximum = 0.065 (at node 16)
Accepted flit rate average= 0.0500312
	minimum = 0.036 (at node 20)
	maximum = 0.065 (at node 50)
Injected packet length average = 1
Accepted packet length average = 1
Total in-flight flits = 93 (93 measured)
latency change    = 0.00683814
throughput change = 0.0193629
Class 0:
Packet latency average = 33.3574
	minimum = 7
	maximum = 80
Network latency average = 33.3574
	minimum = 7
	maximum = 80
Slowest packet = 72927
Flit latency average = 33.4803
	minimum = 7
	maximum = 80
Slowest flit = 72927
Fragmentation average = 0
	minimum = 0
	maximum = 0
Injected packet rate average = 0.0497578
	minimum = 0.0395 (at node 9)
	maximum = 0.064 (at node 33)
Accepted packet rate average = 0.0499062
	minimum = 0.041 (at node 57)
	maximum = 0.062 (at node 37)
Injected flit rate average = 0.0497578
	minimum = 0.0395 (at node 9)
	maximum = 0.064 (at node 33)
Accepted flit rate average= 0.0499062
	minimum = 0.041 (at node 57)
	maximum = 0.062 (at node 37)
Injected packet length average = 1
Accepted packet length average = 1
Total in-flight flits = 98 (98 measured)
latency change    = 0.00692324
throughput change = 0.0025047
Class 0:
Packet latency average = 33.3597
	minimum = 7
	maximum = 80
Network latency average = 33.3596
	minimum = 7
	maximum = 80
Slowest packet = 72927
Flit latency average = 33.442
	minimum = 7
	maximum = 80
Slowest flit = 72927
Fragmentation average = 0
	minimum = 0
	maximum = 0
Injected packet rate average = 0.0495417
	minimum = 0.04 (at node 9)
	maximum = 0.0606667 (at node 15)
Accepted packet rate average = 0.0496198
	minimum = 0.0416667 (at node 32)
	maximum = 0.062 (at node 60)
Injected flit rate average = 0.0495417
	minimum = 0.04 (at node 9)
	maximum = 0.0606667 (at node 15)
Accepted flit rate average= 0.0496198
	minimum = 0.0416667 (at node 32)
	maximum = 0.062 (at node 60)
Injected packet length average = 1
Accepted packet length average = 1
Total in-flight flits = 102 (102 measured)
latency change    = 7.08766e-05
throughput change = 0.00577307
Draining all recorded packets ...
Draining remaining packets ...
Time taken is 6131 cycles
Class 0:
Packet latency average = 32.7992
	minimum = 7
	maximum = 77
Network latency average = 32.7992
	minimum = 7
	maximum = 77
Slowest packet = 79274
Flit latency average = 32.7992
	minimum = 7
	maximum = 77
Slowest flit = 79274
Fragmentation average = 0
	minimum = 0
	maximum = 0
Injected packet rate average = 0.0510156
	minimum = 0.033 (at node 32)
	maximum = 0.066 (at node 49)
Accepted packet rate average = 0.0493437
	minimum = 0.036 (at node 16)
	maximum = 0.064 (at node 17)
Injected flit rate average = 0.0510156
	minimum = 0.033 (at node 32)
	maximum = 0.066 (at node 49)
Accepted flit rate average= 0.0493437
	minimum = 0.036 (at node 16)
	maximum = 0.064 (at node 17)
Injected packet length average = 1
Accepted packet length average = 1
Total in-flight flits = 107 (0 measured)
latency change    = 1
throughput change = 1
Class 0:
Packet latency average = 33.0934
	minimum = 7
	maximum = 81
Network latency average = 33.0934
	minimum = 7
	maximum = 81
Slowest packet = 83679
Flit latency average = 33.0934
	minimum = 7
	maximum = 81
Slowest flit = 83679
Fragmentation average = 0
	minimum = 0
	maximum = 0
Injected packet rate average = 0.0504531
	minimum = 0.0355 (at node 32)
	maximum = 0.0635 (at node 57)
Accepted packet rate average = 0.0497891
	minimum = 0.0385 (at node 24)
	maximum = 0.062 (at node 10)
Injected flit rate average = 0.0504531
	minimum = 0.0355 (at node 32)
	maximum = 0.0635 (at node 57)
Accepted flit rate average= 0.0497891
	minimum = 0.0385 (at node 24)
	maximum = 0.062 (at node 10)
Injected packet length average = 1
Accepted packet length average = 1
Total in-flight flits = 85 (0 measured)
latency change    = 0.00888766
throughput change = 0.00894398
Class 0:
Packet latency average = 33.3709
	minimum = 7
	maximum = 79
Network latency average = 33.3709
	minimum = 7
	maximum = 79
Slowest packet = 85827
Flit latency average = 33.3709
	minimum = 7
	maximum = 79
Slowest flit = 85827
Fragmentation average = 0
	minimum = 0
	maximum = 0
Injected packet rate average = 0.0486875
	minimum = 0.032 (at node 28)
	maximum = 0.065 (at node 5)
Accepted packet rate average = 0.0485781
	minimum = 0.033 (at node 21)
	maximum = 0.066 (at node 6)
Injected flit rate average = 0.0486875
	minimum = 0.032 (at node 28)
	maximum = 0.065 (at node 5)
Accepted flit rate average= 0.0485781
	minimum = 0.033 (at node 21)
	maximum = 0.066 (at node 6)
Injected packet length average = 1
Accepted packet length average = 1
Total in-flight flits = 92 (0 measured)
latency change    = 0.00831552
throughput change = 0.0249276
Warmed up ...Time used is 3000 cycles
Class 0:
Packet latency average = 33.2093
	minimum = 7
	maximum = 77
Network latency average = 33.2093
	minimum = 7
	maximum = 77
Slowest packet = 88416
Flit latency average = 33.4453
	minimum = 7
	maximum = 77
Slowest flit = 87242
Fragmentation average = 0
	minimum = 0
	maximum = 0
Injected packet rate average = 0.0504687
	minimum = 0.03 (at node 25)
	maximum = 0.071 (at node 7)
Accepted packet rate average = 0.05025
	minimum = 0.033 (at node 49)
	maximum = 0.067 (at node 28)
Injected flit rate average = 0.0504687
	minimum = 0.03 (at node 25)
	maximum = 0.071 (at node 7)
Accepted flit rate average= 0.05025
	minimum = 0.033 (at node 49)
	maximum = 0.067 (at node 28)
Injected packet length average = 1
Accepted packet length average = 1
Total in-flight flits = 106 (106 measured)
latency change    = 0.00486344
throughput change = 0.0332711
Class 0:
Packet latency average = 33.3208
	minimum = 7
	maximum = 80
Network latency average = 33.3208
	minimum = 7
	maximum = 80
Slowest packet = 92500
Flit latency average = 33.4384
	minimum = 7
	maximum = 80
Slowest flit = 92500
Fragmentation average = 0
	minimum = 0
	maximum = 0
Injected packet rate average = 0.0499062
	minimum = 0.036 (at node 25)
	maximum = 0.059 (at node 33)
Accepted packet rate average = 0.0497344
	minimum = 0.0345 (at node 49)
	maximum = 0.062 (at node 44)
Injected flit rate average = 0.0499062
	minimum = 0.036 (at node 25)
	maximum = 0.059 (at node 33)
Accepted flit rate average= 0.0497344
	minimum = 0.0345 (at node 49)
	maximum = 0.062 (at node 44)
Injected packet length average = 1
Accepted packet length average = 1
Total in-flight flits = 114 (114 measured)
latency change    = 0.00334628
throughput change = 0.0103676
Class 0:
Packet latency average = 33.3318
	minimum = 7
	maximum = 80
Network latency average = 33.3317
	minimum = 7
	maximum = 80
Slowest packet = 92500
Flit latency average = 33.4098
	minimum = 7
	maximum = 80
Slowest flit = 92500
Fragmentation average = 0
	minimum = 0
	maximum = 0
Injected packet rate average = 0.0499531
	minimum = 0.0396667 (at node 32)
	maximum = 0.0586667 (at node 15)
Accepted packet rate average = 0.049875
	minimum = 0.039 (at node 49)
	maximum = 0.0586667 (at node 30)
Injected flit rate average = 0.0499531
	minimum = 0.0396667 (at node 32)
	maximum = 0.0586667 (at node 15)
Accepted flit rate average= 0.049875
	minimum = 0.039 (at node 49)
	maximum = 0.0586667 (at node 30)
Injected packet length average = 1
Accepted packet length average = 1
Total in-flight flits = 107 (107 measured)
latency change    = 0.000329237
throughput change = 0.00281955
Draining all recorded packets ...
Draining remaining packets ...
Time taken is 6135 cycles
Class 0:
Packet latency average = 32.9494
	minimum = 7
	maximum = 80
Network latency average = 32.9494
	minimum = 7
	maximum = 80
Slowest packet = 97465
Flit latency average = 32.9494
	minimum = 7
	maximum = 80
Slowest flit = 97465
Fragmentation average = 0
	minimum = 0
	maximum = 0
Injected packet rate average = 0.0502344
	minimum = 0.038 (at node 6)
	maximum = 0.068 (at node 16)
Accepted packet rate average = 0.0487812
	minimum = 0.028 (at node 32)
	maximum = 0.061 (at node 28)
Injected flit rate average = 0.0502344
	minimum = 0.038 (at node 6)
	maximum = 0.068 (at node 16)
Accepted flit rate average= 0.0487812
	minimum = 0.028 (at node 32)
	maximum = 0.061 (at node 28)
Injected packet length average = 1
Accepted packet length average = 1
Total in-flight flits = 93 (0 measured)
latency change    = 1
throughput change = 1
Class 0:
Packet latency average = 33.0816
	minimum = 7
	maximum = 81
Network latency average = 33.0816
	minimum = 7
	maximum = 81
Slowest packet = 101309
Flit latency average = 33.0816
	minimum = 7
	maximum = 81
Slowest flit = 101309
Fragmentation average = 0
	minimum = 0
	maximum = 0
Injected packet rate average = 0.0501484
	minimum = 0.0405 (at node 9)
	maximum = 0.0615 (at node 55)
Accepted packet rate average = 0.0492266
	minimum = 0.037 (at node 32)
	maximum = 0.059 (at node 60)
Injected flit rate average = 0.0501484
	minimum = 0.0405 (at node 9)
	maximum = 0.0615 (at node 55)
Accepted flit rate average= 0.0492266
	minimum = 0.037 (at node 32)
	maximum = 0.059 (at node 60)
Injected packet length average = 1
Accepted packet length average = 1
Total in-flight flits = 118 (0 measured)
latency change    = 0.00399567
throughput change = 0.00904618
Class 0:
Packet latency average = 33.6752
	minimum = 7
	maximum = 78
Network latency average = 33.6752
	minimum = 7
	maximum = 78
Slowest packet = 103529
Flit latency average = 33.6752
	minimum = 7
	maximum = 78
Slowest flit = 103529
Fragmentation average = 0
	minimum = 0
	maximum = 0
Injected packet rate average = 0.0504375
	minimum = 0.038 (at node 16)
	maximum = 0.067 (at node 38)
Accepted packet rate average = 0.0506562
	minimum = 0.035 (at node 7)
	maximum = 0.075 (at node 12)
Injected flit rate average = 0.0504375
	minimum = 0.038 (at node 16)
	maximum = 0.067 (at node 38)
Accepted flit rate average= 0.0506562
	minimum = 0.035 (at node 7)
	maximum = 0.075 (at node 12)
Injected packet length average = 1
Accepted packet length average = 1
Total in-flight flits = 104 (0 measured)
latency change    = 0.017628
throughput change = 0.0282233
Warmed up ...Time used is 3000 cycles
Class 0:
Packet latency average = 32.7465
	minimum = 7
	maximum = 77
Network latency average = 32.7465
	minimum = 7
	maximum = 77
Slowest packet = 107392
Flit latency average = 32.9218
	minimum = 7
	maximum = 77
Slowest flit = 107392
Fragmentation average = 0
	minimum = 0
	maximum = 0
Injected packet rate average = 0.0507656
	minimum = 0.038 (at node 36)
	maximum = 0.064 (at node 13)
Accepted packet rate average = 0.05075
	minimum = 0.041 (at node 33)
	maximum = 0.064 (at node 45)
Injected flit rate average = 0.0507656
	minimum = 0.038 (at node 36)
	maximum = 0.064 (at node 13)
Accepted flit rate average= 0.05075
	minimum = 0.041 (at node 33)
	maximum = 0.064 (at node 45)
Injected packet length average = 1
Accepted packet length average = 1
Total in-flight flits = 105 (105 measured)
latency change    = 0.0283603
throughput change = 0.00184729
Class 0:
Packet latency average = 33.0942
	minimum = 7
	maximum = 77
Network latency average = 33.0942
	minimum = 7
	maximum = 77
Slowest packet = 107392
Flit latency average = 33.1761
	minimum = 7
	maximum = 77
Slowest flit = 107392
Fragmentation average = 0
	minimum = 0
	maximum = 0
Injected packet rate average = 0.0508984
	minimum = 0.038 (at node 27)
	maximum = 0.0605 (at node 33)
Accepted packet rate average = 0.0508984
	minimum = 0.0415 (at node 37)
	maximum = 0.0625 (at node 12)
Injected flit rate average = 0.0508984
	minimum = 0.038 (at node 27)
	maximum = 0.0605 (at node 33)
Accepted flit rate average= 0.0508984
	minimum = 0.0415 (at node 37)
	maximum = 0.0625 (at node 12)
Injected packet length average = 1
Accepted packet length average = 1
Total in-flight flits = 104 (104 measured)
latency change    = 0.0105067
throughput change = 0.00291635
Class 0:
Packet latency average = 33.1529
	minimum = 7
	maximum = 79
Network latency average = 33.1529
	minimum = 7
	maximum = 79
Slowest packet = 113437
Flit latency average = 33.2072
	minimum = 7
	maximum = 79
Slowest flit = 113437
Fragmentation average = 0
	minimum = 0
	maximum = 0
Injected packet rate average = 0.0505729
	minimum = 0.039 (at node 27)
	maximum = 0.0583333 (at node 20)
Accepted packet rate average = 0.0505417
	minimum = 0.0416667 (at node 54)
	maximum = 0.0623333 (at node 48)
Injected flit rate average = 0.0505729
	minimum = 0.039 (at node 27)
	maximum = 0.0583333 (at node 20)
Accepted flit rate average= 0.0505417
	minimum = 0.0416667 (at node 54)
	maximum = 0.0623333 (at node 48)
Injected packet length average = 1
Accepted packet length average = 1
Total in-flight flits = 110 (110 measured)
latency change    = 0.00177069
throughput change = 0.00705894
Draining all recorded packets ...
Draining remaining packets ...
Time taken is 6120 cycles
Class 0:
Packet latency average = 33.4232
	minimum = 7
	maximum = 77
Network latency average = 33.4232
	minimum = 7
	maximum = 77
Slowest packet = 118831
Flit latency average = 33.4232
	minimum = 7
	maximum = 77
Slowest flit = 118831
Fragmentation average = 0
	minimum = 0
	maximum = 0
Injected packet rate average = 0.0494687
	minimum = 0.033 (at node 5)
	maximum = 0.068 (at node 58)
Accepted packet rate average = 0.0479219
	minimum = 0.035 (at node 55)
	maximum = 0.07 (at node 10)
Injected flit rate average = 0.0494687
	minimum = 0.033 (at node 5)
	maximum = 0.068 (at node 58)
Accepted flit rate average= 0.0479219
	minimum = 0.035 (at node 55)
	maximum = 0.07 (at node 10)
Injected packet length average = 1
Accepted packet length average = 1
Total in-flight flits = 99 (0 measured)
latency change    = 1
throughput change = 1
Class 0:
Packet latency average = 33.3022
	minimum = 7
	maximum = 77
Network latency average = 33.3022
	minimum = 7
	maximum = 77
Slowest packet = 118831
Flit latency average = 33.3022
	minimum = 7
	maximum = 77
Slowest flit = 118831
Fragmentation average = 0
	minimum = 0
	maximum = 0
Injected packet rate average = 0.0503672
	minimum = 0.039 (at node 5)
	maximum = 0.0585 (at node 58)
Accepted packet rate average = 0.0494531
	minimum = 0.0375 (at node 15)
	maximum = 0.0595 (at node 10)
Injected flit rate average = 0.0503672
	minimum = 0.039 (at node 5)
	maximum = 0.0585 (at node 58)
Accepted flit rate average= 0.0494531
	minimum = 0.0375 (at node 15)
	maximum = 0.0595 (at node 10)
Injected packet length average = 1
Accepted packet length average = 1
Total in-flight flits = 117 (0 measured)
latency change    = 0.00363349
throughput change = 0.0309637
Class 0:
Packet latency average = 33.1497
	minimum = 7
	maximum = 78
Network latency average = 33.1497
	minimum = 7
	maximum = 78
Slowest packet = 124672
Flit latency average = 33.1497
	minimum = 7
	maximum = 78
Slowest flit = 124672
Fragmentation average = 0
	minimum = 0
	maximum = 0
Injected packet rate average = 0.0496094
	minimum = 0.033 (at node 30)
	maximum = 0.065 (at node 61)
Accepted packet rate average = 0.0499062
	minimum = 0.033 (at node 63)
	maximum = 0.068 (at node 30)
Injected flit rate average = 0.0496094
	minimum = 0.033 (at node 30)
	maximum = 0.065 (at node 61)
Accepted flit rate average= 0.0499062
	minimum = 0.033 (at node 63)
	maximum = 0.068 (at node 30)
Injected packet length average = 1
Accepted packet length average = 1
Total in-flight flits = 98 (0 measured)
latency change    = 0.00460204
throughput change = 0.00907952
Warmed up ...Time used is 3000 cycles
Class 0:
Packet latency average = 33.5732
	minimum = 7
	maximum = 78
Network latency average = 33.5732
	minimum = 7
	maximum = 78
Slowest packet = 127263
Flit latency average = 33.6964
	minimum = 7
	maximum = 78
Slowest flit = 127263
Fragmentation average = 0
	minimum = 0
	maximum = 0
Injected packet rate average = 0.0487812
	minimum = 0.036 (at node 23)
	maximum = 0.062 (at node 60)
Accepted packet rate average = 0.0486875
	minimum = 0.032 (at node 47)
	maximum = 0.063 (at node 11)
Injected flit rate average = 0.0487812
	minimum = 0.036 (at node 23)
	maximum = 0.062 (at node 60)
Accepted flit rate average= 0.0486875
	minimum = 0.032 (at node 47)
	maximum = 0.063 (at node 11)
Injected packet length average = 1
Accepted packet length average = 1
Total in-flight flits = 104 (104 measured)
latency change    = 0.0126164
throughput change = 0.0250321
Class 0:
Packet latency average = 33.433
	minimum = 7
	maximum = 78
Network latency average = 33.433
	minimum = 7
	maximum = 78
Slowest packet = 127263
Flit latency average = 33.4961
	minimum = 7
	maximum = 78
Slowest flit = 127263
Fragmentation average = 0
	minimum = 0
	maximum = 0
Injected packet rate average = 0.0493047
	minimum = 0.038 (at node 24)
	maximum = 0.0605 (at node 35)
Accepted packet rate average = 0.0491953
	minimum = 0.0365 (at node 17)
	maximum = 0.06 (at node 19)
Injected flit rate average = 0.0493047
	minimum = 0.038 (at node 24)
	maximum = 0.0605 (at node 35)
Accepted flit rate average= 0.0491953
	minimum = 0.0365 (at node 17)
	maximum = 0.06 (at node 19)
Injected packet length average = 1
Accepted packet length average = 1
Total in-flight flits = 112 (112 measured)
latency change    = 0.00419509
throughput change = 0.0103224
Class 0:
Packet latency average = 33.5121
	minimum = 7
	maximum = 79
Network latency average = 33.512
	minimum = 7
	maximum = 79
Slowest packet = 134794
Flit latency average = 33.5531
	minimum = 7
	maximum = 79
Slowest flit = 134794
Fragmentation average = 0
	minimum = 0
	maximum = 0
Injected packet rate average = 0.0494583
	minimum = 0.0393333 (at node 39)
	maximum = 0.06 (at node 63)
Accepted packet rate average = 0.0493906
	minimum = 0.0403333 (at node 8)
	maximum = 0.0576667 (at node 19)
Injected flit rate average = 0.0494583
	minimum = 0.0393333 (at node 39)
	maximum = 0.06 (at node 63)
Accepted flit rate average= 0.0493906
	minimum = 0.0403333 (at node 8)
	maximum = 0.0576667 (at node 19)
Injected packet length average = 1
Accepted packet length average = 1
Total in-flight flits = 111 (111 measured)
latency change    = 0.00236096
throughput change = 0.00395444
Draining all recorded packets ...
Draining remaining packets ...
Time taken is 6117 cycles
Class 0:
Packet latency average = 33.1151
	minimum = 7
	maximum = 77
Network latency average = 33.1151
	minimum = 7
	maximum = 77
Slowest packet = 136783
Flit latency average = 33.1151
	minimum = 7
	maximum = 77
Slowest flit = 136783
Fragmentation average = 0
	minimum = 0
	maximum = 0
Injected packet rate average = 0.0489062
	minimum = 0.034 (at node 50)
	maximum = 0.065 (at node 46)
Accepted packet rate average = 0.047125
	minimum = 0.034 (at node 45)
	maximum = 0.066 (at node 44)
Injected flit rate average = 0.0489062
	minimum = 0.034 (at node 50)
	maximum = 0.065 (at node 46)
Accepted flit rate average= 0.047125
	minimum = 0.034 (at node 45)
	maximum = 0.066 (at node 44)
Injected packet length average = 1
Accepted packet length average = 1
Total in-flight flits = 114 (0 measured)
latency change    = 1
throughput change = 1
Class 0:
Packet latency average = 33.3225
	minimum = 7
	maximum = 77
Network latency average = 33.3225
	minimum = 7
	maximum = 77
Slowest packet = 136783
Flit latency average = 33.3225
	minimum = 7
	maximum = 77
Slowest flit = 136783
Fragmentation average = 0
	minimum = 0
	maximum = 0
Injected packet rate average = 0.0497422
	minimum = 0.0345 (at node 53)
	maximum = 0.0615 (at node 42)
Accepted packet rate average = 0.0488828
	minimum = 0.0385 (at node 21)
	maximum = 0.0585 (at node 23)
Injected flit rate average = 0.0497422
	minimum = 0.0345 (at node 53)
	maximum = 0.0615 (at node 42)
Accepted flit rate average= 0.0488828
	minimum = 0.0385 (at node 21)
	maximum = 0.0585 (at node 23)
Injected packet length average = 1
Accepted packet length average = 1
Total in-flight flits = 110 (0 measured)
latency change    = 0.00622599
throughput change = 0.0359597
Class 0:
Packet latency average = 33.0592
	minimum = 7
	maximum = 78
Network latency average = 33.0592
	minimum = 7
	maximum = 78
Slowest packet = 144322
Flit latency average = 33.0592
	minimum = 7
	maximum = 78
Slowest flit = 144322
Fragmentation average = 0
	minimum = 0
	maximum = 0
Injected packet rate average = 0.0493437
	minimum = 0.03 (at node 24)
	maximum = 0.068 (at node 52)
Accepted packet rate average = 0.0496406
	minimum = 0.029 (at node 51)
	maximum = 0.069 (at node 34)
Injected flit rate average = 0.0493437
	minimum = 0.03 (at node 24)
	maximum = 0.068 (at node 52)
Accepted flit rate average= 0.0496406
	minimum = 0.029 (at node 51)
	maximum = 0.069 (at node 34)
Injected packet length average = 1
Accepted packet length average = 1
Total in-flight flits = 91 (0 measured)
latency change    = 0.00796582
throughput change = 0.015266
Warmed up ...Time used is 3000 cycles
Class 0:
Packet latency average = 33.1441
	minimum = 7
	maximum = 77
Network latency average = 33.1441
	minimum = 7
	maximum = 77
Slowest packet = 145853
Flit latency average = 33.3028
	minimum = 7
	maximum = 77
Slowest flit = 145853
Fragmentation average = 0
	minimum = 0
	maximum = 0
Injected packet rate average = 0.0500937
	minimum = 0.036 (at node 58)
	maximum = 0.064 (at node 51)
Accepted packet rate average = 0.0498906
	minimum = 0.03 (at node 27)
	maximum = 0.064 (at node 5)
Injected flit rate average = 0.0500937
	minimum = 0.036 (at node 58)
	maximum = 0.064 (at node 51)
Accepted flit rate average= 0.0498906
	minimum = 0.03 (at node 27)
	maximum = 0.064 (at node 5)
Injected packet length average = 1
Accepted packet length average = 1
Total in-flight flits = 104 (104 measured)
latency change    = 0.0025623
throughput change = 0.00501096
Class 0:
Packet latency average = 33.3569
	minimum = 7
	maximum = 81
Network latency average = 33.3569
	minimum = 7
	maximum = 81
Slowest packet = 151040
Flit latency average = 33.4324
	minimum = 7
	maximum = 81
Slowest flit = 151040
Fragmentation average = 0
	minimum = 0
	maximum = 0
Injected packet rate average = 0.0505859
	minimum = 0.0385 (at node 9)
	maximum = 0.061 (at node 51)
Accepted packet rate average = 0.0504687
	minimum = 0.038 (at node 27)
	maximum = 0.0635 (at node 2)
Injected flit rate average = 0.0505859
	minimum = 0.0385 (at node 9)
	maximum = 0.061 (at node 51)
Accepted flit rate average= 0.0504687
	minimum = 0.038 (at node 27)
	maximum = 0.0635 (at node 2)
Injected packet length average = 1
Accepted packet length average = 1
Total in-flight flits = 106 (106 measured)
latency change    = 0.00637902
throughput change = 0.0114551
Class 0:
Packet latency average = 33.4184
	minimum = 7
	maximum = 81
Network latency average = 33.4184
	minimum = 7
	maximum = 81
Slowest packet = 151040
Flit latency average = 33.4678
	minimum = 7
	maximum = 81
Slowest flit = 151040
Fragmentation average = 0
	minimum = 0
	maximum = 0
Injected packet rate average = 0.0509167
	minimum = 0.0416667 (at node 9)
	maximum = 0.0613333 (at node 30)
Accepted packet rate average = 0.0508177
	minimum = 0.0386667 (at node 47)
	maximum = 0.0623333 (at node 7)
Injected flit rate average = 0.0509167
	minimum = 0.0416667 (at node 9)
	maximum = 0.0613333 (at node 30)
Accepted flit rate average= 0.0508177
	minimum = 0.0386667 (at node 47)
	maximum = 0.0623333 (at node 7)
Injected packet length average = 1
Accepted packet length average = 1
Total in-flight flits = 110 (110 measured)
latency change    = 0.00183997
throughput change = 0.00686686
Draining all recorded packets ...
Draining remaining packets ...
Time taken is 6115 cycles
Class 0:
Packet latency average = 33.0747
	minimum = 7
	maximum = 77
Network latency average = 33.0747
	minimum = 7
	maximum = 77
Slowest packet = 155672
Flit latency average = 33.0747
	minimum = 7
	maximum = 77
Slowest flit = 155672
Fragmentation average = 0
	minimum = 0
	maximum = 0
Injected packet rate average = 0.0496719
	minimum = 0.033 (at node 5)
	maximum = 0.069 (at node 32)
Accepted packet rate average = 0.0481094
	minimum = 0.032 (at node 9)
	maximum = 0.067 (at node 0)
Injected flit rate average = 0.0496719
	minimum = 0.033 (at node 5)
	maximum = 0.069 (at node 32)
Accepted flit rate average= 0.0481094
	minimum = 0.032 (at node 9)
	maximum = 0.067 (at node 0)
Injected packet length average = 1
Accepted packet length average = 1
Total in-flight flits = 100 (0 measured)
latency change    = 1
throughput change = 1
Class 0:
Packet latency average = 33.3333
	minimum = 7
	maximum = 78
Network latency average = 33.3333
	minimum = 7
	maximum = 78
Slowest packet = 159671
Flit latency average = 33.3333
	minimum = 7
	maximum = 78
Slowest flit = 159671
Fragmentation average = 0
	minimum = 0
	maximum = 0
Injected packet rate average = 0.0506172
	minimum = 0.041 (at node 0)
	maximum = 0.0625 (at node 60)
Accepted packet rate average = 0.0498594
	minimum = 0.04 (at node 45)
	maximum = 0.061 (at node 0)
Injected flit rate average = 0.0506172
	minimum = 0.041 (at node 0)
	maximum = 0.0625 (at node 60)
Accepted flit rate average= 0.0498594
	minimum = 0.04 (at node 45)
	maximum = 0.061 (at node 0)
Injected packet length average = 1
Accepted packet length average = 1
Total in-flight flits = 97 (0 measured)
latency change    = 0.00775746
throughput change = 0.0350987
Class 0:
Packet latency average = 33.3555
	minimum = 7
	maximum = 78
Network latency average = 33.3555
	minimum = 7
	maximum = 78
Slowest packet = 161865
Flit latency average = 33.3555
	minimum = 7
	maximum = 78
Slowest flit = 161865
Fragmentation average = 0
	minimum = 0
	maximum = 0
Injected packet rate average = 0.0511406
	minimum = 0.036 (at node 55)
	maximum = 0.064 (at node 5)
Accepted packet rate average = 0.0509844
	minimum = 0.039 (at node 28)
	maximum = 0.075 (at node 40)
Injected flit rate average = 0.0511406
	minimum = 0.036 (at node 55)
	maximum = 0.064 (at node 5)
Accepted flit rate average= 0.0509844
	minimum = 0.039 (at node 28)
	maximum = 0.075 (at node 40)
Injected packet length average = 1
Accepted packet length average = 1
Total in-flight flits = 107 (0 measured)
latency change    = 0.000666156
throughput change = 0.0220656
Warmed up ...Time used is 3000 cycles
Class 0:
Packet latency average = 33.1072
	minimum = 7
	maximum = 77
Network latency average = 33.1072
	minimum = 7
	maximum = 77
Slowest packet = 166694
Flit latency average = 33.3506
	minimum = 7
	maximum = 77
Slowest flit = 166694
Fragmentation average = 0
	minimum = 0
	maximum = 0
Injected packet rate average = 0.0509844
	minimum = 0.033 (at node 54)
	maximum = 0.064 (at node 32)
Accepted packet rate average = 0.0508125
	minimum = 0.033 (at node 22)
	maximum = 0.076 (at node 62)
Injected flit rate average = 0.0509844
	minimum = 0.033 (at node 54)
	maximum = 0.064 (at node 32)
Accepted flit rate average= 0.0508125
	minimum = 0.033 (at node 22)
	maximum = 0.076 (at node 62)
Injected packet length average = 1
Accepted packet length average = 1
Total in-flight flits = 118 (118 measured)
latency change    = 0.0075013
throughput change = 0.00338253
Class 0:
Packet latency average = 33.3588
	minimum = 7
	maximum = 81
Network latency average = 33.3588
	minimum = 7
	maximum = 81
Slowest packet = 169711
Flit latency average = 33.4771
	minimum = 7
	maximum = 81
Slowest flit = 169711
Fragmentation average = 0
	minimum = 0
	maximum = 0
Injected packet rate average = 0.0503594
	minimum = 0.0395 (at node 18)
	maximum = 0.0635 (at node 22)
Accepted packet rate average = 0.0504844
	minimum = 0.0405 (at node 21)
	maximum = 0.0645 (at node 62)
Injected flit rate average = 0.0503594
	minimum = 0.0395 (at node 18)
	maximum = 0.0635 (at node 22)
Accepted flit rate average= 0.0504844
	minimum = 0.0405 (at node 21)
	maximum = 0.0645 (at node 62)
Injected packet length average = 1
Accepted packet length average = 1
Total in-flight flits = 91 (91 measured)
latency change    = 0.0075428
throughput change = 0.00649954
Class 0:
Packet latency average = 33.392
	minimum = 7
	maximum = 81
Network latency average = 33.392
	minimum = 7
	maximum = 81
Slowest packet = 169711
Flit latency average = 33.4716
	minimum = 7
	maximum = 81
Slowest flit = 169711
Fragmentation average = 0
	minimum = 0
	maximum = 0
Injected packet rate average = 0.0496771
	minimum = 0.041 (at node 21)
	maximum = 0.0593333 (at node 63)
Accepted packet rate average = 0.049776
	minimum = 0.0403333 (at node 21)
	maximum = 0.0593333 (at node 35)
Injected flit rate average = 0.0496771
	minimum = 0.041 (at node 21)
	maximum = 0.0593333 (at node 63)
Accepted flit rate average= 0.049776
	minimum = 0.0403333 (at node 21)
	maximum = 0.0593333 (at node 35)
Injected packet length average = 1
Accepted packet length average = 1
Total in-flight flits = 88 (88 measured)
latency change    = 0.000993804
throughput change = 0.0142304
Draining all recorded packets ...
Draining remaining packets ...
Time taken is 6122 cycles
Class 0:
Packet latency average = 33.5397
	minimum = 7
	maximum = 80
Network latency average = 33.5397
	minimum = 7
	maximum = 80
Slowest packet = 176254
Flit latency average = 33.5397
	minimum = 7
	maximum = 80
Slowest flit = 176254
Fragmentation average = 0
	minimum = 0
	maximum = 0
Injected packet rate average = 0.0498906
	minimum = 0.034 (at node 12)
	maximum = 0.072 (at node 22)
Accepted packet rate average = 0.0482656
	minimum = 0.032 (at node 24)
	maximum = 0.065 (at node 16)
Injected flit rate average = 0.0498906
	minimum = 0.034 (at node 12)
	maximum = 0.072 (at node 22)
Accepted flit rate average= 0.0482656
	minimum = 0.032 (at node 24)
	maximum = 0.065 (at node 16)
Injected packet length average = 1
Accepted packet length average = 1
Total in-flight flits = 104 (0 measured)
latency change    = 1
throughput change = 1
Class 0:
Packet latency average = 33.5052
	minimum = 7
	maximum = 80
Network latency average = 33.5049
	minimum = 7
	maximum = 80
Slowest packet = 176254
Flit latency average = 33.5049
	minimum = 7
	maximum = 80
Slowest flit = 176254
Fragmentation average = 0
	minimum = 0
	maximum = 0
Injected packet rate average = 0.0493984
	minimum = 0.039 (at node 21)
	maximum = 0.062 (at node 5)
Accepted packet rate average = 0.0486172
	minimum = 0.0405 (at node 18)
	maximum = 0.0585 (at node 50)
Injected flit rate average = 0.0493984
	minimum = 0.039 (at node 21)
	maximum = 0.062 (at node 5)
Accepted flit rate average= 0.0486172
	minimum = 0.0405 (at node 18)
	maximum = 0.0585 (at node 50)
Injected packet length average = 1
Accepted packet length average = 1
Total in-flight flits = 100 (0 measured)
latency change    = 0.00102773
throughput change = 0.00723124
Class 0:
Packet latency average = 33.4496
	minimum = 7
	maximum = 78
Network latency average = 33.4496
	minimum = 7
	maximum = 78
Slowest packet = 182025
Flit latency average = 33.4496
	minimum = 7
	maximum = 78
Slowest flit = 182025
Fragmentation average = 0
	minimum = 0
	maximum = 0
Injected packet rate average = 0.0502031
	minimum = 0.026 (at node 28)
	maximum = 0.064 (at node 34)
Accepted packet rate average = 0.05025
	minimum = 0.036 (at node 15)
	maximum = 0.07 (at node 9)
Injected flit rate average = 0.0502031
	minimum = 0.026 (at node 28)
	maximum = 0.064 (at node 34)
Accepted flit rate average= 0.05025
	minimum = 0.036 (at node 15)
	maximum = 0.07 (at node 9)
Injected packet length average = 1
Accepted packet length average = 1
Total in-flight flits = 97 (0 measured)
latency change    = 0.00166207
throughput change = 0.0324938
Warmed up ...Time used is 3000 cycles
Class 0:
Packet latency average = 32.9633
	minimum = 7
	maximum = 77
Network latency average = 32.9633
	minimum = 7
	maximum = 77
Slowest packet = 186112
Flit latency average = 33.1382
	minimum = 7
	maximum = 77
Slowest flit = 186112
Fragmentation average = 0
	minimum = 0
	maximum = 0
Injected packet rate average = 0.0489687
	minimum = 0.033 (at node 15)
	maximum = 0.075 (at node 17)
Accepted packet rate average = 0.0487344
	minimum = 0.031 (at node 39)
	maximum = 0.069 (at node 30)
Injected flit rate average = 0.0489687
	minimum = 0.033 (at node 15)
	maximum = 0.075 (at node 17)
Accepted flit rate average= 0.0487344
	minimum = 0.031 (at node 39)
	maximum = 0.069 (at node 30)
Injected packet length average = 1
Accepted packet length average = 1
Total in-flight flits = 112 (112 measured)
latency change    = 0.0147545
throughput change = 0.0310997
Class 0:
Packet latency average = 33.1339
	minimum = 7
	maximum = 77
Network latency average = 33.1339
	minimum = 7
	maximum = 77
Slowest packet = 186112
Flit latency average = 33.2167
	minimum = 7
	maximum = 77
Slowest flit = 186112
Fragmentation average = 0
	minimum = 0
	maximum = 0
Injected packet rate average = 0.0499531
	minimum = 0.041 (at node 15)
	maximum = 0.065 (at node 17)
Accepted packet rate average = 0.0498906
	minimum = 0.039 (at node 18)
	maximum = 0.059 (at node 42)
Injected flit rate average = 0.0499531
	minimum = 0.041 (at node 15)
	maximum = 0.065 (at node 17)
Accepted flit rate average= 0.0498906
	minimum = 0.039 (at node 18)
	maximum = 0.059 (at node 42)
Injected packet length average = 1
Accepted packet length average = 1
Total in-flight flits = 105 (105 measured)
latency change    = 0.00514927
throughput change = 0.0231757
Class 0:
Packet latency average = 33.3859
	minimum = 7
	maximum = 77
Network latency average = 33.3859
	minimum = 7
	maximum = 77
Slowest packet = 186112
Flit latency average = 33.4383
	minimum = 7
	maximum = 77
Slowest flit = 186112
Fragmentation average = 0
	minimum = 0
	maximum = 0
Injected packet rate average = 0.0501146
	minimum = 0.0416667 (at node 15)
	maximum = 0.0596667 (at node 17)
Accepted packet rate average = 0.0501302
	minimum = 0.0406667 (at node 58)
	maximum = 0.0596667 (at node 11)
Injected flit rate average = 0.0501146
	minimum = 0.0416667 (at node 15)
	maximum = 0.0596667 (at node 17)
Accepted flit rate average= 0.0501302
	minimum = 0.0406667 (at node 58)
	maximum = 0.0596667 (at node 11)
Injected packet length average = 1
Accepted packet length average = 1
Total in-flight flits = 94 (94 measured)
latency change    = 0.00754901
throughput change = 0.00477922
Draining all recorded packets ...
Draining remaining packets ...
Time taken is 6116 cycles
Class 0:
Packet latency average = 33.1457
	minimum = 7
	maximum = 77
Network latency average = 33.1457
	minimum = 7
	maximum = 77
Slowest packet = 196783
Flit latency average = 33.1457
	minimum = 7
	maximum = 77
Slowest flit = 196783
Fragmentation average = 0
	minimum = 0
	maximum = 0
Injected packet rate average = 0.0494375
	minimum = 0.038 (at node 29)
	maximum = 0.066 (at node 15)
Accepted packet rate average = 0.0478437
	minimum = 0.031 (at node 0)
	maximum = 0.074 (at node 1)
Injected flit rate average = 0.0494375
	minimum = 0.038 (at node 29)
	maximum = 0.066 (at node 15)
Accepted flit rate average= 0.0478437
	minimum = 0.031 (at node 0)
	maximum = 0.074 (at node 1)
Injected packet length average = 1
Accepted packet length average = 1
Total in-flight flits = 102 (0 measured)
latency change    = 1
throughput change = 1
Class 0:
Packet latency average = 33.5063
	minimum = 7
	maximum = 77
Network latency average = 33.5063
	minimum = 7
	maximum = 77
Slowest packet = 196783
Flit latency average = 33.5063
	minimum = 7
	maximum = 77
Slowest flit = 196783
Fragmentation average = 0
	minimum = 0
	maximum = 0
Injected packet rate average = 0.0496016
	minimum = 0.0385 (at node 41)
	maximum = 0.0585 (at node 21)
Accepted packet rate average = 0.0487734
	minimum = 0.0375 (at node 0)
	maximum = 0.068 (at node 1)
Injected flit rate average = 0.0496016
	minimum = 0.0385 (at node 41)
	maximum = 0.0585 (at node 21)
Accepted flit rate average= 0.0487734
	minimum = 0.0375 (at node 0)
	maximum = 0.068 (at node 1)
Injected packet length average = 1
Accepted packet length average = 1
Total in-flight flits = 106 (0 measured)
latency change    = 0.0107643
throughput change = 0.0190613
Class 0:
Packet latency average = 32.8986
	minimum = 7
	maximum = 75
Network latency average = 32.8986
	minimum = 7
	maximum = 75
Slowest packet = 201841
Flit latency average = 32.8986
	minimum = 7
	maximum = 75
Slowest flit = 201841
Fragmentation average = 0
	minimum = 0
	maximum = 0
Injected packet rate average = 0.0508438
	minimum = 0.039 (at node 7)
	maximum = 0.062 (at node 30)
Accepted packet rate average = 0.051
	minimum = 0.033 (at node 36)
	maximum = 0.07 (at node 49)
Injected flit rate average = 0.0508438
	minimum = 0.039 (at node 7)
	maximum = 0.062 (at node 30)
Accepted flit rate average= 0.051
	minimum = 0.033 (at node 36)
	maximum = 0.07 (at node 49)
Injected packet length average = 1
Accepted packet length average = 1
Total in-flight flits = 96 (0 measured)
latency change    = 0.018473
throughput change = 0.0436581
Warmed up ...Time used is 3000 cycles
Class 0:
Packet latency average = 33.4006
	minimum = 7
	maximum = 77
Network latency average = 33.4006
	minimum = 7
	maximum = 77
Slowest packet = 205925
Flit latency average = 33.5628
	minimum = 7
	maximum = 77
Slowest flit = 205925
Fragmentation average = 0
	minimum = 0
	maximum = 0
Injected packet rate average = 0.0505
	minimum = 0.037 (at node 50)
	maximum = 0.069 (at node 30)
Accepted packet rate average = 0.0506094
	minimum = 0.034 (at node 25)
	maximum = 0.075 (at node 6)
Injected flit rate average = 0.0505
	minimum = 0.037 (at node 50)
	maximum = 0.069 (at node 30)
Accepted flit rate average= 0.0506094
	minimum = 0.034 (at node 25)
	maximum = 0.075 (at node 6)
Injected packet length average = 1
Accepted packet length average = 1
Total in-flight flits = 89 (89 measured)
latency change    = 0.0150291
throughput change = 0.00771843
Class 0:
Packet latency average = 33.4482
	minimum = 7
	maximum = 77
Network latency average = 33.4482
	minimum = 7
	maximum = 77
Slowest packet = 205925
Flit latency average = 33.5299
	minimum = 7
	maximum = 77
Slowest flit = 205925
Fragmentation average = 0
	minimum = 0
	maximum = 0
Injected packet rate average = 0.0499062
	minimum = 0.0415 (at node 61)
	maximum = 0.0625 (at node 4)
Accepted packet rate average = 0.0498359
	minimum = 0.037 (at node 7)
	maximum = 0.0655 (at node 48)
Injected flit rate average = 0.0499062
	minimum = 0.0415 (at node 61)
	maximum = 0.0625 (at node 4)
Accepted flit rate average= 0.0498359
	minimum = 0.037 (at node 7)
	maximum = 0.0655 (at node 48)
Injected packet length average = 1
Accepted packet length average = 1
Total in-flight flits = 105 (105 measured)
latency change    = 0.00142372
throughput change = 0.0155197
Class 0:
Packet latency average = 33.4901
	minimum = 7
	maximum = 77
Network latency average = 33.4901
	minimum = 7
	maximum = 77
Slowest packet = 205925
Flit latency average = 33.5442
	minimum = 7
	maximum = 77
Slowest flit = 205925
Fragmentation average = 0
	minimum = 0
	maximum = 0
Injected packet rate average = 0.0497969
	minimum = 0.0423333 (at node 22)
	maximum = 0.057 (at node 4)
Accepted packet rate average = 0.0497552
	minimum = 0.041 (at node 13)
	maximum = 0.0593333 (at node 48)
Injected flit rate average = 0.0497969
	minimum = 0.0423333 (at node 22)
	maximum = 0.057 (at node 4)
Accepted flit rate average= 0.0497552
	minimum = 0.041 (at node 13)
	maximum = 0.0593333 (at node 48)
Injected packet length average = 1
Accepted packet length average = 1
Total in-flight flits = 104 (104 measured)
latency change    = 0.0012517
throughput change = 0.00162253
Draining all recorded packets ...
Draining remaining packets ...
Time taken is 6125 cycles
Class 0:
Packet latency average = 32.8973
	minimum = 7
	maximum = 78
Network latency average = 32.8973
	minimum = 7
	maximum = 78
Slowest packet = 216172
Flit latency average = 32.8973
	minimum = 7
	maximum = 78
Slowest flit = 216172
Fragmentation average = 0
	minimum = 0
	maximum = 0
Injected packet rate average = 0.0509531
	minimum = 0.036 (at node 8)
	maximum = 0.067 (at node 55)
Accepted packet rate average = 0.0494687
	minimum = 0.033 (at node 53)
	maximum = 0.064 (at node 48)
Injected flit rate average = 0.0509531
	minimum = 0.036 (at node 8)
	maximum = 0.067 (at node 55)
Accepted flit rate average= 0.0494687
	minimum = 0.033 (at node 53)
	maximum = 0.064 (at node 48)
Injected packet length average = 1
Accepted packet length average = 1
Total in-flight flits = 95 (0 measured)
latency change    = 1
throughput change = 1
Class 0:
Packet latency average = 33.2078
	minimum = 7
	maximum = 78
Network latency average = 33.2078
	minimum = 7
	maximum = 78
Slowest packet = 216172
Flit latency average = 33.2078
	minimum = 7
	maximum = 78
Slowest flit = 216172
Fragmentation average = 0
	minimum = 0
	maximum = 0
Injected packet rate average = 0.0503359
	minimum = 0.039 (at node 60)
	maximum = 0.059 (at node 55)
Accepted packet rate average = 0.0494844
	minimum = 0.039 (at node 14)
	maximum = 0.0625 (at node 32)
Injected flit rate average = 0.0503359
	minimum = 0.039 (at node 60)
	maximum = 0.059 (at node 55)
Accepted flit rate average= 0.0494844
	minimum = 0.039 (at node 14)
	maximum = 0.0625 (at node 32)
Injected packet length average = 1
Accepted packet length average = 1
Total in-flight flits = 109 (0 measured)
latency change    = 0.00934784
throughput change = 0.000315756
Class 0:
Packet latency average = 33.6591
	minimum = 7
	maximum = 79
Network latency average = 33.6585
	minimum = 7
	maximum = 79
Slowest packet = 219968
Flit latency average = 33.6585
	minimum = 7
	maximum = 79
Slowest flit = 219968
Fragmentation average = 0
	minimum = 0
	maximum = 0
Injected packet rate average = 0.0507656
	minimum = 0.036 (at node 49)
	maximum = 0.07 (at node 9)
Accepted packet rate average = 0.0507812
	minimum = 0.034 (at node 37)
	maximum = 0.066 (at node 55)
Injected flit rate average = 0.0507656
	minimum = 0.036 (at node 49)
	maximum = 0.07 (at node 9)
Accepted flit rate average= 0.0507812
	minimum = 0.034 (at node 37)
	maximum = 0.066 (at node 55)
Injected packet length average = 1
Accepted packet length average = 1
Total in-flight flits = 108 (0 measured)
latency change    = 0.0134083
throughput change = 0.0255385
Warmed up ...Time used is 3000 cycles
Class 0:
Packet latency average = 33.1649
	minimum = 7
	maximum = 77
Network latency average = 33.1649
	minimum = 7
	maximum = 77
Slowest packet = 223238
Flit latency average = 33.3437
	minimum = 7
	maximum = 77
Slowest flit = 223238
Fragmentation average = 0
	minimum = 0
	maximum = 0
Injected packet rate average = 0.0487812
	minimum = 0.035 (at node 30)
	maximum = 0.072 (at node 21)
Accepted packet rate average = 0.0489687
	minimum = 0.035 (at node 12)
	maximum = 0.064 (at node 41)
Injected flit rate average = 0.0487812
	minimum = 0.035 (at node 30)
	maximum = 0.072 (at node 21)
Accepted flit rate average= 0.0489687
	minimum = 0.035 (at node 12)
	maximum = 0.064 (at node 41)
Injected packet length average = 1
Accepted packet length average = 1
Total in-flight flits = 96 (96 measured)
latency change    = 0.0149005
throughput change = 0.0370134
Class 0:
Packet latency average = 33.2455
	minimum = 7
	maximum = 81
Network latency average = 33.2453
	minimum = 7
	maximum = 81
Slowest packet = 228628
Flit latency average = 33.3317
	minimum = 7
	maximum = 81
Slowest flit = 228628
Fragmentation average = 0
	minimum = 0
	maximum = 0
Injected packet rate average = 0.0499531
	minimum = 0.039 (at node 30)
	maximum = 0.0645 (at node 59)
Accepted packet rate average = 0.0498906
	minimum = 0.0375 (at node 23)
	maximum = 0.0615 (at node 32)
Injected flit rate average = 0.0499531
	minimum = 0.039 (at node 30)
	maximum = 0.0645 (at node 59)
Accepted flit rate average= 0.0498906
	minimum = 0.0375 (at node 23)
	maximum = 0.0615 (at node 32)
Injected packet length average = 1
Accepted packet length average = 1
Total in-flight flits = 116 (116 measured)
latency change    = 0.00242307
throughput change = 0.0184779
Class 0:
Packet latency average = 33.1285
	minimum = 7
	maximum = 81
Network latency average = 33.1284
	minimum = 7
	maximum = 81
Slowest packet = 228628
Flit latency average = 33.1868
	minimum = 7
	maximum = 81
Slowest flit = 228628
Fragmentation average = 0
	minimum = 0
	maximum = 0
Injected packet rate average = 0.0503021
	minimum = 0.0436667 (at node 20)
	maximum = 0.06 (at node 59)
Accepted packet rate average = 0.0502865
	minimum = 0.0396667 (at node 23)
	maximum = 0.0586667 (at node 7)
Injected flit rate average = 0.0503021
	minimum = 0.0436667 (at node 20)
	maximum = 0.06 (at node 59)
Accepted flit rate average= 0.0502865
	minimum = 0.0396667 (at node 23)
	maximum = 0.0586667 (at node 7)
Injected packet length average = 1
Accepted packet length average = 1
Total in-flight flits = 111 (111 measured)
latency change    = 0.00352984
throughput change = 0.00787157
Draining all recorded packets ...
Draining remaining packets ...
Time taken is 6129 cycles
Class 0:
Packet latency average = 33.2632
	minimum = 7
	maximum = 77
Network latency average = 33.2632
	minimum = 7
	maximum = 77
Slowest packet = 233232
Flit latency average = 33.2632
	minimum = 7
	maximum = 77
Slowest flit = 233232
Fragmentation average = 0
	minimum = 0
	maximum = 0
Injected packet rate average = 0.0491562
	minimum = 0.033 (at node 57)
	maximum = 0.065 (at node 42)
Accepted packet rate average = 0.0473125
	minimum = 0.036 (at node 3)
	maximum = 0.061 (at node 1)
Injected flit rate average = 0.0491562
	minimum = 0.033 (at node 57)
	maximum = 0.065 (at node 42)
Accepted flit rate average= 0.0473125
	minimum = 0.036 (at node 3)
	maximum = 0.061 (at node 1)
Injected packet length average = 1
Accepted packet length average = 1
Total in-flight flits = 118 (0 measured)
latency change    = 1
throughput change = 1
Class 0:
Packet latency average = 33.2467
	minimum = 7
	maximum = 77
Network latency average = 33.2467
	minimum = 7
	maximum = 77
Slowest packet = 233232
Flit latency average = 33.2467
	minimum = 7
	maximum = 77
Slowest flit = 233232
Fragmentation average = 0
	minimum = 0
	maximum = 0
Injected packet rate average = 0.0500547
	minimum = 0.04 (at node 54)
	maximum = 0.0615 (at node 40)
Accepted packet rate average = 0.0491875
	minimum = 0.039 (at node 3)
	maximum = 0.0585 (at node 1)
Injected flit rate average = 0.0500547
	minimum = 0.04 (at node 54)
	maximum = 0.0615 (at node 40)
Accepted flit rate average= 0.0491875
	minimum = 0.039 (at node 3)
	maximum = 0.0585 (at node 1)
Injected packet length average = 1
Accepted packet length average = 1
Total in-flight flits = 111 (0 measured)
latency change    = 0.000497659
throughput change = 0.0381194
Class 0:
Packet latency average = 33.2833
	minimum = 7
	maximum = 79
Network latency average = 33.2833
	minimum = 7
	maximum = 79
Slowest packet = 241637
Flit latency average = 33.2833
	minimum = 7
	maximum = 79
Slowest flit = 241637
Fragmentation average = 0
	minimum = 0
	maximum = 0
Injected packet rate average = 0.0512344
	minimum = 0.04 (at node 25)
	maximum = 0.068 (at node 42)
Accepted packet rate average = 0.0513438
	minimum = 0.037 (at node 9)
	maximum = 0.069 (at node 23)
Injected flit rate average = 0.0512344
	minimum = 0.04 (at node 25)
	maximum = 0.068 (at node 42)
Accepted flit rate average= 0.0513438
	minimum = 0.037 (at node 9)
	maximum = 0.069 (at node 23)
Injected packet length average = 1
Accepted packet length average = 1
Total in-flight flits = 104 (0 measured)
latency change    = 0.00110141
throughput change = 0.0419963
Warmed up ...Time used is 3000 cycles
Class 0:
Packet latency average = 33.3816
	minimum = 7
	maximum = 77
Network latency average = 33.3816
	minimum = 7
	maximum = 77
Slowest packet = 243018
Flit latency average = 33.5437
	minimum = 7
	maximum = 77
Slowest flit = 243018
Fragmentation average = 0
	minimum = 0
	maximum = 0
Injected packet rate average = 0.0505937
	minimum = 0.032 (at node 28)
	maximum = 0.069 (at node 50)
Accepted packet rate average = 0.0504375
	minimum = 0.029 (at node 35)
	maximum = 0.07 (at node 23)
Injected flit rate average = 0.0505937
	minimum = 0.032 (at node 28)
	maximum = 0.069 (at node 50)
Accepted flit rate average= 0.0504375
	minimum = 0.029 (at node 35)
	maximum = 0.07 (at node 23)
Injected packet length average = 1
Accepted packet length average = 1
Total in-flight flits = 114 (114 measured)
latency change    = 0.00294291
throughput change = 0.0179678
Class 0:
Packet latency average = 33.5438
	minimum = 7
	maximum = 79
Network latency average = 33.5438
	minimum = 7
	maximum = 79
Slowest packet = 247219
Flit latency average = 33.6225
	minimum = 7
	maximum = 79
Slowest flit = 247219
Fragmentation average = 0
	minimum = 0
	maximum = 0
Injected packet rate average = 0.0502734
	minimum = 0.041 (at node 24)
	maximum = 0.0635 (at node 27)
Accepted packet rate average = 0.0502656
	minimum = 0.0365 (at node 35)
	maximum = 0.062 (at node 6)
Injected flit rate average = 0.0502734
	minimum = 0.041 (at node 24)
	maximum = 0.0635 (at node 27)
Accepted flit rate average= 0.0502656
	minimum = 0.0365 (at node 35)
	maximum = 0.062 (at node 6)
Injected packet length average = 1
Accepted packet length average = 1
Total in-flight flits = 105 (105 measured)
latency change    = 0.00483541
throughput change = 0.00341933
Class 0:
Packet latency average = 33.4496
	minimum = 7
	maximum = 81
Network latency average = 33.4496
	minimum = 7
	maximum = 81
Slowest packet = 250756
Flit latency average = 33.5035
	minimum = 7
	maximum = 81
Slowest flit = 250756
Fragmentation average = 0
	minimum = 0
	maximum = 0
Injected packet rate average = 0.0499115
	minimum = 0.041 (at node 28)
	maximum = 0.0616667 (at node 27)
Accepted packet rate average = 0.0498906
	minimum = 0.0373333 (at node 50)
	maximum = 0.0593333 (at node 34)
Injected flit rate average = 0.0499115
	minimum = 0.041 (at node 28)
	maximum = 0.0616667 (at node 27)
Accepted flit rate average= 0.0498906
	minimum = 0.0373333 (at node 50)
	maximum = 0.0593333 (at node 34)
Injected packet length average = 1
Accepted packet length average = 1
Total in-flight flits = 108 (108 measured)
latency change    = 0.00281485
throughput change = 0.00751644
Draining all recorded packets ...
Draining remaining packets ...
Time taken is 6115 cycles
Class 0:
Packet latency average = 33.4105
	minimum = 7
	maximum = 79
Network latency average = 33.4105
	minimum = 7
	maximum = 79
Slowest packet = 252755
Flit latency average = 33.4105
	minimum = 7
	maximum = 79
Slowest flit = 252755
Fragmentation average = 0
	minimum = 0
	maximum = 0
Injected packet rate average = 0.0515
	minimum = 0.037 (at node 5)
	maximum = 0.062 (at node 58)
Accepted packet rate average = 0.0496719
	minimum = 0.031 (at node 48)
	maximum = 0.068 (at node 9)
Injected flit rate average = 0.0515
	minimum = 0.037 (at node 5)
	maximum = 0.062 (at node 58)
Accepted flit rate average= 0.0496719
	minimum = 0.031 (at node 48)
	maximum = 0.068 (at node 9)
Injected packet length average = 1
Accepted packet length average = 1
Total in-flight flits = 117 (0 measured)
latency change    = 1
throughput change = 1
Class 0:
Packet latency average = 33.4491
	minimum = 7
	maximum = 79
Network latency average = 33.4491
	minimum = 7
	maximum = 79
Slowest packet = 252755
Flit latency average = 33.4491
	minimum = 7
	maximum = 79
Slowest flit = 252755
Fragmentation average = 0
	minimum = 0
	maximum = 0
Injected packet rate average = 0.0509766
	minimum = 0.039 (at node 20)
	maximum = 0.0605 (at node 9)
Accepted packet rate average = 0.0501172
	minimum = 0.0325 (at node 48)
	maximum = 0.064 (at node 43)
Injected flit rate average = 0.0509766
	minimum = 0.039 (at node 20)
	maximum = 0.0605 (at node 9)
Accepted flit rate average= 0.0501172
	minimum = 0.0325 (at node 48)
	maximum = 0.064 (at node 43)
Injected packet length average = 1
Accepted packet length average = 1
Total in-flight flits = 110 (0 measured)
latency change    = 0.00115391
throughput change = 0.00888542
Class 0:
Packet latency average = 33.0436
	minimum = 7
	maximum = 78
Network latency average = 33.0436
	minimum = 7
	maximum = 78
Slowest packet = 261706
Flit latency average = 33.0436
	minimum = 7
	maximum = 78
Slowest flit = 261706
Fragmentation average = 0
	minimum = 0
	maximum = 0
Injected packet rate average = 0.0501719
	minimum = 0.036 (at node 20)
	maximum = 0.071 (at node 22)
Accepted packet rate average = 0.0505312
	minimum = 0.04 (at node 9)
	maximum = 0.069 (at node 58)
Injected flit rate average = 0.0501719
	minimum = 0.036 (at node 20)
	maximum = 0.071 (at node 22)
Accepted flit rate average= 0.0505312
	minimum = 0.04 (at node 9)
	maximum = 0.069 (at node 58)
Injected packet length average = 1
Accepted packet length average = 1
Total in-flight flits = 87 (0 measured)
latency change    = 0.0122718
throughput change = 0.00819419
Warmed up ...Time used is 3000 cycles
Class 0:
Packet latency average = 33.4524
	minimum = 7
	maximum = 77
Network latency average = 33.4524
	minimum = 7
	maximum = 77
Slowest packet = 262624
Flit latency average = 33.5631
	minimum = 7
	maximum = 77
Slowest flit = 262624
Fragmentation average = 0
	minimum = 0
	maximum = 0
Injected packet rate average = 0.050125
	minimum = 0.032 (at node 55)
	maximum = 0.063 (at node 45)
Accepted packet rate average = 0.0497812
	minimum = 0.037 (at node 30)
	maximum = 0.066 (at node 48)
Injected flit rate average = 0.050125
	minimum = 0.032 (at node 55)
	maximum = 0.063 (at node 45)
Accepted flit rate average= 0.0497812
	minimum = 0.037 (at node 30)
	maximum = 0.066 (at node 48)
Injected packet length average = 1
Accepted packet length average = 1
Total in-flight flits = 109 (109 measured)
latency change    = 0.0122205
throughput change = 0.0150659
Class 0:
Packet latency average = 33.4104
	minimum = 7
	maximum = 77
Network latency average = 33.4101
	minimum = 7
	maximum = 77
Slowest packet = 262624
Flit latency average = 33.4655
	minimum = 7
	maximum = 77
Slowest flit = 262624
Fragmentation average = 0
	minimum = 0
	maximum = 0
Injected packet rate average = 0.0504531
	minimum = 0.0405 (at node 13)
	maximum = 0.0615 (at node 9)
Accepted packet rate average = 0.0501953
	minimum = 0.038 (at node 45)
	maximum = 0.0615 (at node 32)
Injected flit rate average = 0.0504531
	minimum = 0.0405 (at node 13)
	maximum = 0.0615 (at node 9)
Accepted flit rate average= 0.0501953
	minimum = 0.038 (at node 45)
	maximum = 0.0615 (at node 32)
Injected packet length average = 1
Accepted packet length average = 1
Total in-flight flits = 120 (120 measured)
latency change    = 0.00125776
throughput change = 0.00824903
Class 0:
Packet latency average = 33.4067
	minimum = 7
	maximum = 77
Network latency average = 33.4065
	minimum = 7
	maximum = 77
Slowest packet = 262624
Flit latency average = 33.4437
	minimum = 7
	maximum = 77
Slowest flit = 262624
Fragmentation average = 0
	minimum = 0
	maximum = 0
Injected packet rate average = 0.049901
	minimum = 0.0423333 (at node 13)
	maximum = 0.0636667 (at node 9)
Accepted packet rate average = 0.0498385
	minimum = 0.0436667 (at node 12)
	maximum = 0.0586667 (at node 16)
Injected flit rate average = 0.049901
	minimum = 0.0423333 (at node 13)
	maximum = 0.0636667 (at node 9)
Accepted flit rate average= 0.0498385
	minimum = 0.0436667 (at node 12)
	maximum = 0.0586667 (at node 16)
Injected packet length average = 1
Accepted packet length average = 1
Total in-flight flits = 99 (99 measured)
latency change    = 0.000111252
throughput change = 0.00715853
Draining all recorded packets ...
Draining remaining packets ...
Time taken is 6130 cycles
Class 0:
Packet latency average = 33.1806
	minimum = 7
	maximum = 81
Network latency average = 33.1806
	minimum = 7
	maximum = 81
Slowest packet = 274787
Flit latency average = 33.1806
	minimum = 7
	maximum = 81
Slowest flit = 274787
Fragmentation average = 0
	minimum = 0
	maximum = 0
Injected packet rate average = 0.0511719
	minimum = 0.034 (at node 58)
	maximum = 0.073 (at node 13)
Accepted packet rate average = 0.0495625
	minimum = 0.034 (at node 49)
	maximum = 0.078 (at node 60)
Injected flit rate average = 0.0511719
	minimum = 0.034 (at node 58)
	maximum = 0.073 (at node 13)
Accepted flit rate average= 0.0495625
	minimum = 0.034 (at node 49)
	maximum = 0.078 (at node 60)
Injected packet length average = 1
Accepted packet length average = 1
Total in-flight flits = 103 (0 measured)
latency change    = 1
throughput change = 1
Class 0:
Packet latency average = 33.2183
	minimum = 7
	maximum = 81
Network latency average = 33.2183
	minimum = 7
	maximum = 81
Slowest packet = 274787
Flit latency average = 33.2183
	minimum = 7
	maximum = 81
Slowest flit = 274787
Fragmentation average = 0
	minimum = 0
	maximum = 0
Injected packet rate average = 0.0507734
	minimum = 0.039 (at node 58)
	maximum = 0.066 (at node 13)
Accepted packet rate average = 0.0499141
	minimum = 0.0405 (at node 8)
	maximum = 0.0645 (at node 60)
Injected flit rate average = 0.0507734
	minimum = 0.039 (at node 58)
	maximum = 0.066 (at node 13)
Accepted flit rate average= 0.0499141
	minimum = 0.0405 (at node 8)
	maximum = 0.0645 (at node 60)
Injected packet length average = 1
Accepted packet length average = 1
Total in-flight flits = 110 (0 measured)
latency change    = 0.00113494
throughput change = 0.00704336
Class 0:
Packet latency average = 33.3635
	minimum = 7
	maximum = 79
Network latency average = 33.3635
	minimum = 7
	maximum = 79
Slowest packet = 279811
Flit latency average = 33.3635
	minimum = 7
	maximum = 79
Slowest flit = 279811
Fragmentation average = 0
	minimum = 0
	maximum = 0
Injected packet rate average = 0.0507031
	minimum = 0.036 (at node 1)
	maximum = 0.069 (at node 9)
Accepted packet rate average = 0.0509844
	minimum = 0.037 (at node 12)
	maximum = 0.067 (at node 44)
Injected flit rate average = 0.0507031
	minimum = 0.036 (at node 1)
	maximum = 0.069 (at node 9)
Accepted flit rate average= 0.0509844
	minimum = 0.037 (at node 12)
	maximum = 0.067 (at node 44)
Injected packet length average = 1
Accepted packet length average = 1
Total in-flight flits = 92 (0 measured)
latency change    = 0.00434982
throughput change = 0.020993
Warmed up ...Time used is 3000 cycles
Class 0:
Packet latency average = 33.0888
	minimum = 7
	maximum = 77
Network latency average = 33.0888
	minimum = 7
	maximum = 77
Slowest packet = 282386
Flit latency average = 33.2941
	minimum = 7
	maximum = 77
Slowest flit = 282386
Fragmentation average = 0
	minimum = 0
	maximum = 0
Injected packet rate average = 0.0499062
	minimum = 0.033 (at node 50)
	maximum = 0.068 (at node 37)
Accepted packet rate average = 0.049625
	minimum = 0.027 (at node 36)
	maximum = 0.066 (at node 33)
Injected flit rate average = 0.0499062
	minimum = 0.033 (at node 50)
	maximum = 0.068 (at node 37)
Accepted flit rate average= 0.049625
	minimum = 0.027 (at node 36)
	maximum = 0.066 (at node 33)
Injected packet length average = 1
Accepted packet length average = 1
Total in-flight flits = 110 (110 measured)
latency change    = 0.00829958
throughput change = 0.0273929
Class 0:
Packet latency average = 33.2333
	minimum = 7
	maximum = 78
Network latency average = 33.2333
	minimum = 7
	maximum = 78
Slowest packet = 287233
Flit latency average = 33.3338
	minimum = 7
	maximum = 78
Slowest flit = 287233
Fragmentation average = 0
	minimum = 0
	maximum = 0
Injected packet rate average = 0.0498125
	minimum = 0.0385 (at node 50)
	maximum = 0.0625 (at node 59)
Accepted packet rate average = 0.0496172
	minimum = 0.0375 (at node 36)
	maximum = 0.0615 (at node 59)
Injected flit rate average = 0.0498125
	minimum = 0.0385 (at node 50)
	maximum = 0.0625 (at node 59)
Accepted flit rate average= 0.0496172
	minimum = 0.0375 (at node 36)
	maximum = 0.0615 (at node 59)
Injected packet length average = 1
Accepted packet length average = 1
Total in-flight flits = 117 (117 measured)
latency change    = 0.0043456
throughput change = 0.000157456
Class 0:
Packet latency average = 33.3572
	minimum = 7
	maximum = 78
Network latency average = 33.3572
	minimum = 7
	maximum = 78
Slowest packet = 287233
Flit latency average = 33.4219
	minimum = 7
	maximum = 78
Slowest flit = 287233
Fragmentation average = 0
	minimum = 0
	maximum = 0
Injected packet rate average = 0.0504948
	minimum = 0.0413333 (at node 61)
	maximum = 0.063 (at node 59)
Accepted packet rate average = 0.0504844
	minimum = 0.0426667 (at node 15)
	maximum = 0.061 (at node 0)
Injected flit rate average = 0.0504948
	minimum = 0.0413333 (at node 61)
	maximum = 0.063 (at node 59)
Accepted flit rate average= 0.0504844
	minimum = 0.0426667 (at node 15)
	maximum = 0.061 (at node 0)
Injected packet length average = 1
Accepted packet length average = 1
Total in-flight flits = 94 (94 measured)
latency change    = 0.00371393
throughput change = 0.0171773
Draining all recorded packets ...
Draining remaining packets ...
Time taken is 6120 cycles
Class 0:
Packet latency average = 33.3415
	minimum = 7
	maximum = 77
Network latency average = 33.3415
	minimum = 7
	maximum = 77
Slowest packet = 292759
Flit latency average = 33.3415
	minimum = 7
	maximum = 77
Slowest flit = 292759
Fragmentation average = 0
	minimum = 0
	maximum = 0
Injected packet rate average = 0.0503281
	minimum = 0.038 (at node 30)
	maximum = 0.063 (at node 42)
[...]
	maximum = 0.07 (at node 24)
Accepted flit rate average= 0.0509375
	minimum = 0.032 (at node 24)
	maximum = 0.071 (at node 15)
Injected packet length average = 1
Accepted packet length average = 1
Total in-flight flits = 100 (0 measured)
latency change    = 0.00876472
throughput change = 0.0329755
Warmed up ...Time used is 3000 cycles
Class 0:
Packet latency average = 33.0765
	minimum = 7
	maximum = 78
Network latency average = 33.0765
	minimum = 7
	maximum = 78
Slowest packet = 1893350
Flit latency average = 33.23
	minimum = 7
	maximum = 78
Slowest flit = 1893350
Fragmentation average = 0
	minimum = 0
	maximum = 0
Injected packet rate average = 0.0509531
	minimum = 0.038 (at node 11)
	maximum = 0.067 (at node 31)
Accepted packet rate average = 0.0510156
	minimum = 0.037 (at node 9)
	maximum = 0.071 (at node 6)
Injected flit rate average = 0.0509531
	minimum = 0.038 (at node 11)
	maximum = 0.067 (at node 31)
Accepted flit rate average= 0.0510156
	minimum = 0.037 (at node 9)
	maximum = 0.071 (at node 6)
Injected packet length average = 1
Accepted packet length average = 1
Total in-flight flits = 96 (96 measured)
latency change    = 0.0094755
throughput change = 0.00153139
Class 0:
Packet latency average = 33.1698
	minimum = 7
	maximum = 78
Network latency average = 33.1698
	minimum = 7
	maximum = 78
Slowest packet = 1893350
Flit latency average = 33.2464
	minimum = 7
	maximum = 78
Slowest flit = 1893350
Fragmentation average = 0
	minimum = 0
	maximum = 0
Injected packet rate average = 0.0501172
	minimum = 0.0415 (at node 57)
	maximum = 0.0625 (at node 31)
Accepted packet rate average = 0.0501875
	minimum = 0.039 (at node 9)
	maximum = 0.0625 (at node 60)
Injected flit rate average = 0.0501172
	minimum = 0.0415 (at node 57)
	maximum = 0.0625 (at node 31)
Accepted flit rate average= 0.0501875
	minimum = 0.039 (at node 9)
	maximum = 0.0625 (at node 60)
Injected packet length average = 1
Accepted packet length average = 1
Total in-flight flits = 91 (91 measured)
latency change    = 0.00281484
throughput change = 0.0165006
Class 0:
Packet latency average = 33.4125
	minimum = 7
	maximum = 79
Network latency average = 33.4123
	minimum = 7
	maximum = 79
Slowest packet = 1898121
Flit latency average = 33.4606
	minimum = 7
	maximum = 79
Slowest flit = 1898121
Fragmentation average = 0
	minimum = 0
	maximum = 0
Injected packet rate average = 0.050474
	minimum = 0.043 (at node 48)
	maximum = 0.063 (at node 41)
Accepted packet rate average = 0.0504635
	minimum = 0.0423333 (at node 53)
	maximum = 0.0603333 (at node 60)
Injected flit rate average = 0.050474
	minimum = 0.043 (at node 48)
	maximum = 0.063 (at node 41)
Accepted flit rate average= 0.0504635
	minimum = 0.0423333 (at node 53)
	maximum = 0.0603333 (at node 60)
Injected packet length average = 1
Accepted packet length average = 1
Total in-flight flits = 102 (102 measured)
latency change    = 0.00726144
throughput change = 0.00547012
Draining all recorded packets ...
Draining remaining packets ...
Time taken is 6116 cycles
Class 0:
Packet latency average = 33.3242
	minimum = 7
	maximum = 78
Network latency average = 33.3242
	minimum = 7
	maximum = 78
Slowest packet = 1901310
Flit latency average = 33.3242
	minimum = 7
	maximum = 78
Slowest flit = 1901310
Fragmentation average = 0
	minimum = 0
	maximum = 0
Injected packet rate average = 0.0501094
	minimum = 0.026 (at node 26)
	maximum = 0.068 (at node 46)
Accepted packet rate average = 0.0484375
	minimum = 0.034 (at node 49)
	maximum = 0.062 (at node 14)
Injected flit rate average = 0.0501094
	minimum = 0.026 (at node 26)
	maximum = 0.068 (at node 46)
Accepted flit rate average= 0.0484375
	minimum = 0.034 (at node 49)
	maximum = 0.062 (at node 14)
Injected packet length average = 1
Accepted packet length average = 1
Total in-flight flits = 107 (0 measured)
latency change    = 1
throughput change = 1
Class 0:
Packet latency average = 33.4916
	minimum = 7
	maximum = 78
Network latency average = 33.4916
	minimum = 7
	maximum = 78
Slowest packet = 1901310
Flit latency average = 33.4916
	minimum = 7
	maximum = 78
Slowest flit = 1901310
Fragmentation average = 0
	minimum = 0
	maximum = 0
Injected packet rate average = 0.05025
	minimum = 0.033 (at node 26)
	maximum = 0.0625 (at node 1)
Accepted packet rate average = 0.0494531
	minimum = 0.039 (at node 41)
	maximum = 0.0635 (at node 14)
Injected flit rate average = 0.05025
	minimum = 0.033 (at node 26)
	maximum = 0.0625 (at node 1)
Accepted flit rate average= 0.0494531
	minimum = 0.039 (at node 41)
	maximum = 0.0635 (at node 14)
Injected packet length average = 1
Accepted packet length average = 1
Total in-flight flits = 102 (0 measured)
latency change    = 0.00499927
throughput change = 0.0205371
Class 0:
Packet latency average = 33.4126
	minimum = 7
	maximum = 77
Network latency average = 33.4126
	minimum = 7
	maximum = 77
Slowest packet = 1908231
Flit latency average = 33.4126
	minimum = 7
	maximum = 77
Slowest flit = 1908231
Fragmentation average = 0
	minimum = 0
	maximum = 0
Injected packet rate average = 0.0504531
	minimum = 0.037 (at node 11)
	maximum = 0.067 (at node 16)
Accepted packet rate average = 0.05025
	minimum = 0.032 (at node 0)
	maximum = 0.066 (at node 58)
Injected flit rate average = 0.0504531
	minimum = 0.037 (at node 11)
	maximum = 0.067 (at node 16)
Accepted flit rate average= 0.05025
	minimum = 0.032 (at node 0)
	maximum = 0.066 (at node 58)
Injected packet length average = 1
Accepted packet length average = 1
Total in-flight flits = 115 (0 measured)
latency change    = 0.00236446
throughput change = 0.0158582
Warmed up ...Time used is 3000 cycles
Class 0:
Packet latency average = 33.5402
	minimum = 7
	maximum = 78
Network latency average = 33.5402
	minimum = 7
	maximum = 78
Slowest packet = 1910990
Flit latency average = 33.7354
	minimum = 7
	maximum = 78
Slowest flit = 1910990
Fragmentation average = 0
	minimum = 0
	maximum = 0
Injected packet rate average = 0.0495
	minimum = 0.033 (at node 41)
	maximum = 0.072 (at node 57)
Accepted packet rate average = 0.0495469
	minimum = 0.03 (at node 45)
	maximum = 0.067 (at node 11)
Injected flit rate average = 0.0495
	minimum = 0.033 (at node 41)
	maximum = 0.072 (at node 57)
Accepted flit rate average= 0.0495469
	minimum = 0.03 (at node 45)
	maximum = 0.067 (at node 11)
Injected packet length average = 1
Accepted packet length average = 1
Total in-flight flits = 112 (112 measured)
latency change    = 0.00380511
throughput change = 0.0141911
Class 0:
Packet latency average = 33.2905
	minimum = 7
	maximum = 78
Network latency average = 33.2905
	minimum = 7
	maximum = 78
Slowest packet = 1910990
Flit latency average = 33.3917
	minimum = 7
	maximum = 78
Slowest flit = 1910990
Fragmentation average = 0
	minimum = 0
	maximum = 0
Injected packet rate average = 0.0499844
	minimum = 0.041 (at node 41)
	maximum = 0.064 (at node 57)
Accepted packet rate average = 0.05
	minimum = 0.0395 (at node 46)
	maximum = 0.06 (at node 12)
Injected flit rate average = 0.0499844
	minimum = 0.041 (at node 41)
	maximum = 0.064 (at node 57)
Accepted flit rate average= 0.05
	minimum = 0.0395 (at node 46)
	maximum = 0.06 (at node 12)
Injected packet length average = 1
Accepted packet length average = 1
Total in-flight flits = 113 (113 measured)
latency change    = 0.0075011
throughput change = 0.0090625
Class 0:
Packet latency average = 33.3335
	minimum = 7
	maximum = 78
Network latency average = 33.3335
	minimum = 7
	maximum = 78
Slowest packet = 1910990
Flit latency average = 33.4007
	minimum = 7
	maximum = 78
Slowest flit = 1910990
Fragmentation average = 0
	minimum = 0
	maximum = 0
Injected packet rate average = 0.0496927
	minimum = 0.0416667 (at node 41)
	maximum = 0.0573333 (at node 17)
Accepted packet rate average = 0.0497656
	minimum = 0.041 (at node 60)
	maximum = 0.0563333 (at node 21)
Injected flit rate average = 0.0496927
	minimum = 0.0416667 (at node 41)
	maximum = 0.0573333 (at node 17)
Accepted flit rate average= 0.0497656
	minimum = 0.041 (at node 60)
	maximum = 0.0563333 (at node 21)
Injected packet length average = 1
Accepted packet length average = 1
Total in-flight flits = 101 (101 measured)
latency change    = 0.00128824
throughput change = 0.00470958
Draining all recorded packets ...
Draining remaining packets ...
Time taken is 6130 cycles
Class 0:
Packet latency average = 33.0029
	minimum = 7
	maximum = 77
Network latency average = 33.0029
	minimum = 7
	maximum = 77
Slowest packet = 1921871
Flit latency average = 33.0029
	minimum = 7
	maximum = 77
Slowest flit = 1921871
Fragmentation average = 0
	minimum = 0
	maximum = 0
Injected packet rate average = 0.05025
	minimum = 0.036 (at node 57)
	maximum = 0.065 (at node 21)
Accepted packet rate average = 0.0484844
	minimum = 0.029 (at node 2)
	maximum = 0.072 (at node 39)
Injected flit rate average = 0.05025
	minimum = 0.036 (at node 57)
	maximum = 0.065 (at node 21)
Accepted flit rate average= 0.0484844
	minimum = 0.029 (at node 2)
	maximum = 0.072 (at node 39)
Injected packet length average = 1
Accepted packet length average = 1
Total in-flight flits = 113 (0 measured)
latency change    = 1
throughput change = 1
Class 0:
Packet latency average = 33.2125
	minimum = 7
	maximum = 77
Network latency average = 33.2125
	minimum = 7
	maximum = 77
Slowest packet = 1921871
Flit latency average = 33.2125
	minimum = 7
	maximum = 77
Slowest flit = 1921871
Fragmentation average = 0
	minimum = 0
	maximum = 0
Injected packet rate average = 0.0495859
	minimum = 0.04 (at node 15)
	maximum = 0.0625 (at node 36)
Accepted packet rate average = 0.0487812
	minimum = 0.0355 (at node 2)
	maximum = 0.058 (at node 12)
Injected flit rate average = 0.0495859
	minimum = 0.04 (at node 15)
	maximum = 0.0625 (at node 36)
Accepted flit rate average= 0.0487812
	minimum = 0.0355 (at node 2)
	maximum = 0.058 (at node 12)
Injected packet length average = 1
Accepted packet length average = 1
Total in-flight flits = 103 (0 measured)
latency change    = 0.00631158
throughput change = 0.00608584
Class 0:
Packet latency average = 33.6344
	minimum = 7
	maximum = 78
Network latency average = 33.6344
	minimum = 7
	maximum = 78
Slowest packet = 1928310
Flit latency average = 33.6344
	minimum = 7
	maximum = 78
Slowest flit = 1928310
Fragmentation average = 0
	minimum = 0
	maximum = 0
Injected packet rate average = 0.0503594
	minimum = 0.035 (at node 47)
	maximum = 0.063 (at node 5)
Accepted packet rate average = 0.0500937
	minimum = 0.036 (at node 60)
	maximum = 0.065 (at node 2)
Injected flit rate average = 0.0503594
	minimum = 0.035 (at node 47)
	maximum = 0.063 (at node 5)
Accepted flit rate average= 0.0500937
	minimum = 0.036 (at node 60)
	maximum = 0.065 (at node 2)
Injected packet length average = 1
Accepted packet length average = 1
Total in-flight flits = 120 (0 measured)
latency change    = 0.012544
throughput change = 0.0262009
Warmed up ...Time used is 3000 cycles
Class 0:
Packet latency average = 33.1813
	minimum = 7
	maximum = 78
Network latency average = 33.1813
	minimum = 7
	maximum = 78
Slowest packet = 1930377
Flit latency average = 33.4451
	minimum = 7
	maximum = 78
Slowest flit = 1930377
Fragmentation average = 0
	minimum = 0
	maximum = 0
Injected packet rate average = 0.0501094
	minimum = 0.036 (at node 25)
	maximum = 0.067 (at node 4)
Accepted packet rate average = 0.0504844
	minimum = 0.035 (at node 26)
	maximum = 0.067 (at node 63)
Injected flit rate average = 0.0501094
	minimum = 0.036 (at node 25)
	maximum = 0.067 (at node 4)
Accepted flit rate average= 0.0504844
	minimum = 0.035 (at node 26)
	maximum = 0.067 (at node 63)
Injected packet length average = 1
Accepted packet length average = 1
Total in-flight flits = 96 (96 measured)
latency change    = 0.0136566
throughput change = 0.00773754
Class 0:
Packet latency average = 33.4831
	minimum = 7
	maximum = 82
Network latency average = 33.4831
	minimum = 7
	maximum = 82
Slowest packet = 1935541
Flit latency average = 33.6077
	minimum = 7
	maximum = 82
Slowest flit = 1935541
Fragmentation average = 0
	minimum = 0
	maximum = 0
Injected packet rate average = 0.0509922
	minimum = 0.0395 (at node 18)
	maximum = 0.0675 (at node 60)
Accepted packet rate average = 0.0511797
	minimum = 0.0395 (at node 0)
	maximum = 0.0615 (at node 9)
Injected flit rate average = 0.0509922
	minimum = 0.0395 (at node 18)
	maximum = 0.0675 (at node 60)
Accepted flit rate average= 0.0511797
	minimum = 0.0395 (at node 0)
	maximum = 0.0615 (at node 9)
Injected packet length average = 1
Accepted packet length average = 1
Total in-flight flits = 96 (96 measured)
latency change    = 0.00901458
throughput change = 0.0135857
Class 0:
Packet latency average = 33.6427
	minimum = 7
	maximum = 82
Network latency average = 33.6427
	minimum = 7
	maximum = 82
Slowest packet = 1935541
Flit latency average = 33.7241
	minimum = 7
	maximum = 82
Slowest flit = 1935541
Fragmentation average = 0
	minimum = 0
	maximum = 0
Injected packet rate average = 0.0508646
	minimum = 0.0396667 (at node 46)
	maximum = 0.0633333 (at node 60)
Accepted packet rate average = 0.0509896
	minimum = 0.043 (at node 21)
	maximum = 0.0613333 (at node 63)
Injected flit rate average = 0.0508646
	minimum = 0.0396667 (at node 46)
	maximum = 0.0633333 (at node 60)
Accepted flit rate average= 0.0509896
	minimum = 0.043 (at node 21)
	maximum = 0.0613333 (at node 63)
Injected packet length average = 1
Accepted packet length average = 1
Total in-flight flits = 96 (96 measured)
latency change    = 0.0047434
throughput change = 0.00372829
Draining all recorded packets ...
Draining remaining packets ...
Time taken is 6124 cycles
Class 0:
Packet latency average = 33.327
	minimum = 7
	maximum = 72
Network latency average = 33.326
	minimum = 7
	maximum = 72
Slowest packet = 1940807
Flit latency average = 33.326
	minimum = 7
	maximum = 72
Slowest flit = 1940807
Fragmentation average = 0
	minimum = 0
	maximum = 0
Injected packet rate average = 0.0486719
	minimum = 0.033 (at node 49)
	maximum = 0.064 (at node 26)
Accepted packet rate average = 0.0470156
	minimum = 0.029 (at node 3)
	maximum = 0.072 (at node 53)
Injected flit rate average = 0.0486719
	minimum = 0.033 (at node 49)
	maximum = 0.064 (at node 26)
Accepted flit rate average= 0.0470156
	minimum = 0.029 (at node 3)
	maximum = 0.072 (at node 53)
Injected packet length average = 1
Accepted packet length average = 1
Total in-flight flits = 106 (0 measured)
latency change    = 1
throughput change = 1
Class 0:
Packet latency average = 33.2376
	minimum = 7
	maximum = 77
Network latency average = 33.237
	minimum = 7
	maximum = 77
Slowest packet = 1943234
Flit latency average = 33.237
	minimum = 7
	maximum = 77
Slowest flit = 1943234
Fragmentation average = 0
	minimum = 0
	maximum = 0
Injected packet rate average = 0.0498828
	minimum = 0.0385 (at node 25)
	maximum = 0.061 (at node 15)
Accepted packet rate average = 0.0489844
	minimum = 0.038 (at node 3)
	maximum = 0.064 (at node 17)
Injected flit rate average = 0.0498828
	minimum = 0.0385 (at node 25)
	maximum = 0.061 (at node 15)
Accepted flit rate average= 0.0489844
	minimum = 0.038 (at node 3)
	maximum = 0.064 (at node 17)
Injected packet length average = 1
Accepted packet length average = 1
Total in-flight flits = 115 (0 measured)
latency change    = 0.0026891
throughput change = 0.0401914
Class 0:
Packet latency average = 33.2419
	minimum = 7
	maximum = 77
Network latency average = 33.2419
	minimum = 7
	maximum = 77
Slowest packet = 1946669
Flit latency average = 33.2419
	minimum = 7
	maximum = 77
Slowest flit = 1946669
Fragmentation average = 0
	minimum = 0
	maximum = 0
Injected packet rate average = 0.0501094
	minimum = 0.034 (at node 24)
	maximum = 0.066 (at node 43)
Accepted packet rate average = 0.0499375
	minimum = 0.026 (at node 41)
	maximum = 0.065 (at node 62)
Injected flit rate average = 0.0501094
	minimum = 0.034 (at node 24)
	maximum = 0.066 (at node 43)
Accepted flit rate average= 0.0499375
	minimum = 0.026 (at node 41)
	maximum = 0.065 (at node 62)
Injected packet length average = 1
Accepted packet length average = 1
Total in-flight flits = 126 (0 measured)
latency change    = 0.000127107
throughput change = 0.0190864
Warmed up ...Time used is 3000 cycles
Class 0:
Packet latency average = 33.0961
	minimum = 7
	maximum = 79
Network latency average = 33.0961
	minimum = 7
	maximum = 79
Slowest packet = 1950121
Flit latency average = 33.2723
	minimum = 7
	maximum = 79
Slowest flit = 1950121
Fragmentation average = 0
	minimum = 0
	maximum = 0
Injected packet rate average = 0.0509375
	minimum = 0.037 (at node 12)
	maximum = 0.075 (at node 25)
Accepted packet rate average = 0.0510625
	minimum = 0.037 (at node 20)
	maximum = 0.068 (at node 1)
Injected flit rate average = 0.0509375
	minimum = 0.037 (at node 12)
	maximum = 0.075 (at node 25)
Accepted flit rate average= 0.0510625
	minimum = 0.037 (at node 20)
	maximum = 0.068 (at node 1)
Injected packet length average = 1
Accepted packet length average = 1
Total in-flight flits = 118 (118 measured)
latency change    = 0.00440377
throughput change = 0.0220318
Class 0:
Packet latency average = 33.3509
	minimum = 7
	maximum = 79
Network latency average = 33.3509
	minimum = 7
	maximum = 79
Slowest packet = 1950121
Flit latency average = 33.4354
	minimum = 7
	maximum = 79
Slowest flit = 1950121
Fragmentation average = 0
	minimum = 0
	maximum = 0
Injected packet rate average = 0.0500312
	minimum = 0.037 (at node 5)
	maximum = 0.065 (at node 25)
Accepted packet rate average = 0.0502734
	minimum = 0.0385 (at node 42)
	maximum = 0.063 (at node 55)
Injected flit rate average = 0.0500312
	minimum = 0.037 (at node 5)
	maximum = 0.065 (at node 25)
Accepted flit rate average= 0.0502734
	minimum = 0.0385 (at node 42)
	maximum = 0.063 (at node 55)
Injected packet length average = 1
Accepted packet length average = 1
Total in-flight flits = 95 (95 measured)
latency change    = 0.00764027
throughput change = 0.0156954
Class 0:
Packet latency average = 33.435
	minimum = 7
	maximum = 79
Network latency average = 33.4349
	minimum = 7
	maximum = 79
Slowest packet = 1950121
Flit latency average = 33.4904
	minimum = 7
	maximum = 79
Slowest flit = 1950121
Fragmentation average = 0
	minimum = 0
	maximum = 0
Injected packet rate average = 0.0500208
	minimum = 0.039 (at node 5)
	maximum = 0.0636667 (at node 32)
Accepted packet rate average = 0.0500885
	minimum = 0.0403333 (at node 44)
	maximum = 0.0596667 (at node 40)
Injected flit rate average = 0.0500208
	minimum = 0.039 (at node 5)
	maximum = 0.0636667 (at node 32)
Accepted flit rate average= 0.0500885
	minimum = 0.0403333 (at node 44)
	maximum = 0.0596667 (at node 40)
Injected packet length average = 1
Accepted packet length average = 1
Total in-flight flits = 113 (113 measured)
latency change    = 0.00251582
throughput change = 0.00369138
Draining all recorded packets ...
Draining remaining packets ...
Time taken is 6119 cycles
====== Overall Traffic Statistics ======
====== Traffic class 0 ======
Packet latency average = 33.4523 (100 samples)
	minimum = 7 (100 samples)
	maximum = 79.23 (100 samples)
Network latency average = 33.4523 (100 samples)
	minimum = 7 (100 samples)
	maximum = 79.23 (100 samples)
Flit latency average = 33.5085 (100 samples)
	minimum = 7 (100 samples)
	maximum = 79.25 (100 samples)
Fragmentation average = 0 (100 samples)
	minimum = 0 (100 samples)
	maximum = 0 (100 samples)
Injected packet rate average = 0.0499794 (100 samples)
	minimum = 0.0409333 (100 samples)
	maximum = 0.0598358 (100 samples)
Accepted packet rate average = 0.0499801 (100 samples)
	minimum = 0.0407417 (100 samples)
	maximum = 0.0596092 (100 samples)
Injected flit rate average = 0.0499794 (100 samples)
	minimum = 0.0409333 (100 samples)
	maximum = 0.0598358 (100 samples)
Accepted flit rate average = 0.0499801 (100 samples)
	minimum = 0.0407417 (100 samples)
	maximum = 0.0596092 (100 samples)
Injected packet size average = 1 (100 samples)
Accepted packet size average = 1 (100 samples)
Hops average = 6.25336 (100 samples)
Total run time 62.8164
