BEGIN Configuration File: /tmp/bs_1138183_555650.cfg
topology = mesh;
k = 4;
n = 2;
routing_function = adaptive_xy_yx;
num_vcs = 4;
vc_buf_size = 4;
wait_for_tail_credit = 1;
vc_allocator = islip;
sw_allocator = islip;
alloc_iters = 1;
credit_delay = 2;
routing_delay = 1;
vc_alloc_delay = 1;
sw_alloc_delay = 1;
input_speedup = 2;
output_speedup = 1;
internal_speedup = 1.0;
traffic = transpose;
packet_size = 1;
sim_type = latency;
injection_rate = 0.02;
warmup_periods = 3;
sample_period = 1000;
sim_count = 100;
seed = 3;

END Configuration File: /tmp/bs_1138183_555650.cfg
Class 0:
Packet latency average = 19.2328
	minimum = 7
	maximum = 37
Network latency average = 19.2328
	minimum = 7
	maximum = 37
Slowest packet = 3
Flit latency average = 19.2328
	minimum = 7
	maximum = 37
Slowest flit = 3
Fragmentation average = 0
	minimum = 0
	maximum = 0
Injected packet rate average = 0.0194375
	minimum = 0.011 (at node 12)
	maximum = 0.032 (at node 13)
Accepted packet rate average = 0.0190625
	minimum = 0.01 (at node 3)
	maximum = 0.03 (at node 7)
Injected flit rate average = 0.0194375
	minimum = 0.011 (at node 12)
	maximum = 0.032 (at node 13)
Accepted flit rate average= 0.0190625
	minimum = 0.01 (at node 3)
	maximum = 0.03 (at node 7)
Injected packet length average = 1
Accepted packet length average = 1
Total in-flight flits = 6 (0 measured)
latency change    = 1
throughput change = 1
Class 0:
Packet latency average = 18.9983
	minimum = 7
	maximum = 38
Network latency average = 18.9983
	minimum = 7
	maximum = 38
Slowest packet = 593
Flit latency average = 18.9983
	minimum = 7
	maximum = 38
Slowest flit = 593
Fragmentation average = 0
	minimum = 0
	maximum = 0
Injected packet rate average = 0.019
	minimum = 0.014 (at node 12)
	maximum = 0.025 (at node 11)
Accepted packet rate average = 0.0188437
	minimum = 0.014 (at node 3)
	maximum = 0.0245 (at node 14)
Injected flit rate average = 0.019
	minimum = 0.014 (at node 12)
	maximum = 0.025 (at node 11)
Accepted flit rate average= 0.0188437
	minimum = 0.014 (at node 3)
	maximum = 0.0245 (at node 14)
Injected packet length average = 1
Accepted packet length average = 1
Total in-flight flits = 5 (0 measured)
latency change    = 0.0123403
throughput change = 0.0116086
Class 0:
Packet latency average = 20.4236
	minimum = 7
	maximum = 45
Network latency average = 20.4236
	minimum = 7
	maximum = 45
Slowest packet = 693
Flit latency average = 20.4236
	minimum = 7
	maximum = 45
Slowest flit = 693
Fragmentation average = 0
	minimum = 0
	maximum = 0
Injected packet rate average = 0.019625
	minimum = 0.013 (at node 9)
	maximum = 0.027 (at node 12)
Accepted packet rate average = 0.019625
	minimum = 0.013 (at node 6)
	maximum = 0.026 (at node 3)
Injected flit rate average = 0.019625
	minimum = 0.013 (at node 9)
	maximum = 0.027 (at node 12)
Accepted flit rate average= 0.019625
	minimum = 0.013 (at node 6)
	maximum = 0.026 (at node 3)
Injected packet length average = 1
Accepted packet length average = 1
Total in-flight flits = 5 (0 measured)
latency change    = 0.0697834
throughput change = 0.0398089
Warmed up ...Time used is 3000 cycles
Class 0:
Packet latency average = 19.6385
	minimum = 7
	maximum = 38
Network latency average = 19.6385
	minimum = 7
	maximum = 38
Slowest packet = 990
Flit latency average = 19.7608
	minimum = 7
	maximum = 38
Slowest flit = 990
Fragmentation average = 0
	minimum = 0
	maximum = 0
Injected packet rate average = 0.018875
	minimum = 0.01 (at node 2)
	maximum = 0.027 (at node 8)
Accepted packet rate average = 0.0188125
	minimum = 0.01 (at node 8)
	maximum = 0.028 (at node 2)
Injected flit rate average = 0.018875
	minimum = 0.01 (at node 2)
	maximum = 0.027 (at node 8)
Accepted flit rate average= 0.0188125
	minimum = 0.01 (at node 8)
	maximum = 0.028 (at node 2)
Injected packet length average = 1
Accepted packet length average = 1
Total in-flight flits = 6 (6 measured)
latency change    = 0.0399752
throughput change = 0.0431894
Class 0:
Packet latency average = 19.516
	minimum = 7
	maximum = 39
Network latency average = 19.516
	minimum = 7
	maximum = 39
Slowest packet = 1386
Flit latency average = 19.5725
	minimum = 7
	maximum = 39
Slowest flit = 1386
Fragmentation average = 0
	minimum = 0
	maximum = 0
Injected packet rate average = 0.0207188
	minimum = 0.0155 (at node 2)
	maximum = 0.025 (at node 10)
Accepted packet rate average = 0.0206875
	minimum = 0.0155 (at node 8)
	maximum = 0.025 (at node 10)
Injected flit rate average = 0.0207188
	minimum = 0.0155 (at node 2)
	maximum = 0.025 (at node 10)
Accepted flit rate average= 0.0206875
	minimum = 0.0155 (at node 8)
	maximum = 0.025 (at node 10)
Injected packet length average = 1
Accepted packet length average = 1
Total in-flight flits = 6 (6 measured)
latency change    = 0.00627854
throughput change = 0.0906344
Class 0:
Packet latency average = 19.5142
	minimum = 7
	maximum = 39
Network latency average = 19.5142
	minimum = 7
	maximum = 39
Slowest packet = 1386
Flit latency average = 19.5521
	minimum = 7
	maximum = 39
Slowest flit = 1386
Fragmentation average = 0
	minimum = 0
	maximum = 0
Injected packet rate average = 0.0208125
	minimum = 0.015 (at node 2)
	maximum = 0.0246667 (at node 9)
Accepted packet rate average = 0.0206042
	minimum = 0.015 (at node 8)
	maximum = 0.0243333 (at node 6)
Injected flit rate average = 0.0208125
	minimum = 0.015 (at node 2)
	maximum = 0.0246667 (at node 9)
Accepted flit rate average= 0.0206042
	minimum = 0.015 (at node 8)
	maximum = 0.0243333 (at node 6)
Injected packet length average = 1
Accepted packet length average = 1
Total in-flight flits = 15 (15 measured)
latency change    = 8.98879e-05
throughput change = 0.00404449
Class 0:
Packet latency average = 19.2947
	minimum = 7
	maximum = 39
Network latency average = 19.2947
	minimum = 7
	maximum = 39
Slowest packet = 1386
Flit latency average = 19.3242
	minimum = 7
	maximum = 39
Slowest flit = 1386
Fragmentation average = 0
	minimum = 0
	maximum = 0
Injected packet rate average = 0.0204531
	minimum = 0.01625 (at node 3)
	maximum = 0.02375 (at node 10)
Accepted packet rate average = 0.0204375
	minimum = 0.0165 (at node 12)
	maximum = 0.02375 (at node 10)
Injected flit rate average = 0.0204531
	minimum = 0.01625 (at node 3)
	maximum = 0.02375 (at node 10)
Accepted flit rate average= 0.0204375
	minimum = 0.0165 (at node 12)
	maximum = 0.02375 (at node 10)
Injected packet length average = 1
Accepted packet length average = 1
Total in-flight flits = 6 (6 measured)
latency change    = 0.0113774
throughput change = 0.00815494
Class 0:
Packet latency average = 19.1024
	minimum = 7
	maximum = 39
Network latency average = 19.1024
	minimum = 7
	maximum = 39
Slowest packet = 1386
Flit latency average = 19.1264
	minimum = 7
	maximum = 39
Slowest flit = 1386
Fragmentation average = 0
	minimum = 0
	maximum = 0
Injected packet rate average = 0.020575
	minimum = 0.0166 (at node 3)
	maximum = 0.0234 (at node 5)
Accepted packet rate average = 0.020575
	minimum = 0.0166 (at node 12)
	maximum = 0.0234 (at node 5)
Injected flit rate average = 0.020575
	minimum = 0.0166 (at node 3)
	maximum = 0.0234 (at node 5)
Accepted flit rate average= 0.020575
	minimum = 0.0166 (at node 12)
	maximum = 0.0234 (at node 5)
Injected packet length average = 1
Accepted packet length average = 1
Total in-flight flits = 5 (5 measured)
latency change    = 0.0100683
throughput change = 0.00668287
Draining all recorded packets ...
Draining remaining packets ...
Time taken is 8044 cycles
Class 0:
Packet latency average = 19.5824
	minimum = 7
	maximum = 40
Network latency average = 19.5824
	minimum = 7
	maximum = 40
Slowest packet = 2833
Flit latency average = 19.5824
	minimum = 7
	maximum = 40
Slowest flit = 2833
Fragmentation average = 0
	minimum = 0
	maximum = 0
Injected packet rate average = 0.022375
	minimum = 0.01 (at node 8)
	maximum = 0.029 (at node 6)
Accepted packet rate average = 0.022
	minimum = 0.01 (at node 2)
	maximum = 0.029 (at node 9)
Injected flit rate average = 0.022375
	minimum = 0.01 (at node 8)
	maximum = 0.029 (at node 6)
Accepted flit rate average= 0.022
	minimum = 0.01 (at node 2)
	maximum = 0.029 (at node 9)
Injected packet length average = 1
Accepted packet length average = 1
Total in-flight flits = 6 (0 measured)
latency change    = 1
throughput change = 1
Class 0:
Packet latency average = 19.4513
	minimum = 7
	maximum = 44
Network latency average = 19.4513
	minimum = 7
	maximum = 44
Slowest packet = 3150
Flit latency average = 19.4513
	minimum = 7
	maximum = 44
Slowest flit = 3150
Fragmentation average = 0
	minimum = 0
	maximum = 0
Injected packet rate average = 0.0214375
	minimum = 0.013 (at node 8)
	maximum = 0.024 (at node 2)
Accepted packet rate average = 0.0211875
	minimum = 0.013 (at node 2)
	maximum = 0.0235 (at node 1)
Injected flit rate average = 0.0214375
	minimum = 0.013 (at node 8)
	maximum = 0.024 (at node 2)
Accepted flit rate average= 0.0211875
	minimum = 0.013 (at node 2)
	maximum = 0.0235 (at node 1)
Injected packet length average = 1
Accepted packet length average = 1
Total in-flight flits = 8 (0 measured)
latency change    = 0.00673779
throughput change = 0.0383481
Class 0:
Packet latency average = 19.5807
	minimum = 7
	maximum = 37
Network latency average = 19.5807
	minimum = 7
	maximum = 37
Slowest packet = 3249
Flit latency average = 19.5807
	minimum = 7
	maximum = 37
Slowest flit = 3249
Fragmentation average = 0
	minimum = 0
	maximum = 0
Injected packet rate average = 0.019875
	minimum = 0.013 (at node 1)
	maximum = 0.028 (at node 14)
Accepted packet rate average = 0.020125
	minimum = 0.013 (at node 4)
	maximum = 0.026 (at node 11)
Injected flit rate average = 0.019875
	minimum = 0.013 (at node 1)
	maximum = 0.028 (at node 14)
Accepted flit rate average= 0.020125
	minimum = 0.013 (at node 4)
	maximum = 0.026 (at node 11)
Injected packet length average = 1
Accepted packet length average = 1
Total in-flight flits = 4 (0 measured)
latency change    = 0.00660945
throughput change = 0.052795
Warmed up ...Time used is 3000 cycles
Class 0:
Packet latency average = 19.1869
	minimum = 7
	maximum = 37
Network latency average = 19.1869
	minimum = 7
	maximum = 37
Slowest packet = 3574
Flit latency average = 19.2253
	minimum = 7
	maximum = 37
Slowest flit = 3570
Fragmentation average = 0
	minimum = 0
	maximum = 0
Injected packet rate average = 0.0181875
	minimum = 0.014 (at node 2)
	maximum = 0.026 (at node 1)
Accepted packet rate average = 0.0183125
	minimum = 0.014 (at node 7)
	maximum = 0.026 (at node 4)
Injected flit rate average = 0.0181875
	minimum = 0.014 (at node 2)
	maximum = 0.026 (at node 1)
Accepted flit rate average= 0.0183125
	minimum = 0.014 (at node 7)
	maximum = 0.026 (at node 4)
Injected packet length average = 1
Accepted packet length average = 1
Total in-flight flits = 2 (2 measured)
latency change    = 0.0205294
throughput change = 0.0989761
Class 0:
Packet latency average = 19.873
	minimum = 7
	maximum = 41
Network latency average = 19.873
	minimum = 7
	maximum = 41
Slowest packet = 4085
Flit latency average = 19.8866
	minimum = 7
	maximum = 41
Slowest flit = 4085
Fragmentation average = 0
	minimum = 0
	maximum = 0
Injected packet rate average = 0.0195312
	minimum = 0.015 (at node 14)
	maximum = 0.0265 (at node 1)
Accepted packet rate average = 0.0195625
	minimum = 0.015 (at node 15)
	maximum = 0.0265 (at node 4)
Injected flit rate average = 0.0195312
	minimum = 0.015 (at node 14)
	maximum = 0.0265 (at node 1)
Accepted flit rate average= 0.0195625
	minimum = 0.015 (at node 15)
	maximum = 0.0265 (at node 4)
Injected packet length average = 1
Accepted packet length average = 1
Total in-flight flits = 3 (3 measured)
latency change    = 0.0345262
throughput change = 0.0638978
Class 0:
Packet latency average = 19.7177
	minimum = 7
	maximum = 41
Network latency average = 19.7177
	minimum = 7
	maximum = 41
Slowest packet = 4085
Flit latency average = 19.7271
	minimum = 7
	maximum = 41
Slowest flit = 4085
Fragmentation average = 0
	minimum = 0
	maximum = 0
Injected packet rate average = 0.02025
	minimum = 0.017 (at node 10)
	maximum = 0.0246667 (at node 1)
Accepted packet rate average = 0.0202292
	minimum = 0.017 (at node 7)
	maximum = 0.0246667 (at node 4)
Injected flit rate average = 0.02025
	minimum = 0.017 (at node 10)
	maximum = 0.0246667 (at node 1)
Accepted flit rate average= 0.0202292
	minimum = 0.017 (at node 7)
	maximum = 0.0246667 (at node 4)
Injected packet length average = 1
Accepted packet length average = 1
Total in-flight flits = 5 (5 measured)
latency change    = 0.00787652
throughput change = 0.0329557
Class 0:
Packet latency average = 19.759
	minimum = 7
	maximum = 41
Network latency average = 19.759
	minimum = 7
	maximum = 41
Slowest packet = 4085
Flit latency average = 19.766
	minimum = 7
	maximum = 41
Slowest flit = 4085
Fragmentation average = 0
	minimum = 0
	maximum = 0
Injected packet rate average = 0.0200781
	minimum = 0.01575 (at node 13)
	maximum = 0.02475 (at node 5)
Accepted packet rate average = 0.0200313
	minimum = 0.01575 (at node 7)
	maximum = 0.0245 (at node 5)
Injected flit rate average = 0.0200781
	minimum = 0.01575 (at node 13)
	maximum = 0.02475 (at node 5)
Accepted flit rate average= 0.0200313
	minimum = 0.01575 (at node 7)
	maximum = 0.0245 (at node 5)
Injected packet length average = 1
Accepted packet length average = 1
Total in-flight flits = 7 (7 measured)
latency change    = 0.00209094
throughput change = 0.0098804
Class 0:
Packet latency average = 19.7118
	minimum = 7
	maximum = 44
Network latency average = 19.7118
	minimum = 7
	maximum = 44
Slowest packet = 4961
Flit latency average = 19.7175
	minimum = 7
	maximum = 44
Slowest flit = 4961
Fragmentation average = 0
	minimum = 0
	maximum = 0
Injected packet rate average = 0.0200625
	minimum = 0.017 (at node 11)
	maximum = 0.024 (at node 1)
Accepted packet rate average = 0.02
	minimum = 0.017 (at node 14)
	maximum = 0.024 (at node 4)
Injected flit rate average = 0.0200625
	minimum = 0.017 (at node 11)
	maximum = 0.024 (at node 1)
Accepted flit rate average= 0.02
	minimum = 0.017 (at node 14)
	maximum = 0.024 (at node 4)
Injected packet length average = 1
Accepted packet length average = 1
Total in-flight flits = 9 (9 measured)
latency change    = 0.00239547
throughput change = 0.0015625
Draining all recorded packets ...
Draining remaining packets ...
Time taken is 8061 cycles
Class 0:
Packet latency average = 19.9713
	minimum = 7
	maximum = 40
Network latency average = 19.9713
	minimum = 7
	maximum = 40
Slowest packet = 5409
Flit latency average = 19.9713
	minimum = 7
	maximum = 40
Slowest flit = 5409
Fragmentation average = 0
	minimum = 0
	maximum = 0
Injected packet rate average = 0.0221875
	minimum = 0.013 (at node 5)
	maximum = 0.03 (at node 11)
Accepted packet rate average = 0.0218125
	minimum = 0.013 (at node 5)
	maximum = 0.029 (at node 14)
Injected flit rate average = 0.0221875
	minimum = 0.013 (at node 5)
	maximum = 0.03 (at node 11)
Accepted flit rate average= 0.0218125
	minimum = 0.013 (at node 5)
	maximum = 0.029 (at node 14)
Injected packet length average = 1
Accepted packet length average = 1
Total in-flight flits = 6 (0 measured)
latency change    = 1
throughput change = 1
Class 0:
Packet latency average = 20.0015
	minimum = 7
	maximum = 40
Network latency average = 20.0015
	minimum = 7
	maximum = 40
Slowest packet = 5409
Flit latency average = 20.0015
	minimum = 7
	maximum = 40
Slowest flit = 5409
Fragmentation average = 0
	minimum = 0
	maximum = 0
Injected packet rate average = 0.02075
	minimum = 0.0145 (at node 5)
	maximum = 0.0285 (at node 11)
Accepted packet rate average = 0.0205313
	minimum = 0.0145 (at node 5)
	maximum = 0.0285 (at node 14)
Injected flit rate average = 0.02075
	minimum = 0.0145 (at node 5)
	maximum = 0.0285 (at node 11)
Accepted flit rate average= 0.0205313
	minimum = 0.0145 (at node 5)
	maximum = 0.0285 (at node 14)
Injected packet length average = 1
Accepted packet length average = 1
Total in-flight flits = 7 (0 measured)
latency change    = 0.00150865
throughput change = 0.0624049
Class 0:
Packet latency average = 19.5401
	minimum = 7
	maximum = 43
Network latency average = 19.5401
	minimum = 7
	maximum = 43
Slowest packet = 5903
Flit latency average = 19.5401
	minimum = 7
	maximum = 43
Slowest flit = 5903
Fragmentation average = 0
	minimum = 0
	maximum = 0
Injected packet rate average = 0.021
	minimum = 0.014 (at node 9)
	maximum = 0.027 (at node 3)
Accepted packet rate average = 0.0210625
	minimum = 0.014 (at node 6)
	maximum = 0.026 (at node 1)
Injected flit rate average = 0.021
	minimum = 0.014 (at node 9)
	maximum = 0.027 (at node 3)
Accepted flit rate average= 0.0210625
	minimum = 0.014 (at node 6)
	maximum = 0.026 (at node 1)
Injected packet length average = 1
Accepted packet length average = 1
Total in-flight flits = 6 (0 measured)
latency change    = 0.0236162
throughput change = 0.0252226
Warmed up ...Time used is 3000 cycles
Class 0:
Packet latency average = 19.203
	minimum = 7
	maximum = 42
Network latency average = 19.203
	minimum = 7
	maximum = 42
Slowest packet = 6240
Flit latency average = 19.4315
	minimum = 7
	maximum = 42
Slowest flit = 6240
Fragmentation average = 0
	minimum = 0
	maximum = 0
Injected packet rate average = 0.020875
	minimum = 0.015 (at node 1)
	maximum = 0.032 (at node 5)
Accepted packet rate average = 0.021
	minimum = 0.014 (at node 1)
	maximum = 0.032 (at node 5)
Injected flit rate average = 0.020875
	minimum = 0.015 (at node 1)
	maximum = 0.032 (at node 5)
Accepted flit rate average= 0.021
	minimum = 0.014 (at node 1)
	maximum = 0.032 (at node 5)
Injected packet length average = 1
Accepted packet length average = 1
Total in-flight flits = 4 (4 measured)
latency change    = 0.0175508
throughput change = 0.00297619
Class 0:
Packet latency average = 19.7748
	minimum = 7
	maximum = 42
Network latency average = 19.7748
	minimum = 7
	maximum = 42
Slowest packet = 6240
Flit latency average = 19.8839
	minimum = 7
	maximum = 42
Slowest flit = 6240
Fragmentation average = 0
	minimum = 0
	maximum = 0
Injected packet rate average = 0.021
	minimum = 0.017 (at node 15)
	maximum = 0.0255 (at node 5)
Accepted packet rate average = 0.021
	minimum = 0.0165 (at node 15)
	maximum = 0.026 (at node 7)
Injected flit rate average = 0.021
	minimum = 0.017 (at node 15)
	maximum = 0.0255 (at node 5)
Accepted flit rate average= 0.021
	minimum = 0.0165 (at node 15)
	maximum = 0.026 (at node 7)
Injected packet length average = 1
Accepted packet length average = 1
Total in-flight flits = 6 (6 measured)
latency change    = 0.0289128
throughput change = 0
Class 0:
Packet latency average = 19.6024
	minimum = 7
	maximum = 42
Network latency average = 19.6024
	minimum = 7
	maximum = 42
Slowest packet = 6240
Flit latency average = 19.6766
	minimum = 7
	maximum = 42
Slowest flit = 6240
Fragmentation average = 0
	minimum = 0
	maximum = 0
Injected packet rate average = 0.0208333
	minimum = 0.0183333 (at node 2)
	maximum = 0.0243333 (at node 5)
Accepted packet rate average = 0.020875
	minimum = 0.0183333 (at node 13)
	maximum = 0.0246667 (at node 3)
Injected flit rate average = 0.0208333
	minimum = 0.0183333 (at node 2)
	maximum = 0.0243333 (at node 5)
Accepted flit rate average= 0.020875
	minimum = 0.0183333 (at node 13)
	maximum = 0.0246667 (at node 3)
Injected packet length average = 1
Accepted packet length average = 1
Total in-flight flits = 4 (4 measured)
latency change    = 0.00879306
throughput change = 0.00598802
Draining all recorded packets ...
Draining remaining packets ...
Time taken is 6035 cycles
Class 0:
Packet latency average = 19.4123
	minimum = 7
	maximum = 43
Network latency average = 19.4123
	minimum = 7
	maximum = 43
Slowest packet = 7210
Flit latency average = 19.4123
	minimum = 7
	maximum = 43
Slowest flit = 7210
Fragmentation average = 0
	minimum = 0
	maximum = 0
Injected packet rate average = 0.020625
	minimum = 0.014 (at node 7)
	maximum = 0.027 (at node 9)
Accepted packet rate average = 0.0203125
	minimum = 0.013 (at node 13)
	maximum = 0.027 (at node 6)
Injected flit rate average = 0.020625
	minimum = 0.014 (at node 7)
	maximum = 0.027 (at node 9)
Accepted flit rate average= 0.0203125
	minimum = 0.013 (at node 13)
	maximum = 0.027 (at node 6)
Injected packet length average = 1
Accepted packet length average = 1
Total in-flight flits = 5 (0 measured)
latency change    = 1
throughput change = 1
Class 0:
Packet latency average = 19.4947
	minimum = 7
	maximum = 43
Network latency average = 19.4947
	minimum = 7
	maximum = 43
Slowest packet = 7210
Flit latency average = 19.4947
	minimum = 7
	maximum = 43
Slowest flit = 7210
Fragmentation average = 0
	minimum = 0
	maximum = 0
Injected packet rate average = 0.0206875
	minimum = 0.0145 (at node 7)
	maximum = 0.03 (at node 2)
Accepted packet rate average = 0.0205313
	minimum = 0.0145 (at node 13)
	maximum = 0.029 (at node 8)
Injected flit rate average = 0.0206875
	minimum = 0.0145 (at node 7)
	maximum = 0.03 (at node 2)
Accepted flit rate average= 0.0205313
	minimum = 0.0145 (at node 13)
	maximum = 0.029 (at node 8)
Injected packet length average = 1
Accepted packet length average = 1
Total in-flight flits = 5 (0 measured)
latency change    = 0.004225
throughput change = 0.0106545
Class 0:
Packet latency average = 20.3932
	minimum = 7
	maximum = 44
Network latency average = 20.3932
	minimum = 7
	maximum = 44
Slowest packet = 8018
Flit latency average = 20.3932
	minimum = 7
	maximum = 44
Slowest flit = 8018
Fragmentation average = 0
	minimum = 0
	maximum = 0
Injected packet rate average = 0.02
	minimum = 0.011 (at node 10)
	maximum = 0.025 (at node 9)
Accepted packet rate average = 0.0201875
	minimum = 0.011 (at node 10)
	maximum = 0.026 (at node 11)
Injected flit rate average = 0.02
	minimum = 0.011 (at node 10)
	maximum = 0.025 (at node 9)
Accepted flit rate average= 0.0201875
	minimum = 0.011 (at node 10)
	maximum = 0.026 (at node 11)
Injected packet length average = 1
Accepted packet length average = 1
Total in-flight flits = 2 (0 measured)
latency change    = 0.0440596
throughput change = 0.0170279
Warmed up ...Time used is 3000 cycles
Class 0:
Packet latency average = 19.7896
	minimum = 7
	maximum = 38
Network latency average = 19.7896
	minimum = 7
	maximum = 38
Slowest packet = 8195
Flit latency average = 19.836
	minimum = 7
	maximum = 38
Slowest flit = 8195
Fragmentation average = 0
	minimum = 0
	maximum = 0
Injected packet rate average = 0.0196875
	minimum = 0.014 (at node 1)
	maximum = 0.023 (at node 3)
Accepted packet rate average = 0.0194375
	minimum = 0.014 (at node 4)
	maximum = 0.023 (at node 1)
Injected flit rate average = 0.0196875
	minimum = 0.014 (at node 1)
	maximum = 0.023 (at node 3)
Accepted flit rate average= 0.0194375
	minimum = 0.014 (at node 4)
	maximum = 0.023 (at node 1)
Injected packet length average = 1
Accepted packet length average = 1
Total in-flight flits = 6 (6 measured)
latency change    = 0.030498
throughput change = 0.0385852
Class 0:
Packet latency average = 20.0015
	minimum = 7
	maximum = 39
Network latency average = 20.0015
	minimum = 7
	maximum = 39
Slowest packet = 8709
Flit latency average = 20.0225
	minimum = 7
	maximum = 39
Slowest flit = 8709
Fragmentation average = 0
	minimum = 0
	maximum = 0
Injected packet rate average = 0.0209063
	minimum = 0.0145 (at node 1)
	maximum = 0.025 (at node 8)
Accepted packet rate average = 0.0208438
	minimum = 0.0145 (at node 4)
	maximum = 0.0245 (at node 2)
Injected flit rate average = 0.0209063
	minimum = 0.0145 (at node 1)
	maximum = 0.025 (at node 8)
Accepted flit rate average= 0.0208438
	minimum = 0.0145 (at node 4)
	maximum = 0.0245 (at node 2)
Injected packet length average = 1
Accepted packet length average = 1
Total in-flight flits = 4 (4 measured)
latency change    = 0.0105922
throughput change = 0.0674663
Class 0:
Packet latency average = 19.9594
	minimum = 7
	maximum = 39
Network latency average = 19.9594
	minimum = 7
	maximum = 39
Slowest packet = 8709
Flit latency average = 19.9737
	minimum = 7
	maximum = 39
Slowest flit = 8709
Fragmentation average = 0
	minimum = 0
	maximum = 0
Injected packet rate average = 0.0206875
	minimum = 0.0146667 (at node 1)
	maximum = 0.0236667 (at node 7)
Accepted packet rate average = 0.0205833
	minimum = 0.0146667 (at node 4)
	maximum = 0.0233333 (at node 7)
Injected flit rate average = 0.0206875
	minimum = 0.0146667 (at node 1)
	maximum = 0.0236667 (at node 7)
Accepted flit rate average= 0.0205833
	minimum = 0.0146667 (at node 4)
	maximum = 0.0233333 (at node 7)
Injected packet length average = 1
Accepted packet length average = 1
Total in-flight flits = 7 (7 measured)
latency change    = 0.00210786
throughput change = 0.0126518
Class 0:
Packet latency average = 19.92
	minimum = 7
	maximum = 39
Network latency average = 19.92
	minimum = 7
	maximum = 39
Slowest packet = 8709
Flit latency average = 19.931
	minimum = 7
	maximum = 39
Slowest flit = 8709
Fragmentation average = 0
	minimum = 0
	maximum = 0
Injected packet rate average = 0.0201875
	minimum = 0.015 (at node 1)
	maximum = 0.023 (at node 8)
Accepted packet rate average = 0.0201406
	minimum = 0.015 (at node 4)
	maximum = 0.0225 (at node 2)
Injected flit rate average = 0.0201875
	minimum = 0.015 (at node 1)
	maximum = 0.023 (at node 8)
Accepted flit rate average= 0.0201406
	minimum = 0.015 (at node 4)
	maximum = 0.0225 (at node 2)
Injected packet length average = 1
Accepted packet length average = 1
Total in-flight flits = 5 (5 measured)
latency change    = 0.00198108
throughput change = 0.0219809
Class 0:
Packet latency average = 19.4856
	minimum = 7
	maximum = 39
Network latency average = 19.4856
	minimum = 7
	maximum = 39
Slowest packet = 8709
Flit latency average = 19.495
	minimum = 7
	maximum = 39
Slowest flit = 8709
Fragmentation average = 0
	minimum = 0
	maximum = 0
Injected packet rate average = 0.02005
	minimum = 0.018 (at node 1)
	maximum = 0.0222 (at node 6)
Accepted packet rate average = 0.019975
	minimum = 0.018 (at node 4)
	maximum = 0.0218 (at node 9)
Injected flit rate average = 0.02005
	minimum = 0.018 (at node 1)
	maximum = 0.0222 (at node 6)
Accepted flit rate average= 0.019975
	minimum = 0.018 (at node 4)
	maximum = 0.0218 (at node 9)
Injected packet length average = 1
Accepted packet length average = 1
Total in-flight flits = 8 (8 measured)
latency change    = 0.0222924
throughput change = 0.00829161
Draining all recorded packets ...
Draining remaining packets ...
Time taken is 8049 cycles
Class 0:
Packet latency average = 19.5483
	minimum = 7
	maximum = 42
Network latency average = 19.5483
	minimum = 7
	maximum = 42
Slowest packet = 9825
Flit latency average = 19.5483
	minimum = 7
	maximum = 42
Slowest flit = 9825
Fragmentation average = 0
	minimum = 0
	maximum = 0
Injected packet rate average = 0.020375
	minimum = 0.016 (at node 3)
	maximum = 0.025 (at node 12)
Accepted packet rate average = 0.0200625
	minimum = 0.016 (at node 11)
	maximum = 0.024 (at node 3)
Injected flit rate average = 0.020375
	minimum = 0.016 (at node 3)
	maximum = 0.025 (at node 12)
Accepted flit rate average= 0.0200625
	minimum = 0.016 (at node 11)
	maximum = 0.024 (at node 3)
Injected packet length average = 1
Accepted packet length average = 1
Total in-flight flits = 5 (0 measured)
latency change    = 1
throughput change = 1
Class 0:
Packet latency average = 19.7097
	minimum = 7
	maximum = 42
Network latency average = 19.7097
	minimum = 7
	maximum = 42
Slowest packet = 9825
Flit latency average = 19.7097
	minimum = 7
	maximum = 42
Slowest flit = 9825
Fragmentation average = 0
	minimum = 0
	maximum = 0
Injected packet rate average = 0.0197188
	minimum = 0.0155 (at node 3)
	maximum = 0.026 (at node 12)
Accepted packet rate average = 0.0195938
	minimum = 0.0155 (at node 12)
	maximum = 0.0255 (at node 3)
Injected flit rate average = 0.0197188
	minimum = 0.0155 (at node 3)
	maximum = 0.026 (at node 12)
Accepted flit rate average= 0.0195938
	minimum = 0.0155 (at node 12)
	maximum = 0.0255 (at node 3)
Injected packet length average = 1
Accepted packet length average = 1
Total in-flight flits = 4 (0 measured)
latency change    = 0.00819099
throughput change = 0.0239234
Class 0:
Packet latency average = 19.3279
	minimum = 7
	maximum = 45
Network latency average = 19.3279
	minimum = 7
	maximum = 45
Slowest packet = 10432
Flit latency average = 19.3279
	minimum = 7
	maximum = 45
Slowest flit = 10432
Fragmentation average = 0
	minimum = 0
	maximum = 0
Injected packet rate average = 0.019125
	minimum = 0.012 (at node 8)
	maximum = 0.025 (at node 5)
Accepted packet rate average = 0.0190625
	minimum = 0.012 (at node 2)
	maximum = 0.025 (at node 5)
Injected flit rate average = 0.019125
	minimum = 0.012 (at node 8)
	maximum = 0.025 (at node 5)
Accepted flit rate average= 0.0190625
	minimum = 0.012 (at node 2)
	maximum = 0.025 (at node 5)
Injected packet length average = 1
Accepted packet length average = 1
Total in-flight flits = 5 (0 measured)
latency change    = 0.019757
throughput change = 0.0278689
Warmed up ...Time used is 3000 cycles
Class 0:
Packet latency average = 20.1416
	minimum = 7
	maximum = 37
Network latency average = 20.1416
	minimum = 7
	maximum = 37
Slowest packet = 10734
Flit latency average = 20.2108
	minimum = 7
	maximum = 37
Slowest flit = 10734
Fragmentation average = 0
	minimum = 0
	maximum = 0
Injected packet rate average = 0.022
	minimum = 0.012 (at node 4)
	maximum = 0.03 (at node 13)
Accepted packet rate average = 0.0219375
	minimum = 0.013 (at node 1)
	maximum = 0.031 (at node 7)
Injected flit rate average = 0.022
	minimum = 0.012 (at node 4)
	maximum = 0.03 (at node 13)
Accepted flit rate average= 0.0219375
	minimum = 0.013 (at node 1)
	maximum = 0.031 (at node 7)
Injected packet length average = 1
Accepted packet length average = 1
Total in-flight flits = 6 (6 measured)
latency change    = 0.0404014
throughput change = 0.131054
Class 0:
Packet latency average = 19.8417
	minimum = 7
	maximum = 37
Network latency average = 19.8417
	minimum = 7
	maximum = 37
Slowest packet = 10734
Flit latency average = 19.8807
	minimum = 7
	maximum = 37
Slowest flit = 10734
Fragmentation average = 0
	minimum = 0
	maximum = 0
Injected packet rate average = 0.0207188
	minimum = 0.016 (at node 3)
	maximum = 0.0265 (at node 1)
Accepted packet rate average = 0.0206875
	minimum = 0.016 (at node 12)
	maximum = 0.0265 (at node 7)
Injected flit rate average = 0.0207188
	minimum = 0.016 (at node 3)
	maximum = 0.0265 (at node 1)
Accepted flit rate average= 0.0206875
	minimum = 0.016 (at node 12)
	maximum = 0.0265 (at node 7)
Injected packet length average = 1
Accepted packet length average = 1
Total in-flight flits = 6 (6 measured)
latency change    = 0.0151153
throughput change = 0.060423
Class 0:
Packet latency average = 19.5834
	minimum = 7
	maximum = 37
Network latency average = 19.5834
	minimum = 7
	maximum = 37
Slowest packet = 10734
Flit latency average = 19.6113
	minimum = 7
	maximum = 37
Slowest flit = 10734
Fragmentation average = 0
	minimum = 0
	maximum = 0
Injected packet rate average = 0.0203125
	minimum = 0.015 (at node 3)
	maximum = 0.0246667 (at node 6)
Accepted packet rate average = 0.0202083
	minimum = 0.0143333 (at node 12)
	maximum = 0.0246667 (at node 13)
Injected flit rate average = 0.0203125
	minimum = 0.015 (at node 3)
	maximum = 0.0246667 (at node 6)
Accepted flit rate average= 0.0202083
	minimum = 0.0143333 (at node 12)
	maximum = 0.0246667 (at node 13)
Injected packet length average = 1
Accepted packet length average = 1
Total in-flight flits = 10 (10 measured)
latency change    = 0.013189
throughput change = 0.0237113
Class 0:
Packet latency average = 19.5505
	minimum = 7
	maximum = 38
Network latency average = 19.5505
	minimum = 7
	maximum = 38
Slowest packet = 11754
Flit latency average = 19.5715
	minimum = 7
	maximum = 38
Slowest flit = 11754
Fragmentation average = 0
	minimum = 0
	maximum = 0
Injected packet rate average = 0.0202188
	minimum = 0.0155 (at node 3)
	maximum = 0.0235 (at node 6)
Accepted packet rate average = 0.0202031
	minimum = 0.01525 (at node 12)
	maximum = 0.0235 (at node 9)
Injected flit rate average = 0.0202188
	minimum = 0.0155 (at node 3)
	maximum = 0.0235 (at node 6)
Accepted flit rate average= 0.0202031
	minimum = 0.01525 (at node 12)
	maximum = 0.0235 (at node 9)
Injected packet length average = 1
Accepted packet length average = 1
Total in-flight flits = 6 (6 measured)
latency change    = 0.00168558
throughput change = 0.000257798
Class 0:
Packet latency average = 19.5619
	minimum = 7
	maximum = 40
Network latency average = 19.5619
	minimum = 7
	maximum = 40
Slowest packet = 12124
Flit latency average = 19.5783
	minimum = 7
	maximum = 40
Slowest flit = 12124
Fragmentation average = 0
	minimum = 0
	maximum = 0
Injected packet rate average = 0.0207125
	minimum = 0.0174 (at node 10)
	maximum = 0.0242 (at node 6)
Accepted packet rate average = 0.0206625
	minimum = 0.0174 (at node 10)
	maximum = 0.0242 (at node 9)
Injected flit rate average = 0.0207125
	minimum = 0.0174 (at node 10)
	maximum = 0.0242 (at node 6)
Accepted flit rate average= 0.0206625
	minimum = 0.0174 (at node 10)
	maximum = 0.0242 (at node 9)
Injected packet length average = 1
Accepted packet length average = 1
Total in-flight flits = 9 (9 measured)
latency change    = 0.000584165
throughput change = 0.0222323
Draining all recorded packets ...
Draining remaining packets ...
Time taken is 8044 cycles
Class 0:
Packet latency average = 19.5728
	minimum = 7
	maximum = 38
Network latency average = 19.5728
	minimum = 7
	maximum = 38
Slowest packet = 12542
Flit latency average = 19.5728
	minimum = 7
	maximum = 38
Slowest flit = 12542
Fragmentation average = 0
	minimum = 0
	maximum = 0
Injected packet rate average = 0.0205
	minimum = 0.015 (at node 15)
	maximum = 0.029 (at node 12)
Accepted packet rate average = 0.01975
	minimum = 0.015 (at node 2)
	maximum = 0.025 (at node 1)
Injected flit rate average = 0.0205
	minimum = 0.015 (at node 15)
	maximum = 0.029 (at node 12)
Accepted flit rate average= 0.01975
	minimum = 0.015 (at node 2)
	maximum = 0.025 (at node 1)
Injected packet length average = 1
Accepted packet length average = 1
Total in-flight flits = 12 (0 measured)
latency change    = 1
throughput change = 1
Class 0:
Packet latency average = 19.9626
	minimum = 7
	maximum = 44
Network latency average = 19.9626
	minimum = 7
	maximum = 44
Slowest packet = 12711
Flit latency average = 19.9626
	minimum = 7
	maximum = 44
Slowest flit = 12711
Fragmentation average = 0
	minimum = 0
	maximum = 0
Injected packet rate average = 0.0203125
	minimum = 0.017 (at node 13)
	maximum = 0.0235 (at node 12)
Accepted packet rate average = 0.0200625
	minimum = 0.0165 (at node 7)
	maximum = 0.0235 (at node 3)
Injected flit rate average = 0.0203125
	minimum = 0.017 (at node 13)
	maximum = 0.0235 (at node 12)
Accepted flit rate average= 0.0200625
	minimum = 0.0165 (at node 7)
	maximum = 0.0235 (at node 3)
Injected packet length average = 1
Accepted packet length average = 1
Total in-flight flits = 8 (0 measured)
latency change    = 0.0195281
throughput change = 0.0155763
Class 0:
Packet latency average = 19.709
	minimum = 7
	maximum = 37
Network latency average = 19.709
	minimum = 7
	maximum = 37
Slowest packet = 13046
Flit latency average = 19.709
	minimum = 7
	maximum = 37
Slowest flit = 13046
Fragmentation average = 0
	minimum = 0
	maximum = 0
Injected packet rate average = 0.018375
	minimum = 0.012 (at node 4)
	maximum = 0.028 (at node 13)
Accepted packet rate average = 0.0186875
	minimum = 0.012 (at node 1)
	maximum = 0.028 (at node 7)
Injected flit rate average = 0.018375
	minimum = 0.012 (at node 4)
	maximum = 0.028 (at node 13)
Accepted flit rate average= 0.0186875
	minimum = 0.012 (at node 1)
	maximum = 0.028 (at node 7)
Injected packet length average = 1
Accepted packet length average = 1
Total in-flight flits = 3 (0 measured)
latency change    = 0.0128665
throughput change = 0.0735786
Warmed up ...Time used is 3000 cycles
Class 0:
Packet latency average = 18.9571
	minimum = 7
	maximum = 38
Network latency average = 18.9571
	minimum = 7
	maximum = 38
Slowest packet = 13371
Flit latency average = 19.0608
	minimum = 7
	maximum = 38
Slowest flit = 13371
Fragmentation average = 0
	minimum = 0
	maximum = 0
Injected packet rate average = 0.020625
	minimum = 0.014 (at node 7)
	maximum = 0.028 (at node 6)
Accepted packet rate average = 0.0205625
	minimum = 0.014 (at node 13)
	maximum = 0.028 (at node 9)
Injected flit rate average = 0.020625
	minimum = 0.014 (at node 7)
	maximum = 0.028 (at node 6)
Accepted flit rate average= 0.0205625
	minimum = 0.014 (at node 13)
	maximum = 0.028 (at node 9)
Injected packet length average = 1
Accepted packet length average = 1
Total in-flight flits = 4 (4 measured)
latency change    = 0.0396673
throughput change = 0.0911854
Class 0:
Packet latency average = 19.0321
	minimum = 7
	maximum = 38
Network latency average = 19.0321
	minimum = 7
	maximum = 38
Slowest packet = 13371
Flit latency average = 19.0836
	minimum = 7
	maximum = 38
Slowest flit = 13371
Fragmentation average = 0
	minimum = 0
	maximum = 0
Injected packet rate average = 0.0205625
	minimum = 0.0175 (at node 4)
	maximum = 0.026 (at node 6)
Accepted packet rate average = 0.0205625
	minimum = 0.0175 (at node 1)
	maximum = 0.026 (at node 9)
Injected flit rate average = 0.0205625
	minimum = 0.0175 (at node 4)
	maximum = 0.026 (at node 6)
Accepted flit rate average= 0.0205625
	minimum = 0.0175 (at node 1)
	maximum = 0.026 (at node 9)
Injected packet length average = 1
Accepted packet length average = 1
Total in-flight flits = 3 (3 measured)
latency change    = 0.00394103
throughput change = 0
Class 0:
Packet latency average = 19.213
	minimum = 7
	maximum = 38
Network latency average = 19.213
	minimum = 7
	maximum = 38
Slowest packet = 13371
Flit latency average = 19.247
	minimum = 7
	maximum = 38
Slowest flit = 13371
Fragmentation average = 0
	minimum = 0
	maximum = 0
Injected packet rate average = 0.0205833
	minimum = 0.018 (at node 0)
	maximum = 0.0253333 (at node 10)
Accepted packet rate average = 0.0205
	minimum = 0.0176667 (at node 11)
	maximum = 0.0253333 (at node 10)
Injected flit rate average = 0.0205833
	minimum = 0.018 (at node 0)
	maximum = 0.0253333 (at node 10)
Accepted flit rate average= 0.0205
	minimum = 0.0176667 (at node 11)
	maximum = 0.0253333 (at node 10)
Injected packet length average = 1
Accepted packet length average = 1
Total in-flight flits = 7 (7 measured)
latency change    = 0.00942
throughput change = 0.00304878
Class 0:
Packet latency average = 19.0785
	minimum = 7
	maximum = 38
Network latency average = 19.0785
	minimum = 7
	maximum = 38
Slowest packet = 13371
Flit latency average = 19.1044
	minimum = 7
	maximum = 38
Slowest flit = 13371
Fragmentation average = 0
	minimum = 0
	maximum = 0
Injected packet rate average = 0.0203594
	minimum = 0.01725 (at node 12)
	maximum = 0.02325 (at node 6)
Accepted packet rate average = 0.0203594
	minimum = 0.01725 (at node 3)
	maximum = 0.02325 (at node 10)
Injected flit rate average = 0.0203594
	minimum = 0.01725 (at node 12)
	maximum = 0.02325 (at node 6)
Accepted flit rate average= 0.0203594
	minimum = 0.01725 (at node 3)
	maximum = 0.02325 (at node 10)
Injected packet length average = 1
Accepted packet length average = 1
Total in-flight flits = 3 (3 measured)
latency change    = 0.00705436
throughput change = 0.00690714
Draining all recorded packets ...
Draining remaining packets ...
Time taken is 7036 cycles
Class 0:
Packet latency average = 18.3824
	minimum = 7
	maximum = 45
Network latency average = 18.3824
	minimum = 7
	maximum = 45
Slowest packet = 14817
Flit latency average = 18.3824
	minimum = 7
	maximum = 45
Slowest flit = 14817
Fragmentation average = 0
	minimum = 0
	maximum = 0
Injected packet rate average = 0.019625
	minimum = 0.013 (at node 11)
	maximum = 0.029 (at node 1)
Accepted packet rate average = 0.019125
	minimum = 0.013 (at node 12)
	maximum = 0.029 (at node 4)
Injected flit rate average = 0.019625
	minimum = 0.013 (at node 11)
	maximum = 0.029 (at node 1)
Accepted flit rate average= 0.019125
	minimum = 0.013 (at node 12)
	maximum = 0.029 (at node 4)
Injected packet length average = 1
Accepted packet length average = 1
Total in-flight flits = 8 (0 measured)
latency change    = 1
throughput change = 1
Class 0:
Packet latency average = 19.6885
	minimum = 7
	maximum = 45
Network latency average = 19.6885
	minimum = 7
	maximum = 45
Slowest packet = 14817
Flit latency average = 19.6885
	minimum = 7
	maximum = 45
Slowest flit = 14817
Fragmentation average = 0
	minimum = 0
	maximum = 0
Injected packet rate average = 0.0198438
	minimum = 0.014 (at node 11)
	maximum = 0.0265 (at node 1)
Accepted packet rate average = 0.0195625
	minimum = 0.014 (at node 14)
	maximum = 0.0265 (at node 4)
Injected flit rate average = 0.0198438
	minimum = 0.014 (at node 11)
	maximum = 0.0265 (at node 1)
Accepted flit rate average= 0.0195625
	minimum = 0.014 (at node 14)
	maximum = 0.0265 (at node 4)
Injected packet length average = 1
Accepted packet length average = 1
Total in-flight flits = 9 (0 measured)
latency change    = 0.0663405
throughput change = 0.0223642
Class 0:
Packet latency average = 19.1331
	minimum = 7
	maximum = 45
Network latency average = 19.1331
	minimum = 7
	maximum = 45
Slowest packet = 15469
Flit latency average = 19.1331
	minimum = 7
	maximum = 45
Slowest flit = 15469
Fragmentation average = 0
	minimum = 0
	maximum = 0
Injected packet rate average = 0.022125
	minimum = 0.008 (at node 4)
	maximum = 0.032 (at node 11)
Accepted packet rate average = 0.0220625
	minimum = 0.008 (at node 1)
	maximum = 0.03 (at node 10)
Injected flit rate average = 0.022125
	minimum = 0.008 (at node 4)
	maximum = 0.032 (at node 11)
Accepted flit rate average= 0.0220625
	minimum = 0.008 (at node 1)
	maximum = 0.03 (at node 10)
Injected packet length average = 1
Accepted packet length average = 1
Total in-flight flits = 10 (0 measured)
latency change    = 0.0290258
throughput change = 0.113314
Warmed up ...Time used is 3000 cycles
Class 0:
Packet latency average = 19.25
	minimum = 7
	maximum = 37
Network latency average = 19.25
	minimum = 7
	maximum = 37
Slowest packet = 15623
Flit latency average = 19.3636
	minimum = 7
	maximum = 37
Slowest flit = 15613
Fragmentation average = 0
	minimum = 0
	maximum = 0
Injected packet rate average = 0.0203125
	minimum = 0.013 (at node 10)
	maximum = 0.027 (at node 5)
Accepted packet rate average = 0.020625
	minimum = 0.013 (at node 10)
	maximum = 0.027 (at node 5)
Injected flit rate average = 0.0203125
	minimum = 0.013 (at node 10)
	maximum = 0.027 (at node 5)
Accepted flit rate average= 0.020625
	minimum = 0.013 (at node 10)
	maximum = 0.027 (at node 5)
Injected packet length average = 1
Accepted packet length average = 1
Total in-flight flits = 5 (5 measured)
latency change    = 0.00607042
throughput change = 0.069697
Class 0:
Packet latency average = 19.4058
	minimum = 7
	maximum = 38
Network latency average = 19.4058
	minimum = 7
	maximum = 38
Slowest packet = 16101
Flit latency average = 19.4628
	minimum = 7
	maximum = 38
Slowest flit = 16101
Fragmentation average = 0
	minimum = 0
	maximum = 0
Injected packet rate average = 0.0196563
	minimum = 0.015 (at node 10)
	maximum = 0.0255 (at node 13)
Accepted packet rate average = 0.0197188
	minimum = 0.014 (at node 10)
	maximum = 0.026 (at node 7)
Injected flit rate average = 0.0196563
	minimum = 0.015 (at node 10)
	maximum = 0.0255 (at node 13)
Accepted flit rate average= 0.0197188
	minimum = 0.014 (at node 10)
	maximum = 0.026 (at node 7)
Injected packet length average = 1
Accepted packet length average = 1
Total in-flight flits = 8 (8 measured)
latency change    = 0.00802838
throughput change = 0.0459588
Class 0:
Packet latency average = 19.6027
	minimum = 7
	maximum = 38
Network latency average = 19.6027
	minimum = 7
	maximum = 38
Slowest packet = 16101
Flit latency average = 19.6374
	minimum = 7
	maximum = 38
Slowest flit = 16101
Fragmentation average = 0
	minimum = 0
	maximum = 0
Injected packet rate average = 0.0202917
	minimum = 0.0163333 (at node 11)
	maximum = 0.026 (at node 13)
Accepted packet rate average = 0.0203958
	minimum = 0.017 (at node 10)
	maximum = 0.0263333 (at node 7)
Injected flit rate average = 0.0202917
	minimum = 0.0163333 (at node 11)
	maximum = 0.026 (at node 13)
Accepted flit rate average= 0.0203958
	minimum = 0.017 (at node 10)
	maximum = 0.0263333 (at node 7)
Injected packet length average = 1
Accepted packet length average = 1
Total in-flight flits = 5 (5 measured)
latency change    = 0.0100438
throughput change = 0.0331971
Class 0:
Packet latency average = 19.5248
	minimum = 7
	maximum = 38
Network latency average = 19.5248
	minimum = 7
	maximum = 38
Slowest packet = 16101
Flit latency average = 19.5515
	minimum = 7
	maximum = 38
Slowest flit = 16101
Fragmentation average = 0
	minimum = 0
	maximum = 0
Injected packet rate average = 0.0202656
	minimum = 0.01725 (at node 11)
	maximum = 0.02575 (at node 13)
Accepted packet rate average = 0.0203125
	minimum = 0.0175 (at node 14)
	maximum = 0.026 (at node 7)
Injected flit rate average = 0.0202656
	minimum = 0.01725 (at node 11)
	maximum = 0.02575 (at node 13)
Accepted flit rate average= 0.0203125
	minimum = 0.0175 (at node 14)
	maximum = 0.026 (at node 7)
Injected packet length average = 1
Accepted packet length average = 1
Total in-flight flits = 7 (7 measured)
latency change    = 0.00398862
throughput change = 0.00410256
Draining all recorded packets ...
Draining remaining packets ...
Time taken is 7061 cycles
Class 0:
Packet latency average = 18.9615
	minimum = 7
	maximum = 37
Network latency average = 18.9615
	minimum = 7
	maximum = 37
Slowest packet = 16929
Flit latency average = 18.9615
	minimum = 7
	maximum = 37
Slowest flit = 16929
Fragmentation average = 0
	minimum = 0
	maximum = 0
Injected packet rate average = 0.01975
	minimum = 0.008 (at node 4)
	maximum = 0.03 (at node 0)
Accepted packet rate average = 0.0195
	minimum = 0.008 (at node 1)
	maximum = 0.03 (at node 0)
Injected flit rate average = 0.01975
	minimum = 0.008 (at node 4)
	maximum = 0.03 (at node 0)
Accepted flit rate average= 0.0195
	minimum = 0.008 (at node 1)
	maximum = 0.03 (at node 0)
Injected packet length average = 1
Accepted packet length average = 1
Total in-flight flits = 4 (0 measured)
latency change    = 1
throughput change = 1
Class 0:
Packet latency average = 18.9297
	minimum = 7
	maximum = 37
Network latency average = 18.9297
	minimum = 7
	maximum = 37
Slowest packet = 16929
Flit latency average = 18.9297
	minimum = 7
	maximum = 37
Slowest flit = 16929
Fragmentation average = 0
	minimum = 0
	maximum = 0
Injected packet rate average = 0.02025
	minimum = 0.016 (at node 4)
	maximum = 0.026 (at node 0)
Accepted packet rate average = 0.02
	minimum = 0.016 (at node 1)
	maximum = 0.026 (at node 0)
Injected flit rate average = 0.02025
	minimum = 0.016 (at node 4)
	maximum = 0.026 (at node 0)
Accepted flit rate average= 0.02
	minimum = 0.016 (at node 1)
	maximum = 0.026 (at node 0)
Injected packet length average = 1
Accepted packet length average = 1
Total in-flight flits = 8 (0 measured)
latency change    = 0.00168259
throughput change = 0.025
Class 0:
Packet latency average = 19.7212
	minimum = 7
	maximum = 38
Network latency average = 19.7212
	minimum = 7
	maximum = 38
Slowest packet = 17676
Flit latency average = 19.7212
	minimum = 7
	maximum = 38
Slowest flit = 17676
Fragmentation average = 0
	minimum = 0
	maximum = 0
Injected packet rate average = 0.01925
	minimum = 0.013 (at node 1)
	maximum = 0.026 (at node 9)
Accepted packet rate average = 0.0195
	minimum = 0.012 (at node 4)
	maximum = 0.026 (at node 2)
Injected flit rate average = 0.01925
	minimum = 0.013 (at node 1)
	maximum = 0.026 (at node 9)
Accepted flit rate average= 0.0195
	minimum = 0.012 (at node 4)
	maximum = 0.026 (at node 2)
Injected packet length average = 1
Accepted packet length average = 1
Total in-flight flits = 4 (0 measured)
latency change    = 0.0401329
throughput change = 0.025641
Warmed up ...Time used is 3000 cycles
Class 0:
Packet latency average = 20.5485
	minimum = 7
	maximum = 38
Network latency average = 20.5485
	minimum = 7
	maximum = 38
Slowest packet = 17904
Flit latency average = 20.5359
	minimum = 7
	maximum = 38
Slowest flit = 17904
Fragmentation average = 0
	minimum = 0
	maximum = 0
Injected packet rate average = 0.0208125
	minimum = 0.012 (at node 10)
	maximum = 0.03 (at node 2)
Accepted packet rate average = 0.020875
	minimum = 0.012 (at node 10)
	maximum = 0.031 (at node 8)
Injected flit rate average = 0.0208125
	minimum = 0.012 (at node 10)
	maximum = 0.03 (at node 2)
Accepted flit rate average= 0.020875
	minimum = 0.012 (at node 10)
	maximum = 0.031 (at node 8)
Injected packet length average = 1
Accepted packet length average = 1
Total in-flight flits = 3 (3 measured)
latency change    = 0.0402624
throughput change = 0.0658683
Class 0:
Packet latency average = 19.9737
	minimum = 7
	maximum = 38
Network latency average = 19.9737
	minimum = 7
	maximum = 38
Slowest packet = 17904
Flit latency average = 19.9706
	minimum = 7
	maximum = 38
Slowest flit = 17904
Fragmentation average = 0
	minimum = 0
	maximum = 0
Injected packet rate average = 0.0191875
	minimum = 0.014 (at node 10)
	maximum = 0.024 (at node 2)
Accepted packet rate average = 0.019125
	minimum = 0.014 (at node 10)
	maximum = 0.0245 (at node 8)
Injected flit rate average = 0.0191875
	minimum = 0.014 (at node 10)
	maximum = 0.024 (at node 2)
Accepted flit rate average= 0.019125
	minimum = 0.014 (at node 10)
	maximum = 0.0245 (at node 8)
Injected packet length average = 1
Accepted packet length average = 1
Total in-flight flits = 6 (6 measured)
latency change    = 0.0287779
throughput change = 0.0915033
Class 0:
Packet latency average = 19.8725
	minimum = 7
	maximum = 45
Network latency average = 19.8725
	minimum = 7
	maximum = 45
Slowest packet = 18742
Flit latency average = 19.8708
	minimum = 7
	maximum = 45
Slowest flit = 18742
Fragmentation average = 0
	minimum = 0
	maximum = 0
Injected packet rate average = 0.01875
	minimum = 0.015 (at node 6)
	maximum = 0.0223333 (at node 3)
Accepted packet rate average = 0.0187083
	minimum = 0.015 (at node 9)
	maximum = 0.0223333 (at node 5)
Injected flit rate average = 0.01875
	minimum = 0.015 (at node 6)
	maximum = 0.0223333 (at node 3)
Accepted flit rate average= 0.0187083
	minimum = 0.015 (at node 9)
	maximum = 0.0223333 (at node 5)
Injected packet length average = 1
Accepted packet length average = 1
Total in-flight flits = 6 (6 measured)
latency change    = 0.00509252
throughput change = 0.0222717
Class 0:
Packet latency average = 19.8405
	minimum = 7
	maximum = 45
Network latency average = 19.8405
	minimum = 7
	maximum = 45
Slowest packet = 18742
Flit latency average = 19.8393
	minimum = 7
	maximum = 45
Slowest flit = 18742
Fragmentation average = 0
	minimum = 0
	maximum = 0
Injected packet rate average = 0.0190781
	minimum = 0.01475 (at node 15)
	maximum = 0.02275 (at node 5)
Accepted packet rate average = 0.0190625
	minimum = 0.01475 (at node 15)
	maximum = 0.02275 (at node 5)
Injected flit rate average = 0.0190781
	minimum = 0.01475 (at node 15)
	maximum = 0.02275 (at node 5)
Accepted flit rate average= 0.0190625
	minimum = 0.01475 (at node 15)
	maximum = 0.02275 (at node 5)
Injected packet length average = 1
Accepted packet length average = 1
Total in-flight flits = 5 (5 measured)
latency change    = 0.00161401
throughput change = 0.0185792
Class 0:
Packet latency average = 19.7254
	minimum = 7
	maximum = 45
Network latency average = 19.7254
	minimum = 7
	maximum = 45
Slowest packet = 18742
Flit latency average = 19.7248
	minimum = 7
	maximum = 45
Slowest flit = 18742
Fragmentation average = 0
	minimum = 0
	maximum = 0
Injected packet rate average = 0.0194625
	minimum = 0.0142 (at node 15)
	maximum = 0.022 (at node 2)
Accepted packet rate average = 0.0194875
	minimum = 0.0142 (at node 15)
	maximum = 0.0222 (at node 8)
Injected flit rate average = 0.0194625
	minimum = 0.0142 (at node 15)
	maximum = 0.022 (at node 2)
Accepted flit rate average= 0.0194875
	minimum = 0.0142 (at node 15)
	maximum = 0.0222 (at node 8)
Injected packet length average = 1
Accepted packet length average = 1
Total in-flight flits = 2 (2 measured)
latency change    = 0.00583302
throughput change = 0.0218089
Draining all recorded packets ...
Draining remaining packets ...
Time taken is 8007 cycles
Class 0:
Packet latency average = 19.7098
	minimum = 7
	maximum = 40
Network latency average = 19.7098
	minimum = 7
	maximum = 40
Slowest packet = 19466
Flit latency average = 19.7098
	minimum = 7
	maximum = 40
Slowest flit = 19466
Fragmentation average = 0
	minimum = 0
	maximum = 0
Injected packet rate average = 0.0183125
	minimum = 0.011 (at node 6)
	maximum = 0.026 (at node 13)
Accepted packet rate average = 0.017875
	minimum = 0.011 (at node 9)
	maximum = 0.025 (at node 7)
Injected flit rate average = 0.0183125
	minimum = 0.011 (at node 6)
	maximum = 0.026 (at node 13)
Accepted flit rate average= 0.017875
	minimum = 0.011 (at node 9)
	maximum = 0.025 (at node 7)
Injected packet length average = 1
Accepted packet length average = 1
Total in-flight flits = 7 (0 measured)
latency change    = 1
throughput change = 1
Class 0:
Packet latency average = 19.6672
	minimum = 7
	maximum = 40
Network latency average = 19.6672
	minimum = 7
	maximum = 40
Slowest packet = 19466
Flit latency average = 19.6672
	minimum = 7
	maximum = 40
Slowest flit = 19466
Fragmentation average = 0
	minimum = 0
	maximum = 0
Injected packet rate average = 0.0192187
	minimum = 0.014 (at node 8)
	maximum = 0.0265 (at node 0)
Accepted packet rate average = 0.0189687
	minimum = 0.0135 (at node 2)
	maximum = 0.0265 (at node 0)
Injected flit rate average = 0.0192187
	minimum = 0.014 (at node 8)
	maximum = 0.0265 (at node 0)
Accepted flit rate average= 0.0189687
	minimum = 0.0135 (at node 2)
	maximum = 0.0265 (at node 0)
Injected packet length average = 1
Accepted packet length average = 1
Total in-flight flits = 8 (0 measured)
latency change    = 0.00216474
throughput change = 0.0576606
Class 0:
Packet latency average = 18.8953
	minimum = 7
	maximum = 38
Network latency average = 18.8953
	minimum = 7
	maximum = 38
Slowest packet = 20042
Flit latency average = 18.8953
	minimum = 7
	maximum = 38
Slowest flit = 20042
Fragmentation average = 0
	minimum = 0
	maximum = 0
Injected packet rate average = 0.0214375
	minimum = 0.011 (at node 2)
	maximum = 0.035 (at node 14)
Accepted packet rate average = 0.0215
	minimum = 0.012 (at node 8)
	maximum = 0.034 (at node 11)
Injected flit rate average = 0.0214375
	minimum = 0.011 (at node 2)
	maximum = 0.035 (at node 14)
Accepted flit rate average= 0.0215
	minimum = 0.012 (at node 8)
	maximum = 0.034 (at node 11)
Injected packet length average = 1
Accepted packet length average = 1
Total in-flight flits = 7 (0 measured)
latency change    = 0.0408496
throughput change = 0.117733
Warmed up ...Time used is 3000 cycles
Class 0:
Packet latency average = 18.8621
	minimum = 7
	maximum = 38
Network latency average = 18.8621
	minimum = 7
	maximum = 38
Slowest packet = 20662
Flit latency average = 19.0875
	minimum = 7
	maximum = 38
Slowest flit = 20662
Fragmentation average = 0
	minimum = 0
	maximum = 0
Injected packet rate average = 0.0186875
	minimum = 0.01 (at node 14)
	maximum = 0.03 (at node 10)
Accepted packet rate average = 0.0185625
	minimum = 0.011 (at node 11)
	maximum = 0.028 (at node 10)
Injected flit rate average = 0.0186875
	minimum = 0.01 (at node 14)
	maximum = 0.03 (at node 10)
Accepted flit rate average= 0.0185625
	minimum = 0.011 (at node 11)
	maximum = 0.028 (at node 10)
Injected packet length average = 1
Accepted packet length average = 1
Total in-flight flits = 9 (9 measured)
latency change    = 0.00176438
throughput change = 0.158249
Class 0:
Packet latency average = 19.293
	minimum = 7
	maximum = 46
Network latency average = 19.293
	minimum = 7
	maximum = 46
Slowest packet = 20775
Flit latency average = 19.3964
	minimum = 7
	maximum = 46
Slowest flit = 20775
Fragmentation average = 0
	minimum = 0
	maximum = 0
Injected packet rate average = 0.0191562
	minimum = 0.0155 (at node 15)
	maximum = 0.0235 (at node 1)
Accepted packet rate average = 0.0193125
	minimum = 0.0155 (at node 15)
	maximum = 0.0235 (at node 4)
Injected flit rate average = 0.0191562
	minimum = 0.0155 (at node 15)
	maximum = 0.0235 (at node 1)
Accepted flit rate average= 0.0193125
	minimum = 0.0155 (at node 15)
	maximum = 0.0235 (at node 4)
Injected packet length average = 1
Accepted packet length average = 1
Total in-flight flits = 2 (2 measured)
latency change    = 0.0223342
throughput change = 0.038835
Class 0:
Packet latency average = 19.2233
	minimum = 7
	maximum = 46
Network latency average = 19.2233
	minimum = 7
	maximum = 46
Slowest packet = 20775
Flit latency average = 19.2923
	minimum = 7
	maximum = 46
Slowest flit = 20775
Fragmentation average = 0
	minimum = 0
	maximum = 0
Injected packet rate average = 0.0194375
	minimum = 0.0166667 (at node 15)
	maximum = 0.0236667 (at node 0)
Accepted packet rate average = 0.0194583
	minimum = 0.0166667 (at node 15)
	maximum = 0.0236667 (at node 0)
Injected flit rate average = 0.0194375
	minimum = 0.0166667 (at node 15)
	maximum = 0.0236667 (at node 0)
Accepted flit rate average= 0.0194583
	minimum = 0.0166667 (at node 15)
	maximum = 0.0236667 (at node 0)
Injected packet length average = 1
Accepted packet length average = 1
Total in-flight flits = 6 (6 measured)
latency change    = 0.0036238
throughput change = 0.00749465
Class 0:
Packet latency average = 19.568
	minimum = 7
	maximum = 46
Network latency average = 19.568
	minimum = 7
	maximum = 46
Slowest packet = 20775
Flit latency average = 19.6179
	minimum = 7
	maximum = 46
Slowest flit = 20775
Fragmentation average = 0
	minimum = 0
	maximum = 0
Injected packet rate average = 0.0193906
	minimum = 0.01575 (at node 15)
	maximum = 0.0225 (at node 1)
Accepted packet rate average = 0.0194219
	minimum = 0.01575 (at node 15)
	maximum = 0.0225 (at node 4)
Injected flit rate average = 0.0193906
	minimum = 0.01575 (at node 15)
	maximum = 0.0225 (at node 1)
Accepted flit rate average= 0.0194219
	minimum = 0.01575 (at node 15)
	maximum = 0.0225 (at node 4)
Injected packet length average = 1
Accepted packet length average = 1
Total in-flight flits = 5 (5 measured)
latency change    = 0.0176135
throughput change = 0.00187718
Draining all recorded packets ...
Draining remaining packets ...
Time taken is 7065 cycles
Class 0:
Packet latency average = 18.9623
	minimum = 7
	maximum = 40
Network latency average = 18.9623
	minimum = 7
	maximum = 40
Slowest packet = 21713
Flit latency average = 18.9623
	minimum = 7
	maximum = 40
Slowest flit = 21713
Fragmentation average = 0
	minimum = 0
	maximum = 0
Injected packet rate average = 0.0203125
	minimum = 0.014 (at node 0)
	maximum = 0.027 (at node 10)
Accepted packet rate average = 0.019875
	minimum = 0.014 (at node 0)
	maximum = 0.027 (at node 10)
Injected flit rate average = 0.0203125
	minimum = 0.014 (at node 0)
	maximum = 0.027 (at node 10)
Accepted flit rate average= 0.019875
	minimum = 0.014 (at node 0)
	maximum = 0.027 (at node 10)
Injected packet length average = 1
Accepted packet length average = 1
Total in-flight flits = 7 (0 measured)
latency change    = 1
throughput change = 1
Class 0:
Packet latency average = 19.4938
	minimum = 7
	maximum = 40
Network latency average = 19.4938
	minimum = 7
	maximum = 40
Slowest packet = 21713
Flit latency average = 19.4938
	minimum = 7
	maximum = 40
Slowest flit = 21713
Fragmentation average = 0
	minimum = 0
	maximum = 0
Injected packet rate average = 0.0204063
	minimum = 0.0155 (at node 6)
	maximum = 0.025 (at node 14)
Accepted packet rate average = 0.02025
	minimum = 0.0155 (at node 1)
	maximum = 0.0245 (at node 4)
Injected flit rate average = 0.0204063
	minimum = 0.0155 (at node 6)
	maximum = 0.025 (at node 14)
Accepted flit rate average= 0.02025
	minimum = 0.0155 (at node 1)
	maximum = 0.0245 (at node 4)
Injected packet length average = 1
Accepted packet length average = 1
Total in-flight flits = 5 (0 measured)
latency change    = 0.0272683
throughput change = 0.0185185
Class 0:
Packet latency average = 18.8086
	minimum = 7
	maximum = 42
Network latency average = 18.8086
	minimum = 7
	maximum = 42
Slowest packet = 22366
Flit latency average = 18.8086
	minimum = 7
	maximum = 42
Slowest flit = 22366
Fragmentation average = 0
	minimum = 0
	maximum = 0
Injected packet rate average = 0.0204375
	minimum = 0.011 (at node 5)
	maximum = 0.026 (at node 0)
Accepted packet rate average = 0.02025
	minimum = 0.011 (at node 5)
	maximum = 0.026 (at node 0)
Injected flit rate average = 0.0204375
	minimum = 0.011 (at node 5)
	maximum = 0.026 (at node 0)
Accepted flit rate average= 0.02025
	minimum = 0.011 (at node 5)
	maximum = 0.026 (at node 0)
Injected packet length average = 1
Accepted packet length average = 1
Total in-flight flits = 8 (0 measured)
latency change    = 0.0364293
throughput change = 0
Warmed up ...Time used is 3000 cycles
Class 0:
Packet latency average = 19.6395
	minimum = 7
	maximum = 42
Network latency average = 19.6395
	minimum = 7
	maximum = 42
Slowest packet = 22932
Flit latency average = 19.7584
	minimum = 7
	maximum = 42
Slowest flit = 22932
Fragmentation average = 0
	minimum = 0
	maximum = 0
Injected packet rate average = 0.0201875
	minimum = 0.012 (at node 9)
	maximum = 0.028 (at node 8)
Accepted packet rate average = 0.0204375
	minimum = 0.012 (at node 6)
	maximum = 0.028 (at node 2)
Injected flit rate average = 0.0201875
	minimum = 0.012 (at node 9)
	maximum = 0.028 (at node 8)
Accepted flit rate average= 0.0204375
	minimum = 0.012 (at node 6)
	maximum = 0.028 (at node 2)
Injected packet length average = 1
Accepted packet length average = 1
Total in-flight flits = 4 (4 measured)
latency change    = 0.0423054
throughput change = 0.00917431
Class 0:
Packet latency average = 19.8043
	minimum = 7
	maximum = 42
Network latency average = 19.8043
	minimum = 7
	maximum = 42
Slowest packet = 22932
Flit latency average = 19.8653
	minimum = 7
	maximum = 42
Slowest flit = 22932
Fragmentation average = 0
	minimum = 0
	maximum = 0
Injected packet rate average = 0.0191562
	minimum = 0.012 (at node 9)
	maximum = 0.0235 (at node 6)
Accepted packet rate average = 0.01925
	minimum = 0.012 (at node 6)
	maximum = 0.0245 (at node 9)
Injected flit rate average = 0.0191562
	minimum = 0.012 (at node 9)
	maximum = 0.0235 (at node 6)
Accepted flit rate average= 0.01925
	minimum = 0.012 (at node 6)
	maximum = 0.0245 (at node 9)
Injected packet length average = 1
Accepted packet length average = 1
Total in-flight flits = 5 (5 measured)
latency change    = 0.00832032
throughput change = 0.0616883
Class 0:
Packet latency average = 19.7916
	minimum = 7
	maximum = 42
Network latency average = 19.7916
	minimum = 7
	maximum = 42
Slowest packet = 22932
Flit latency average = 19.8307
	minimum = 7
	maximum = 42
Slowest flit = 22932
Fragmentation average = 0
	minimum = 0
	maximum = 0
Injected packet rate average = 0.0200833
	minimum = 0.0156667 (at node 5)
	maximum = 0.0246667 (at node 8)
Accepted packet rate average = 0.0200625
	minimum = 0.0156667 (at node 5)
	maximum = 0.0246667 (at node 2)
Injected flit rate average = 0.0200833
	minimum = 0.0156667 (at node 5)
	maximum = 0.0246667 (at node 8)
Accepted flit rate average= 0.0200625
	minimum = 0.0156667 (at node 5)
	maximum = 0.0246667 (at node 2)
Injected packet length average = 1
Accepted packet length average = 1
Total in-flight flits = 9 (9 measured)
latency change    = 0.000639325
throughput change = 0.0404984
Class 0:
Packet latency average = 19.6505
	minimum = 7
	maximum = 42
Network latency average = 19.6505
	minimum = 7
	maximum = 42
Slowest packet = 22932
Flit latency average = 19.6802
	minimum = 7
	maximum = 42
Slowest flit = 22932
Fragmentation average = 0
	minimum = 0
	maximum = 0
Injected packet rate average = 0.0203594
	minimum = 0.016 (at node 5)
	maximum = 0.0245 (at node 8)
Accepted packet rate average = 0.0204219
	minimum = 0.016 (at node 5)
	maximum = 0.0245 (at node 2)
Injected flit rate average = 0.0203594
	minimum = 0.016 (at node 5)
	maximum = 0.0245 (at node 8)
Accepted flit rate average= 0.0204219
	minimum = 0.016 (at node 5)
	maximum = 0.0245 (at node 2)
Injected packet length average = 1
Accepted packet length average = 1
Total in-flight flits = 4 (4 measured)
latency change    = 0.00718163
throughput change = 0.0175976
Class 0:
Packet latency average = 19.8446
	minimum = 7
	maximum = 45
Network latency average = 19.8446
	minimum = 7
	maximum = 45
Slowest packet = 23985
Flit latency average = 19.8673
	minimum = 7
	maximum = 45
Slowest flit = 23985
Fragmentation average = 0
	minimum = 0
	maximum = 0
Injected packet rate average = 0.020525
	minimum = 0.0156 (at node 5)
	maximum = 0.025 (at node 8)
Accepted packet rate average = 0.0205375
	minimum = 0.0156 (at node 5)
	maximum = 0.025 (at node 2)
Injected flit rate average = 0.020525
	minimum = 0.0156 (at node 5)
	maximum = 0.025 (at node 8)
Accepted flit rate average= 0.0205375
	minimum = 0.0156 (at node 5)
	maximum = 0.025 (at node 2)
Injected packet length average = 1
Accepted packet length average = 1
Total in-flight flits = 7 (7 measured)
latency change    = 0.00978339
throughput change = 0.00562995
Draining all recorded packets ...
Draining remaining packets ...
Time taken is 8055 cycles
Class 0:
Packet latency average = 18.8282
	minimum = 7
	maximum = 37
Network latency average = 18.8282
	minimum = 7
	maximum = 37
Slowest packet = 24277
Flit latency average = 18.8282
	minimum = 7
	maximum = 37
Slowest flit = 24277
Fragmentation average = 0
	minimum = 0
	maximum = 0
Injected packet rate average = 0.01875
	minimum = 0.012 (at node 7)
	maximum = 0.027 (at node 14)
Accepted packet rate average = 0.0181875
	minimum = 0.011 (at node 13)
	maximum = 0.026 (at node 11)
Injected flit rate average = 0.01875
	minimum = 0.012 (at node 7)
	maximum = 0.027 (at node 14)
Accepted flit rate average= 0.0181875
	minimum = 0.011 (at node 13)
	maximum = 0.026 (at node 11)
Injected packet length average = 1
Accepted packet length average = 1
Total in-flight flits = 9 (0 measured)
latency change    = 1
throughput change = 1
Class 0:
Packet latency average = 19.1412
	minimum = 7
	maximum = 37
Network latency average = 19.1412
	minimum = 7
	maximum = 37
Slowest packet = 24277
Flit latency average = 19.1412
	minimum = 7
	maximum = 37
Slowest flit = 24277
Fragmentation average = 0
	minimum = 0
	maximum = 0
Injected packet rate average = 0.0195625
	minimum = 0.014 (at node 7)
	maximum = 0.026 (at node 14)
Accepted packet rate average = 0.01925
	minimum = 0.014 (at node 13)
	maximum = 0.0255 (at node 11)
Injected flit rate average = 0.0195625
	minimum = 0.014 (at node 7)
	maximum = 0.026 (at node 14)
Accepted flit rate average= 0.01925
	minimum = 0.014 (at node 13)
	maximum = 0.0255 (at node 11)
Injected packet length average = 1
Accepted packet length average = 1
Total in-flight flits = 10 (0 measured)
latency change    = 0.016355
throughput change = 0.0551948
Class 0:
Packet latency average = 20.0415
	minimum = 7
	maximum = 39
Network latency average = 20.0415
	minimum = 7
	maximum = 39
Slowest packet = 25123
Flit latency average = 20.0415
	minimum = 7
	maximum = 39
Slowest flit = 25123
Fragmentation average = 0
	minimum = 0
	maximum = 0
Injected packet rate average = 0.01925
	minimum = 0.015 (at node 5)
	maximum = 0.025 (at node 2)
Accepted packet rate average = 0.0195625
	minimum = 0.016 (at node 0)
	maximum = 0.028 (at node 8)
Injected flit rate average = 0.01925
	minimum = 0.015 (at node 5)
	maximum = 0.025 (at node 2)
Accepted flit rate average= 0.0195625
	minimum = 0.016 (at node 0)
	maximum = 0.028 (at node 8)
Injected packet length average = 1
Accepted packet length average = 1
Total in-flight flits = 5 (0 measured)
latency change    = 0.0449217
throughput change = 0.0159744
Warmed up ...Time used is 3000 cycles
Class 0:
Packet latency average = 18.338
	minimum = 7
	maximum = 41
Network latency average = 18.338
	minimum = 7
	maximum = 41
Slowest packet = 25448
Flit latency average = 18.3836
	minimum = 7
	maximum = 41
Slowest flit = 25448
Fragmentation average = 0
	minimum = 0
	maximum = 0
Injected packet rate average = 0.0183125
	minimum = 0.01 (at node 12)
	maximum = 0.028 (at node 1)
Accepted packet rate average = 0.01825
	minimum = 0.009 (at node 3)
	maximum = 0.029 (at node 4)
Injected flit rate average = 0.0183125
	minimum = 0.01 (at node 12)
	maximum = 0.028 (at node 1)
Accepted flit rate average= 0.01825
	minimum = 0.009 (at node 3)
	maximum = 0.029 (at node 4)
Injected packet length average = 1
Accepted packet length average = 1
Total in-flight flits = 6 (6 measured)
latency change    = 0.0928976
throughput change = 0.0719178
Class 0:
Packet latency average = 18.842
	minimum = 7
	maximum = 41
Network latency average = 18.842
	minimum = 7
	maximum = 41
Slowest packet = 25448
Flit latency average = 18.8589
	minimum = 7
	maximum = 41
Slowest flit = 25448
Fragmentation average = 0
	minimum = 0
	maximum = 0
Injected packet rate average = 0.0199063
	minimum = 0.015 (at node 4)
	maximum = 0.0265 (at node 1)
Accepted packet rate average = 0.0199375
	minimum = 0.015 (at node 1)
	maximum = 0.028 (at node 4)
Injected flit rate average = 0.0199063
	minimum = 0.015 (at node 4)
	maximum = 0.0265 (at node 1)
Accepted flit rate average= 0.0199375
	minimum = 0.015 (at node 1)
	maximum = 0.028 (at node 4)
Injected packet length average = 1
Accepted packet length average = 1
Total in-flight flits = 4 (4 measured)
latency change    = 0.026751
throughput change = 0.0846395
Class 0:
Packet latency average = 19.254
	minimum = 7
	maximum = 45
Network latency average = 19.254
	minimum = 7
	maximum = 45
Slowest packet = 26034
Flit latency average = 19.2631
	minimum = 7
	maximum = 45
Slowest flit = 26034
Fragmentation average = 0
	minimum = 0
	maximum = 0
Injected packet rate average = 0.0198542
	minimum = 0.0163333 (at node 4)
	maximum = 0.024 (at node 10)
Accepted packet rate average = 0.019875
	minimum = 0.0163333 (at node 1)
	maximum = 0.024 (at node 10)
Injected flit rate average = 0.0198542
	minimum = 0.0163333 (at node 4)
	maximum = 0.024 (at node 10)
Accepted flit rate average= 0.019875
	minimum = 0.0163333 (at node 1)
	maximum = 0.024 (at node 10)
Injected packet length average = 1
Accepted packet length average = 1
Total in-flight flits = 4 (4 measured)
latency change    = 0.0213945
throughput change = 0.00314465
Class 0:
Packet latency average = 19.1353
	minimum = 7
	maximum = 45
Network latency average = 19.1353
	minimum = 7
	maximum = 45
Slowest packet = 26034
Flit latency average = 19.1426
	minimum = 7
	maximum = 45
Slowest flit = 26034
Fragmentation average = 0
	minimum = 0
	maximum = 0
Injected packet rate average = 0.0198438
	minimum = 0.01675 (at node 4)
	maximum = 0.02425 (at node 10)
Accepted packet rate average = 0.0198281
	minimum = 0.01675 (at node 1)
	maximum = 0.02425 (at node 10)
Injected flit rate average = 0.0198438
	minimum = 0.01675 (at node 4)
	maximum = 0.02425 (at node 10)
Accepted flit rate average= 0.0198281
	minimum = 0.01675 (at node 1)
	maximum = 0.02425 (at node 10)
Injected packet length average = 1
Accepted packet length average = 1
Total in-flight flits = 6 (6 measured)
latency change    = 0.00620146
throughput change = 0.00236407
Class 0:
Packet latency average = 19.1328
	minimum = 7
	maximum = 45
Network latency average = 19.1328
	minimum = 7
	maximum = 45
Slowest packet = 26034
Flit latency average = 19.1387
	minimum = 7
	maximum = 45
Slowest flit = 26034
Fragmentation average = 0
	minimum = 0
	maximum = 0
Injected packet rate average = 0.02
	minimum = 0.0166 (at node 4)
	maximum = 0.0232 (at node 10)
Accepted packet rate average = 0.0200125
	minimum = 0.0166 (at node 1)
	maximum = 0.023 (at node 10)
Injected flit rate average = 0.02
	minimum = 0.0166 (at node 4)
	maximum = 0.0232 (at node 10)
Accepted flit rate average= 0.0200125
	minimum = 0.0166 (at node 1)
	maximum = 0.023 (at node 10)
Injected packet length average = 1
Accepted packet length average = 1
Total in-flight flits = 4 (4 measured)
latency change    = 0.000128195
throughput change = 0.00921299
Draining all recorded packets ...
Draining remaining packets ...
Time taken is 8050 cycles
Class 0:
Packet latency average = 19.8835
	minimum = 7
	maximum = 38
Network latency average = 19.8835
	minimum = 7
	maximum = 38
Slowest packet = 26876
Flit latency average = 19.8835
	minimum = 7
	maximum = 38
Slowest flit = 26876
Fragmentation average = 0
	minimum = 0
	maximum = 0
Injected packet rate average = 0.0199375
	minimum = 0.009 (at node 14)
	maximum = 0.028 (at node 13)
Accepted packet rate average = 0.0193125
	minimum = 0.009 (at node 11)
	maximum = 0.028 (at node 7)
Injected flit rate average = 0.0199375
	minimum = 0.009 (at node 14)
	maximum = 0.028 (at node 13)
Accepted flit rate average= 0.0193125
	minimum = 0.009 (at node 11)
	maximum = 0.028 (at node 7)
Injected packet length average = 1
Accepted packet length average = 1
Total in-flight flits = 10 (0 measured)
latency change    = 1
throughput change = 1
Class 0:
Packet latency average = 19.4872
	minimum = 7
	maximum = 38
Network latency average = 19.4872
	minimum = 7
	maximum = 38
Slowest packet = 26876
Flit latency average = 19.4872
	minimum = 7
	maximum = 38
Slowest flit = 26876
Fragmentation average = 0
	minimum = 0
	maximum = 0
Injected packet rate average = 0.0195938
	minimum = 0.0125 (at node 14)
	maximum = 0.025 (at node 12)
Accepted packet rate average = 0.0195
	minimum = 0.0125 (at node 11)
	maximum = 0.0245 (at node 3)
Injected flit rate average = 0.0195938
	minimum = 0.0125 (at node 14)
	maximum = 0.025 (at node 12)
Accepted flit rate average= 0.0195
	minimum = 0.0125 (at node 11)
	maximum = 0.0245 (at node 3)
Injected packet length average = 1
Accepted packet length average = 1
Total in-flight flits = 3 (0 measured)
latency change    = 0.0203373
throughput change = 0.00961538
Class 0:
Packet latency average = 20.006
	minimum = 7
	maximum = 43
Network latency average = 20.006
	minimum = 7
	maximum = 43
Slowest packet = 27697
Flit latency average = 20.006
	minimum = 7
	maximum = 43
Slowest flit = 27697
Fragmentation average = 0
	minimum = 0
	maximum = 0
Injected packet rate average = 0.02125
	minimum = 0.014 (at node 10)
	maximum = 0.035 (at node 3)
Accepted packet rate average = 0.0209375
	minimum = 0.014 (at node 10)
	maximum = 0.033 (at node 12)
Injected flit rate average = 0.02125
	minimum = 0.014 (at node 10)
	maximum = 0.035 (at node 3)
Accepted flit rate average= 0.0209375
	minimum = 0.014 (at node 10)
	maximum = 0.033 (at node 12)
Injected packet length average = 1
Accepted packet length average = 1
Total in-flight flits = 8 (0 measured)
latency change    = 0.0259318
throughput change = 0.0686567
Warmed up ...Time used is 3000 cycles
Class 0:
Packet latency average = 19.3824
	minimum = 7
	maximum = 37
Network latency average = 19.3824
	minimum = 7
	maximum = 37
Slowest packet = 27787
Flit latency average = 19.5382
	minimum = 7
	maximum = 37
Slowest flit = 27776
Fragmentation average = 0
	minimum = 0
	maximum = 0
Injected packet rate average = 0.0204375
	minimum = 0.014 (at node 15)
	maximum = 0.029 (at node 4)
Accepted packet rate average = 0.0204375
	minimum = 0.014 (at node 15)
	maximum = 0.03 (at node 1)
Injected flit rate average = 0.0204375
	minimum = 0.014 (at node 15)
	maximum = 0.029 (at node 4)
Accepted flit rate average= 0.0204375
	minimum = 0.014 (at node 15)
	maximum = 0.03 (at node 1)
Injected packet length average = 1
Accepted packet length average = 1
Total in-flight flits = 8 (8 measured)
latency change    = 0.0321696
throughput change = 0.0244648
Class 0:
Packet latency average = 18.8758
	minimum = 7
	maximum = 38
Network latency average = 18.8758
	minimum = 7
	maximum = 38
Slowest packet = 28173
Flit latency average = 18.9634
	minimum = 7
	maximum = 38
Slowest flit = 28173
Fragmentation average = 0
	minimum = 0
	maximum = 0
Injected packet rate average = 0.0194687
	minimum = 0.0155 (at node 3)
	maximum = 0.0255 (at node 4)
Accepted packet rate average = 0.019625
	minimum = 0.016 (at node 13)
	maximum = 0.026 (at node 1)
Injected flit rate average = 0.0194687
	minimum = 0.0155 (at node 3)
	maximum = 0.0255 (at node 4)
Accepted flit rate average= 0.019625
	minimum = 0.016 (at node 13)
	maximum = 0.026 (at node 1)
Injected packet length average = 1
Accepted packet length average = 1
Total in-flight flits = 3 (3 measured)
latency change    = 0.0268406
throughput change = 0.0414013
Class 0:
Packet latency average = 19.1067
	minimum = 7
	maximum = 38
Network latency average = 19.1067
	minimum = 7
	maximum = 38
Slowest packet = 28173
Flit latency average = 19.1647
	minimum = 7
	maximum = 38
Slowest flit = 28173
Fragmentation average = 0
	minimum = 0
	maximum = 0
Injected packet rate average = 0.0189792
	minimum = 0.015 (at node 3)
	maximum = 0.022 (at node 5)
Accepted packet rate average = 0.0191042
	minimum = 0.0156667 (at node 12)
	maximum = 0.0216667 (at node 1)
Injected flit rate average = 0.0189792
	minimum = 0.015 (at node 3)
	maximum = 0.022 (at node 5)
Accepted flit rate average= 0.0191042
	minimum = 0.0156667 (at node 12)
	maximum = 0.0216667 (at node 1)
Injected packet length average = 1
Accepted packet length average = 1
Total in-flight flits = 2 (2 measured)
latency change    = 0.012085
throughput change = 0.0272628
Draining all recorded packets ...
Draining remaining packets ...
Time taken is 6042 cycles
Class 0:
Packet latency average = 19.3322
	minimum = 7
	maximum = 43
Network latency average = 19.3322
	minimum = 7
	maximum = 43
Slowest packet = 28843
Flit latency average = 19.3322
	minimum = 7
	maximum = 43
Slowest flit = 28843
Fragmentation average = 0
	minimum = 0
	maximum = 0
Injected packet rate average = 0.019
	minimum = 0.011 (at node 2)
	maximum = 0.026 (at node 10)
Accepted packet rate average = 0.0184375
	minimum = 0.011 (at node 8)
	maximum = 0.026 (at node 10)
Injected flit rate average = 0.019
	minimum = 0.011 (at node 2)
	maximum = 0.026 (at node 10)
Accepted flit rate average= 0.0184375
	minimum = 0.011 (at node 8)
	maximum = 0.026 (at node 10)
Injected packet length average = 1
Accepted packet length average = 1
Total in-flight flits = 9 (0 measured)
latency change    = 1
throughput change = 1
Class 0:
Packet latency average = 19.5469
	minimum = 7
	maximum = 43
Network latency average = 19.5469
	minimum = 7
	maximum = 43
Slowest packet = 28843
Flit latency average = 19.5469
	minimum = 7
	maximum = 43
Slowest flit = 28843
Fragmentation average = 0
	minimum = 0
	maximum = 0
Injected packet rate average = 0.02025
	minimum = 0.014 (at node 7)
	maximum = 0.0245 (at node 3)
Accepted packet rate average = 0.02
	minimum = 0.014 (at node 13)
	maximum = 0.0235 (at node 12)
Injected flit rate average = 0.02025
	minimum = 0.014 (at node 7)
	maximum = 0.0245 (at node 3)
Accepted flit rate average= 0.02
	minimum = 0.014 (at node 13)
	maximum = 0.0235 (at node 12)
Injected packet length average = 1
Accepted packet length average = 1
Total in-flight flits = 8 (0 measured)
latency change    = 0.0109824
throughput change = 0.078125
Class 0:
Packet latency average = 19.8
	minimum = 7
	maximum = 38
Network latency average = 19.8
	minimum = 7
	maximum = 38
Slowest packet = 29506
Flit latency average = 19.8
	minimum = 7
	maximum = 38
Slowest flit = 29506
Fragmentation average = 0
	minimum = 0
	maximum = 0
Injected packet rate average = 0.019875
	minimum = 0.012 (at node 8)
	maximum = 0.029 (at node 6)
Accepted packet rate average = 0.0196875
	minimum = 0.012 (at node 2)
	maximum = 0.028 (at node 9)
Injected flit rate average = 0.019875
	minimum = 0.012 (at node 8)
	maximum = 0.029 (at node 6)
Accepted flit rate average= 0.0196875
	minimum = 0.012 (at node 2)
	maximum = 0.028 (at node 9)
Injected packet length average = 1
Accepted packet length average = 1
Total in-flight flits = 11 (0 measured)
latency change    = 0.0127841
throughput change = 0.015873
Warmed up ...Time used is 3000 cycles
Class 0:
[...]
Injected packet rate average = 0.0200625
	minimum = 0.013 (at node 10)
	maximum = 0.0265 (at node 8)
Accepted packet rate average = 0.0199688
	minimum = 0.013 (at node 10)
	maximum = 0.027 (at node 2)
Injected flit rate average = 0.0200625
	minimum = 0.013 (at node 10)
	maximum = 0.0265 (at node 8)
Accepted flit rate average= 0.0199688
	minimum = 0.013 (at node 10)
	maximum = 0.027 (at node 2)
Injected packet length average = 1
Accepted packet length average = 1
Total in-flight flits = 7 (7 measured)
latency change    = 0.0146581
throughput change = 0.0203443
Class 0:
Packet latency average = 20.3
	minimum = 7
	maximum = 38
Network latency average = 20.3
	minimum = 7
	maximum = 38
Slowest packet = 216142
Flit latency average = 20.339
	minimum = 7
	maximum = 38
Slowest flit = 216142
Fragmentation average = 0
	minimum = 0
	maximum = 0
Injected packet rate average = 0.0196875
	minimum = 0.014 (at node 5)
	maximum = 0.0253333 (at node 12)
Accepted packet rate average = 0.0196667
	minimum = 0.014 (at node 5)
	maximum = 0.025 (at node 3)
Injected flit rate average = 0.0196875
	minimum = 0.014 (at node 5)
	maximum = 0.0253333 (at node 12)
Accepted flit rate average= 0.0196667
	minimum = 0.014 (at node 5)
	maximum = 0.025 (at node 3)
Injected packet length average = 1
Accepted packet length average = 1
Total in-flight flits = 5 (5 measured)
latency change    = 0.00810675
throughput change = 0.0153602
Draining all recorded packets ...
Draining remaining packets ...
Time taken is 6054 cycles
Class 0:
Packet latency average = 18.945
	minimum = 7
	maximum = 37
Network latency average = 18.945
	minimum = 7
	maximum = 37
Slowest packet = 216632
Flit latency average = 18.945
	minimum = 7
	maximum = 37
Slowest flit = 216632
Fragmentation average = 0
	minimum = 0
	maximum = 0
Injected packet rate average = 0.0195625
	minimum = 0.016 (at node 4)
	maximum = 0.025 (at node 0)
Accepted packet rate average = 0.0193125
	minimum = 0.015 (at node 1)
	maximum = 0.025 (at node 0)
Injected flit rate average = 0.0195625
	minimum = 0.016 (at node 4)
	maximum = 0.025 (at node 0)
Accepted flit rate average= 0.0193125
	minimum = 0.015 (at node 1)
	maximum = 0.025 (at node 0)
Injected packet length average = 1
Accepted packet length average = 1
Total in-flight flits = 4 (0 measured)
latency change    = 1
throughput change = 1
Class 0:
Packet latency average = 19.8703
	minimum = 7
	maximum = 41
Network latency average = 19.8703
	minimum = 7
	maximum = 41
Slowest packet = 217021
Flit latency average = 19.8703
	minimum = 7
	maximum = 41
Slowest flit = 217021
Fragmentation average = 0
	minimum = 0
	maximum = 0
Injected packet rate average = 0.02
	minimum = 0.015 (at node 10)
	maximum = 0.024 (at node 1)
Accepted packet rate average = 0.01975
	minimum = 0.015 (at node 10)
	maximum = 0.024 (at node 4)
Injected flit rate average = 0.02
	minimum = 0.015 (at node 10)
	maximum = 0.024 (at node 1)
Accepted flit rate average= 0.01975
	minimum = 0.015 (at node 10)
	maximum = 0.024 (at node 4)
Injected packet length average = 1
Accepted packet length average = 1
Total in-flight flits = 8 (0 measured)
latency change    = 0.0465656
throughput change = 0.0221519
Class 0:
Packet latency average = 20.2455
	minimum = 7
	maximum = 37
Network latency average = 20.2455
	minimum = 7
	maximum = 37
Slowest packet = 217252
Flit latency average = 20.2455
	minimum = 7
	maximum = 37
Slowest flit = 217252
Fragmentation average = 0
	minimum = 0
	maximum = 0
Injected packet rate average = 0.020875
	minimum = 0.013 (at node 15)
	maximum = 0.03 (at node 3)
Accepted packet rate average = 0.020875
	minimum = 0.013 (at node 15)
	maximum = 0.031 (at node 12)
Injected flit rate average = 0.020875
	minimum = 0.013 (at node 15)
	maximum = 0.03 (at node 3)
Accepted flit rate average= 0.020875
	minimum = 0.013 (at node 15)
	maximum = 0.031 (at node 12)
Injected packet length average = 1
Accepted packet length average = 1
Total in-flight flits = 8 (0 measured)
latency change    = 0.0185353
throughput change = 0.0538922
Warmed up ...Time used is 3000 cycles
Class 0:
Packet latency average = 19.6667
	minimum = 7
	maximum = 38
Network latency average = 19.6667
	minimum = 7
	maximum = 38
Slowest packet = 217635
Flit latency average = 19.9034
	minimum = 7
	maximum = 38
Slowest flit = 217635
Fragmentation average = 0
	minimum = 0
	maximum = 0
Injected packet rate average = 0.017875
	minimum = 0.013 (at node 8)
	maximum = 0.027 (at node 6)
Accepted packet rate average = 0.018125
	minimum = 0.013 (at node 2)
	maximum = 0.029 (at node 9)
Injected flit rate average = 0.017875
	minimum = 0.013 (at node 8)
	maximum = 0.027 (at node 6)
Accepted flit rate average= 0.018125
	minimum = 0.013 (at node 2)
	maximum = 0.029 (at node 9)
Injected packet length average = 1
Accepted packet length average = 1
Total in-flight flits = 4 (4 measured)
latency change    = 0.0294327
throughput change = 0.151724
Class 0:
Packet latency average = 19.702
	minimum = 7
	maximum = 42
Network latency average = 19.702
	minimum = 7
	maximum = 42
Slowest packet = 217904
Flit latency average = 19.8156
	minimum = 7
	maximum = 42
Slowest flit = 217904
Fragmentation average = 0
	minimum = 0
	maximum = 0
Injected packet rate average = 0.018875
	minimum = 0.013 (at node 9)
	maximum = 0.0245 (at node 7)
Accepted packet rate average = 0.0188125
	minimum = 0.013 (at node 6)
	maximum = 0.024 (at node 13)
Injected flit rate average = 0.018875
	minimum = 0.013 (at node 9)
	maximum = 0.0245 (at node 7)
Accepted flit rate average= 0.0188125
	minimum = 0.013 (at node 6)
	maximum = 0.024 (at node 13)
Injected packet length average = 1
Accepted packet length average = 1
Total in-flight flits = 10 (10 measured)
latency change    = 0.00179441
throughput change = 0.0365449
Class 0:
Packet latency average = 19.9304
	minimum = 7
	maximum = 42
Network latency average = 19.9304
	minimum = 7
	maximum = 42
Slowest packet = 217904
Flit latency average = 20.0011
	minimum = 7
	maximum = 42
Slowest flit = 217904
Fragmentation average = 0
	minimum = 0
	maximum = 0
Injected packet rate average = 0.0195625
	minimum = 0.0156667 (at node 9)
	maximum = 0.028 (at node 7)
Accepted packet rate average = 0.019625
	minimum = 0.0156667 (at node 6)
	maximum = 0.028 (at node 13)
Injected flit rate average = 0.0195625
	minimum = 0.0156667 (at node 9)
	maximum = 0.028 (at node 7)
Accepted flit rate average= 0.019625
	minimum = 0.0156667 (at node 6)
	maximum = 0.028 (at node 13)
Injected packet length average = 1
Accepted packet length average = 1
Total in-flight flits = 5 (5 measured)
latency change    = 0.0114592
throughput change = 0.0414013
Class 0:
Packet latency average = 19.4949
	minimum = 7
	maximum = 42
Network latency average = 19.4949
	minimum = 7
	maximum = 42
Slowest packet = 217904
Flit latency average = 19.5498
	minimum = 7
	maximum = 42
Slowest flit = 217904
Fragmentation average = 0
	minimum = 0
	maximum = 0
Injected packet rate average = 0.019875
	minimum = 0.0155 (at node 9)
	maximum = 0.02675 (at node 7)
Accepted packet rate average = 0.0199219
	minimum = 0.0155 (at node 6)
	maximum = 0.02675 (at node 13)
Injected flit rate average = 0.019875
	minimum = 0.0155 (at node 9)
	maximum = 0.02675 (at node 7)
Accepted flit rate average= 0.0199219
	minimum = 0.0155 (at node 6)
	maximum = 0.02675 (at node 13)
Injected packet length average = 1
Accepted packet length average = 1
Total in-flight flits = 5 (5 measured)
latency change    = 0.0223411
throughput change = 0.014902
Draining all recorded packets ...
Draining remaining packets ...
Time taken is 7027 cycles
Class 0:
Packet latency average = 18.648
	minimum = 7
	maximum = 38
Network latency average = 18.648
	minimum = 7
	maximum = 38
Slowest packet = 219040
Flit latency average = 18.648
	minimum = 7
	maximum = 38
Slowest flit = 219040
Fragmentation average = 0
	minimum = 0
	maximum = 0
Injected packet rate average = 0.0193125
	minimum = 0.009 (at node 11)
	maximum = 0.026 (at node 8)
Accepted packet rate average = 0.019
	minimum = 0.009 (at node 14)
	maximum = 0.026 (at node 2)
Injected flit rate average = 0.0193125
	minimum = 0.009 (at node 11)
	maximum = 0.026 (at node 8)
Accepted flit rate average= 0.019
	minimum = 0.009 (at node 14)
	maximum = 0.026 (at node 2)
Injected packet length average = 1
Accepted packet length average = 1
Total in-flight flits = 5 (0 measured)
latency change    = 1
throughput change = 1
Class 0:
Packet latency average = 19.5067
	minimum = 7
	maximum = 41
Network latency average = 19.5067
	minimum = 7
	maximum = 41
Slowest packet = 219410
Flit latency average = 19.5067
	minimum = 7
	maximum = 41
Slowest flit = 219410
Fragmentation average = 0
	minimum = 0
	maximum = 0
Injected packet rate average = 0.0189375
	minimum = 0.014 (at node 11)
	maximum = 0.023 (at node 9)
Accepted packet rate average = 0.01875
	minimum = 0.014 (at node 14)
	maximum = 0.0225 (at node 6)
Injected flit rate average = 0.0189375
	minimum = 0.014 (at node 11)
	maximum = 0.023 (at node 9)
Accepted flit rate average= 0.01875
	minimum = 0.014 (at node 14)
	maximum = 0.0225 (at node 6)
Injected packet length average = 1
Accepted packet length average = 1
Total in-flight flits = 6 (0 measured)
latency change    = 0.0440178
throughput change = 0.0133333
Class 0:
Packet latency average = 18.9787
	minimum = 7
	maximum = 43
Network latency average = 18.9787
	minimum = 7
	maximum = 43
Slowest packet = 219745
Flit latency average = 18.9787
	minimum = 7
	maximum = 43
Slowest flit = 219745
Fragmentation average = 0
	minimum = 0
	maximum = 0
Injected packet rate average = 0.020625
	minimum = 0.014 (at node 7)
	maximum = 0.037 (at node 5)
Accepted packet rate average = 0.0205625
	minimum = 0.014 (at node 13)
	maximum = 0.037 (at node 5)
Injected flit rate average = 0.020625
	minimum = 0.014 (at node 7)
	maximum = 0.037 (at node 5)
Accepted flit rate average= 0.0205625
	minimum = 0.014 (at node 13)
	maximum = 0.037 (at node 5)
Injected packet length average = 1
Accepted packet length average = 1
Total in-flight flits = 7 (0 measured)
latency change    = 0.0278176
throughput change = 0.0881459
Warmed up ...Time used is 3000 cycles
Class 0:
Packet latency average = 19.5723
	minimum = 7
	maximum = 37
Network latency average = 19.5723
	minimum = 7
	maximum = 37
Slowest packet = 219808
Flit latency average = 19.6077
	minimum = 7
	maximum = 37
Slowest flit = 219796
Fragmentation average = 0
	minimum = 0
	maximum = 0
Injected packet rate average = 0.0211875
	minimum = 0.012 (at node 7)
	maximum = 0.034 (at node 13)
Accepted packet rate average = 0.0211875
	minimum = 0.012 (at node 13)
	maximum = 0.033 (at node 7)
Injected flit rate average = 0.0211875
	minimum = 0.012 (at node 7)
	maximum = 0.034 (at node 13)
Accepted flit rate average= 0.0211875
	minimum = 0.012 (at node 13)
	maximum = 0.033 (at node 7)
Injected packet length average = 1
Accepted packet length average = 1
Total in-flight flits = 7 (7 measured)
latency change    = 0.0303268
throughput change = 0.0294985
Class 0:
Packet latency average = 19.7654
	minimum = 7
	maximum = 42
Network latency average = 19.7654
	minimum = 7
	maximum = 42
Slowest packet = 220334
Flit latency average = 19.7817
	minimum = 7
	maximum = 42
Slowest flit = 220334
Fragmentation average = 0
	minimum = 0
	maximum = 0
Injected packet rate average = 0.0204063
	minimum = 0.0125 (at node 7)
	maximum = 0.0275 (at node 13)
Accepted packet rate average = 0.0204688
	minimum = 0.0125 (at node 13)
	maximum = 0.0275 (at node 7)
Injected flit rate average = 0.0204063
	minimum = 0.0125 (at node 7)
	maximum = 0.0275 (at node 13)
Accepted flit rate average= 0.0204688
	minimum = 0.0125 (at node 13)
	maximum = 0.0275 (at node 7)
Injected packet length average = 1
Accepted packet length average = 1
Total in-flight flits = 5 (5 measured)
latency change    = 0.00977175
throughput change = 0.0351145
Class 0:
Packet latency average = 19.8399
	minimum = 7
	maximum = 42
Network latency average = 19.8399
	minimum = 7
	maximum = 42
Slowest packet = 220334
Flit latency average = 19.8501
	minimum = 7
	maximum = 42
Slowest flit = 220334
Fragmentation average = 0
	minimum = 0
	maximum = 0
Injected packet rate average = 0.0206875
	minimum = 0.0143333 (at node 14)
	maximum = 0.0266667 (at node 13)
Accepted packet rate average = 0.0207083
	minimum = 0.0143333 (at node 11)
	maximum = 0.0263333 (at node 7)
Injected flit rate average = 0.0206875
	minimum = 0.0143333 (at node 14)
	maximum = 0.0266667 (at node 13)
Accepted flit rate average= 0.0207083
	minimum = 0.0143333 (at node 11)
	maximum = 0.0263333 (at node 7)
Injected packet length average = 1
Accepted packet length average = 1
Total in-flight flits = 6 (6 measured)
latency change    = 0.00375439
throughput change = 0.0115694
Draining all recorded packets ...
Draining remaining packets ...
Time taken is 6057 cycles
Class 0:
Packet latency average = 19.1315
	minimum = 7
	maximum = 45
Network latency average = 19.1315
	minimum = 7
	maximum = 45
Slowest packet = 220952
Flit latency average = 19.1315
	minimum = 7
	maximum = 45
Slowest flit = 220952
Fragmentation average = 0
	minimum = 0
	maximum = 0
Injected packet rate average = 0.0185
	minimum = 0.013 (at node 14)
	maximum = 0.027 (at node 4)
Accepted packet rate average = 0.0180625
	minimum = 0.013 (at node 11)
	maximum = 0.027 (at node 1)
Injected flit rate average = 0.0185
	minimum = 0.013 (at node 14)
	maximum = 0.027 (at node 4)
Accepted flit rate average= 0.0180625
	minimum = 0.013 (at node 11)
	maximum = 0.027 (at node 1)
Injected packet length average = 1
Accepted packet length average = 1
Total in-flight flits = 7 (0 measured)
latency change    = 1
throughput change = 1
Class 0:
Packet latency average = 19.5259
	minimum = 7
	maximum = 45
Network latency average = 19.5259
	minimum = 7
	maximum = 45
Slowest packet = 220952
Flit latency average = 19.5259
	minimum = 7
	maximum = 45
Slowest flit = 220952
Fragmentation average = 0
	minimum = 0
	maximum = 0
Injected packet rate average = 0.0201875
	minimum = 0.016 (at node 1)
	maximum = 0.0245 (at node 6)
Accepted packet rate average = 0.0199063
	minimum = 0.016 (at node 4)
	maximum = 0.0245 (at node 9)
Injected flit rate average = 0.0201875
	minimum = 0.016 (at node 1)
	maximum = 0.0245 (at node 6)
Accepted flit rate average= 0.0199063
	minimum = 0.016 (at node 4)
	maximum = 0.0245 (at node 9)
Injected packet length average = 1
Accepted packet length average = 1
Total in-flight flits = 9 (0 measured)
latency change    = 0.0201996
throughput change = 0.0926217
Class 0:
Packet latency average = 20.1919
	minimum = 7
	maximum = 44
Network latency average = 20.1919
	minimum = 7
	maximum = 44
Slowest packet = 221612
Flit latency average = 20.1919
	minimum = 7
	maximum = 44
Slowest flit = 221612
Fragmentation average = 0
	minimum = 0
	maximum = 0
Injected packet rate average = 0.0211875
	minimum = 0.012 (at node 9)
	maximum = 0.03 (at node 3)
Accepted packet rate average = 0.0215
	minimum = 0.013 (at node 2)
	maximum = 0.03 (at node 7)
Injected flit rate average = 0.0211875
	minimum = 0.012 (at node 9)
	maximum = 0.03 (at node 3)
Accepted flit rate average= 0.0215
	minimum = 0.013 (at node 2)
	maximum = 0.03 (at node 7)
Injected packet length average = 1
Accepted packet length average = 1
Total in-flight flits = 4 (0 measured)
latency change    = 0.0329815
throughput change = 0.0741279
Warmed up ...Time used is 3000 cycles
Class 0:
Packet latency average = 19.3376
	minimum = 7
	maximum = 37
Network latency average = 19.3376
	minimum = 7
	maximum = 37
Slowest packet = 221825
Flit latency average = 19.4654
	minimum = 7
	maximum = 37
Slowest flit = 221790
Fragmentation average = 0
	minimum = 0
	maximum = 0
Injected packet rate average = 0.0199375
	minimum = 0.013 (at node 3)
	maximum = 0.026 (at node 6)
Accepted packet rate average = 0.019875
	minimum = 0.015 (at node 4)
	maximum = 0.026 (at node 9)
Injected flit rate average = 0.0199375
	minimum = 0.013 (at node 3)
	maximum = 0.026 (at node 6)
Accepted flit rate average= 0.019875
	minimum = 0.015 (at node 4)
	maximum = 0.026 (at node 9)
Injected packet length average = 1
Accepted packet length average = 1
Total in-flight flits = 5 (5 measured)
latency change    = 0.0441772
throughput change = 0.081761
Class 0:
Packet latency average = 19.0618
	minimum = 7
	maximum = 37
Network latency average = 19.0618
	minimum = 7
	maximum = 37
Slowest packet = 221825
Flit latency average = 19.1292
	minimum = 7
	maximum = 37
Slowest flit = 221790
Fragmentation average = 0
	minimum = 0
	maximum = 0
Injected packet rate average = 0.0194062
	minimum = 0.0155 (at node 3)
	maximum = 0.0235 (at node 6)
Accepted packet rate average = 0.0193437
	minimum = 0.0155 (at node 12)
	maximum = 0.0235 (at node 9)
Injected flit rate average = 0.0194062
	minimum = 0.0155 (at node 3)
	maximum = 0.0235 (at node 6)
Accepted flit rate average= 0.0193437
	minimum = 0.0155 (at node 12)
	maximum = 0.0235 (at node 9)
Injected packet length average = 1
Accepted packet length average = 1
Total in-flight flits = 6 (6 measured)
latency change    = 0.0144683
throughput change = 0.0274637
Class 0:
Packet latency average = 18.8198
	minimum = 7
	maximum = 44
Network latency average = 18.8198
	minimum = 7
	maximum = 44
Slowest packet = 222606
Flit latency average = 18.8665
	minimum = 7
	maximum = 44
Slowest flit = 222606
Fragmentation average = 0
	minimum = 0
	maximum = 0
Injected packet rate average = 0.0190625
	minimum = 0.0156667 (at node 2)
	maximum = 0.023 (at node 14)
Accepted packet rate average = 0.0190417
	minimum = 0.0156667 (at node 8)
	maximum = 0.023 (at node 11)
Injected flit rate average = 0.0190625
	minimum = 0.0156667 (at node 2)
	maximum = 0.023 (at node 14)
Accepted flit rate average= 0.0190417
	minimum = 0.0156667 (at node 8)
	maximum = 0.023 (at node 11)
Injected packet length average = 1
Accepted packet length average = 1
Total in-flight flits = 5 (5 measured)
latency change    = 0.0128593
throughput change = 0.0158643
Class 0:
Packet latency average = 18.9984
	minimum = 7
	maximum = 44
Network latency average = 18.9984
	minimum = 7
	maximum = 44
Slowest packet = 222606
Flit latency average = 19.032
	minimum = 7
	maximum = 44
Slowest flit = 222606
Fragmentation average = 0
	minimum = 0
	maximum = 0
Injected packet rate average = 0.0195156
	minimum = 0.01525 (at node 7)
	maximum = 0.02275 (at node 14)
Accepted packet rate average = 0.0195156
	minimum = 0.015 (at node 13)
	maximum = 0.02225 (at node 11)
Injected flit rate average = 0.0195156
	minimum = 0.01525 (at node 7)
	maximum = 0.02275 (at node 14)
Accepted flit rate average= 0.0195156
	minimum = 0.015 (at node 13)
	maximum = 0.02225 (at node 11)
Injected packet length average = 1
Accepted packet length average = 1
Total in-flight flits = 4 (4 measured)
latency change    = 0.0094015
throughput change = 0.0242861
Draining all recorded packets ...
Draining remaining packets ...
Time taken is 7032 cycles
====== Overall Traffic Statistics ======
====== Traffic class 0 ======
Packet latency average = 19.5303 (100 samples)
	minimum = 7 (100 samples)
	maximum = 42.58 (100 samples)
Network latency average = 19.5303 (100 samples)
	minimum = 7 (100 samples)
	maximum = 42.58 (100 samples)
Flit latency average = 19.5569 (100 samples)
	minimum = 7 (100 samples)
	maximum = 42.59 (100 samples)
Fragmentation average = 0 (100 samples)
	minimum = 0 (100 samples)
	maximum = 0 (100 samples)
Injected packet rate average = 0.020069 (100 samples)
	minimum = 0.016199 (100 samples)
	maximum = 0.0242141 (100 samples)
Accepted packet rate average = 0.020075 (100 samples)
	minimum = 0.0162179 (100 samples)
	maximum = 0.0241969 (100 samples)
Injected flit rate average = 0.020069 (100 samples)
	minimum = 0.016199 (100 samples)
	maximum = 0.0242141 (100 samples)
Accepted flit rate average = 0.020075 (100 samples)
	minimum = 0.0162179 (100 samples)
	maximum = 0.0241969 (100 samples)
Injected packet size average = 1 (100 samples)
Accepted packet size average = 1 (100 samples)
Hops average = 3.50082 (100 samples)
Total run time 5.07809
