BEGIN Configuration File: /tmp/tmpmyfbn_2c.cfg
topology = mesh;
k = 4;
n = 2;
routing_function = gnn_port_score_route_4x4;
num_vcs = 4;
vc_buf_size = 4;
wait_for_tail_credit = 1;
vc_allocator = islip;
sw_allocator = islip;
alloc_iters = 1;
credit_delay = 2;
routing_delay = 1;
vc_alloc_delay = 1;
sw_alloc_delay = 1;
input_speedup = 2;
output_speedup = 1;
internal_speedup = 1.0;
traffic = uniform;
packet_size = 1;
sim_type = latency;
injection_rate = 0.1;
warmup_periods = 3;
sample_period = 1000;
sim_count = 100;
seed = 3;

END Configuration File: /tmp/tmpmyfbn_2c.cfg
Class 0:
Packet latency average = 21.3442
	minimum = 7
	maximum = 69
Network latency average = 21.3404
	minimum = 7
	maximum = 69
Slowest packet = 232
Flit latency average = 21.3404
	minimum = 7
	maximum = 69
Slowest flit = 232
Fragmentation average = 0
	minimum = 0
	maximum = 0
Injected packet rate average = 0.09975
	minimum = 0.079 (at node 15)
	maximum = 0.116 (at node 9)
Accepted packet rate average = 0.097875
	minimum = 0.084 (at node 3)
	maximum = 0.113 (at node 7)
Injected flit rate average = 0.09975
	minimum = 0.079 (at node 15)
	maximum = 0.116 (at node 9)
Accepted flit rate average= 0.097875
	minimum = 0.084 (at node 3)
	maximum = 0.113 (at node 7)
Injected packet length average = 1
Accepted packet length average = 1
Total in-flight flits = 30 (0 measured)
latency change    = 1
throughput change = 1
Class 0:
Packet latency average = 21.3841
	minimum = 7
	maximum = 90
Network latency average = 21.3809
	minimum = 7
	maximum = 90
Slowest packet = 2195
Flit latency average = 21.3809
	minimum = 7
	maximum = 90
Slowest flit = 2195
Fragmentation average = 0
	minimum = 0
	maximum = 0
Injected packet rate average = 0.0980625
	minimum = 0.088 (at node 0)
	maximum = 0.109 (at node 9)
Accepted packet rate average = 0.0972188
	minimum = 0.086 (at node 10)
	maximum = 0.1095 (at node 7)
Injected flit rate average = 0.0980625
	minimum = 0.088 (at node 0)
	maximum = 0.109 (at node 9)
Accepted flit rate average= 0.0972188
	minimum = 0.086 (at node 10)
	maximum = 0.1095 (at node 7)
Injected packet length average = 1
Accepted packet length average = 1
Total in-flight flits = 27 (0 measured)
latency change    = 0.00186736
throughput change = 0.00675024
Class 0:
Packet latency average = 21.9591
	minimum = 7
	maximum = 68
Network latency average = 21.9584
	minimum = 7
	maximum = 68
Slowest packet = 3957
Flit latency average = 21.9584
	minimum = 7
	maximum = 68
Slowest flit = 3957
Fragmentation average = 0
	minimum = 0
	maximum = 0
Injected packet rate average = 0.0985
	minimum = 0.084 (at node 9)
	maximum = 0.114 (at node 12)
Accepted packet rate average = 0.0976875
	minimum = 0.086 (at node 12)
	maximum = 0.12 (at node 6)
Injected flit rate average = 0.0985
	minimum = 0.084 (at node 9)
	maximum = 0.114 (at node 12)
Accepted flit rate average= 0.0976875
	minimum = 0.086 (at node 12)
	maximum = 0.12 (at node 6)
Injected packet length average = 1
Accepted packet length average = 1
Total in-flight flits = 40 (0 measured)
latency change    = 0.026182
throughput change = 0.00479846
Warmed up ...Time used is 3000 cycles
Class 0:
Packet latency average = 21.9028
	minimum = 7
	maximum = 66
Network latency average = 21.9022
	minimum = 7
	maximum = 66
Slowest packet = 4770
Flit latency average = 22.0947
	minimum = 7
	maximum = 66
Slowest flit = 4770
Fragmentation average = 0
	minimum = 0
	maximum = 0
Injected packet rate average = 0.097125
	minimum = 0.079 (at node 9)
	maximum = 0.112 (at node 12)
Accepted packet rate average = 0.0976875
	minimum = 0.079 (at node 10)
	maximum = 0.12 (at node 13)
Injected flit rate average = 0.097125
	minimum = 0.079 (at node 9)
	maximum = 0.112 (at node 12)
Accepted flit rate average= 0.0976875
	minimum = 0.079 (at node 10)
	maximum = 0.12 (at node 13)
Injected packet length average = 1
Accepted packet length average = 1
Total in-flight flits = 31 (31 measured)
latency change    = 0.00256724
throughput change = 0
Class 0:
Packet latency average = 21.9717
	minimum = 7
	maximum = 72
Network latency average = 21.9622
	minimum = 7
	maximum = 72
Slowest packet = 6387
Flit latency average = 22.0558
	minimum = 7
	maximum = 72
Slowest flit = 6387
Fragmentation average = 0
	minimum = 0
	maximum = 0
Injected packet rate average = 0.0990937
	minimum = 0.0875 (at node 14)
	maximum = 0.1155 (at node 12)
Accepted packet rate average = 0.0996875
	minimum = 0.081 (at node 10)
	maximum = 0.115 (at node 0)
Injected flit rate average = 0.0990937
	minimum = 0.0875 (at node 14)
	maximum = 0.1155 (at node 12)
Accepted flit rate average= 0.0996875
	minimum = 0.081 (at node 10)
	maximum = 0.115 (at node 0)
Injected packet length average = 1
Accepted packet length average = 1
Total in-flight flits = 21 (21 measured)
latency change    = 0.00313688
throughput change = 0.0200627
Class 0:
Packet latency average = 21.9086
	minimum = 7
	maximum = 72
Network latency average = 21.9008
	minimum = 7
	maximum = 72
Slowest packet = 6387
Flit latency average = 21.9642
	minimum = 7
	maximum = 72
Slowest flit = 6387
Fragmentation average = 0
	minimum = 0
	maximum = 0
Injected packet rate average = 0.099
	minimum = 0.0893333 (at node 14)
	maximum = 0.112 (at node 12)
Accepted packet rate average = 0.0988958
	minimum = 0.086 (at node 8)
	maximum = 0.110333 (at node 13)
Injected flit rate average = 0.099
	minimum = 0.0893333 (at node 14)
	maximum = 0.112 (at node 12)
Accepted flit rate average= 0.0988958
	minimum = 0.086 (at node 8)
	maximum = 0.110333 (at node 13)
Injected packet length average = 1
Accepted packet length average = 1
Total in-flight flits = 45 (45 measured)
latency change    = 0.00288011
throughput change = 0.00800506
Draining all recorded packets ...
Draining remaining packets ...
Time taken is 6070 cycles
Class 0:
Packet latency average = 22.4823
	minimum = 7
	maximum = 65
Network latency average = 22.4778
	minimum = 7
	maximum = 65
Slowest packet = 10587
Flit latency average = 22.4778
	minimum = 7
	maximum = 65
Slowest flit = 10587
Fragmentation average = 0
	minimum = 0
	maximum = 0
Injected packet rate average = 0.0998125
	minimum = 0.074 (at node 1)
	maximum = 0.119 (at node 13)
Accepted packet rate average = 0.0971875
	minimum = 0.083 (at node 11)
	maximum = 0.115 (at node 0)
Injected flit rate average = 0.0998125
	minimum = 0.074 (at node 1)
	maximum = 0.119 (at node 13)
Accepted flit rate average= 0.0971875
	minimum = 0.083 (at node 11)
	maximum = 0.115 (at node 0)
Injected packet length average = 1
Accepted packet length average = 1
Total in-flight flits = 42 (0 measured)
latency change    = 1
throughput change = 1
Class 0:
Packet latency average = 21.9182
	minimum = 7
	maximum = 70
Network latency average = 21.9126
	minimum = 7
	maximum = 70
Slowest packet = 11994
Flit latency average = 21.9126
	minimum = 7
	maximum = 70
Slowest flit = 11994
Fragmentation average = 0
	minimum = 0
	maximum = 0
Injected packet rate average = 0.100875
	minimum = 0.0925 (at node 3)
	maximum = 0.1135 (at node 14)
Accepted packet rate average = 0.0997187
	minimum = 0.0895 (at node 8)
	maximum = 0.109 (at node 12)
Injected flit rate average = 0.100875
	minimum = 0.0925 (at node 3)
	maximum = 0.1135 (at node 14)
Accepted flit rate average= 0.0997187
	minimum = 0.0895 (at node 8)
	maximum = 0.109 (at node 12)
Injected packet length average = 1
Accepted packet length average = 1
Total in-flight flits = 37 (0 measured)
latency change    = 0.0257369
throughput change = 0.0253839
Class 0:
Packet latency average = 22.2113
	minimum = 7
	maximum = 71
Network latency average = 22.2089
	minimum = 7
	maximum = 71
Slowest packet = 13446
Flit latency average = 22.2089
	minimum = 7
	maximum = 71
Slowest flit = 13446
Fragmentation average = 0
	minimum = 0
	maximum = 0
Injected packet rate average = 0.100625
	minimum = 0.068 (at node 8)
	maximum = 0.131 (at node 4)
Accepted packet rate average = 0.10025
	minimum = 0.078 (at node 8)
	maximum = 0.119 (at node 15)
Injected flit rate average = 0.100625
	minimum = 0.068 (at node 8)
	maximum = 0.131 (at node 4)
Accepted flit rate average= 0.10025
	minimum = 0.078 (at node 8)
	maximum = 0.119 (at node 15)
Injected packet length average = 1
Accepted packet length average = 1
Total in-flight flits = 43 (0 measured)
latency change    = 0.0131977
throughput change = 0.00529925
Warmed up ...Time used is 3000 cycles
Class 0:
Packet latency average = 22.1252
	minimum = 7
	maximum = 79
Network latency average = 22.1252
	minimum = 7
	maximum = 79
Slowest packet = 14736
Flit latency average = 22.1886
	minimum = 7
	maximum = 79
Slowest flit = 14736
Fragmentation average = 0
	minimum = 0
	maximum = 0
Injected packet rate average = 0.099125
	minimum = 0.086 (at node 15)
	maximum = 0.118 (at node 9)
Accepted packet rate average = 0.100062
	minimum = 0.088 (at node 10)
	maximum = 0.122 (at node 9)
Injected flit rate average = 0.099125
	minimum = 0.086 (at node 15)
	maximum = 0.118 (at node 9)
Accepted flit rate average= 0.100062
	minimum = 0.088 (at node 10)
	maximum = 0.122 (at node 9)
Injected packet length average = 1
Accepted packet length average = 1
Total in-flight flits = 28 (28 measured)
latency change    = 0.00389539
throughput change = 0.00187383
Class 0:
Packet latency average = 22.4105
	minimum = 7
	maximum = 106
Network latency average = 22.4003
	minimum = 7
	maximum = 106
Slowest packet = 16068
Flit latency average = 22.4285
	minimum = 7
	maximum = 106
Slowest flit = 16068
Fragmentation average = 0
	minimum = 0
	maximum = 0
Injected packet rate average = 0.0991563
	minimum = 0.0885 (at node 5)
	maximum = 0.1065 (at node 9)
Accepted packet rate average = 0.0994063
	minimum = 0.0915 (at node 0)
	maximum = 0.1145 (at node 1)
Injected flit rate average = 0.0991563
	minimum = 0.0885 (at node 5)
	maximum = 0.1065 (at node 9)
Accepted flit rate average= 0.0994063
	minimum = 0.0915 (at node 0)
	maximum = 0.1145 (at node 1)
Injected packet length average = 1
Accepted packet length average = 1
Total in-flight flits = 35 (35 measured)
latency change    = 0.0127303
throughput change = 0.0066017
Class 0:
Packet latency average = 22.4017
	minimum = 7
	maximum = 106
Network latency average = 22.3949
	minimum = 7
	maximum = 106
Slowest packet = 16068
Flit latency average = 22.4139
	minimum = 7
	maximum = 106
Slowest flit = 16068
Fragmentation average = 0
	minimum = 0
	maximum = 0
Injected packet rate average = 0.0986458
	minimum = 0.088 (at node 1)
	maximum = 0.110333 (at node 10)
Accepted packet rate average = 0.0988125
	minimum = 0.091 (at node 0)
	maximum = 0.110333 (at node 1)
Injected flit rate average = 0.0986458
	minimum = 0.088 (at node 1)
	maximum = 0.110333 (at node 10)
Accepted flit rate average= 0.0988125
	minimum = 0.091 (at node 0)
	maximum = 0.110333 (at node 1)
Injected packet length average = 1
Accepted packet length average = 1
Total in-flight flits = 35 (35 measured)
latency change    = 0.000390613
throughput change = 0.00600886
Draining all recorded packets ...
Draining remaining packets ...
Time taken is 6074 cycles
Class 0:
Packet latency average = 22.5217
	minimum = 7
	maximum = 71
Network latency average = 22.5192
	minimum = 7
	maximum = 71
Slowest packet = 19330
Flit latency average = 22.5192
	minimum = 7
	maximum = 71
Slowest flit = 19330
Fragmentation average = 0
	minimum = 0
	maximum = 0
Injected packet rate average = 0.1015
	minimum = 0.085 (at node 6)
	maximum = 0.123 (at node 13)
Accepted packet rate average = 0.0994375
	minimum = 0.081 (at node 0)
	maximum = 0.122 (at node 4)
Injected flit rate average = 0.1015
	minimum = 0.085 (at node 6)
	maximum = 0.123 (at node 13)
Accepted flit rate average= 0.0994375
	minimum = 0.081 (at node 0)
	maximum = 0.122 (at node 4)
Injected packet length average = 1
Accepted packet length average = 1
Total in-flight flits = 33 (0 measured)
latency change    = 1
throughput change = 1
Class 0:
Packet latency average = 22.141
	minimum = 7
	maximum = 71
Network latency average = 22.1348
	minimum = 7
	maximum = 71
Slowest packet = 19330
Flit latency average = 22.1348
	minimum = 7
	maximum = 71
Slowest flit = 19330
Fragmentation average = 0
	minimum = 0
	maximum = 0
Injected packet rate average = 0.102031
	minimum = 0.089 (at node 4)
	maximum = 0.115 (at node 2)
Accepted packet rate average = 0.100594
	minimum = 0.089 (at node 0)
	maximum = 0.1125 (at node 4)
Injected flit rate average = 0.102031
	minimum = 0.089 (at node 4)
	maximum = 0.115 (at node 2)
Accepted flit rate average= 0.100594
	minimum = 0.089 (at node 0)
	maximum = 0.1125 (at node 4)
Injected packet length average = 1
Accepted packet length average = 1
Total in-flight flits = 46 (0 measured)
latency change    = 0.0171919
throughput change = 0.0114943
Class 0:
Packet latency average = 22.3398
	minimum = 7
	maximum = 73
Network latency average = 22.3379
	minimum = 7
	maximum = 73
Slowest packet = 22906
Flit latency average = 22.3379
	minimum = 7
	maximum = 73
Slowest flit = 22906
Fragmentation average = 0
	minimum = 0
	maximum = 0
Injected packet rate average = 0.0995625
	minimum = 0.085 (at node 0)
	maximum = 0.113 (at node 9)
Accepted packet rate average = 0.100062
	minimum = 0.088 (at node 9)
	maximum = 0.118 (at node 4)
Injected flit rate average = 0.0995625
	minimum = 0.085 (at node 0)
	maximum = 0.113 (at node 9)
Accepted flit rate average= 0.100062
	minimum = 0.088 (at node 9)
	maximum = 0.118 (at node 4)
Injected packet length average = 1
Accepted packet length average = 1
Total in-flight flits = 38 (0 measured)
latency change    = 0.00889668
throughput change = 0.00530918
Warmed up ...Time used is 3000 cycles
Class 0:
Packet latency average = 22
	minimum = 7
	maximum = 75
Network latency average = 21.9724
	minimum = 7
	maximum = 75
Slowest packet = 24973
Flit latency average = 22.0656
	minimum = 7
	maximum = 75
Slowest flit = 24973
Fragmentation average = 0
	minimum = 0
	maximum = 0
Injected packet rate average = 0.102313
	minimum = 0.085 (at node 5)
	maximum = 0.115 (at node 14)
Accepted packet rate average = 0.101875
	minimum = 0.088 (at node 15)
	maximum = 0.115 (at node 6)
Injected flit rate average = 0.102313
	minimum = 0.085 (at node 5)
	maximum = 0.115 (at node 14)
Accepted flit rate average= 0.101875
	minimum = 0.088 (at node 15)
	maximum = 0.115 (at node 6)
Injected packet length average = 1
Accepted packet length average = 1
Total in-flight flits = 45 (45 measured)
latency change    = 0.0154449
throughput change = 0.0177914
Class 0:
Packet latency average = 22.2383
	minimum = 7
	maximum = 75
Network latency average = 22.2165
	minimum = 7
	maximum = 75
Slowest packet = 24973
Flit latency average = 22.2599
	minimum = 7
	maximum = 75
Slowest flit = 24973
Fragmentation average = 0
	minimum = 0
	maximum = 0
Injected packet rate average = 0.102688
	minimum = 0.09 (at node 5)
	maximum = 0.116 (at node 15)
Accepted packet rate average = 0.102938
	minimum = 0.089 (at node 10)
	maximum = 0.112 (at node 2)
Injected flit rate average = 0.102688
	minimum = 0.09 (at node 5)
	maximum = 0.116 (at node 15)
Accepted flit rate average= 0.102938
	minimum = 0.089 (at node 10)
	maximum = 0.112 (at node 2)
Injected packet length average = 1
Accepted packet length average = 1
Total in-flight flits = 30 (30 measured)
latency change    = 0.010717
throughput change = 0.0103218
Class 0:
Packet latency average = 21.9937
	minimum = 7
	maximum = 75
Network latency average = 21.9775
	minimum = 7
	maximum = 75
Slowest packet = 24973
Flit latency average = 22.0089
	minimum = 7
	maximum = 75
Slowest flit = 24973
Fragmentation average = 0
	minimum = 0
	maximum = 0
Injected packet rate average = 0.100771
	minimum = 0.0936667 (at node 9)
	maximum = 0.111667 (at node 15)
Accepted packet rate average = 0.10075
	minimum = 0.093 (at node 10)
	maximum = 0.107 (at node 6)
Injected flit rate average = 0.100771
	minimum = 0.0936667 (at node 9)
	maximum = 0.111667 (at node 15)
Accepted flit rate average= 0.10075
	minimum = 0.093 (at node 10)
	maximum = 0.107 (at node 6)
Injected packet length average = 1
Accepted packet length average = 1
Total in-flight flits = 39 (39 measured)
latency change    = 0.0111205
throughput change = 0.0217122
Draining all recorded packets ...
Draining remaining packets ...
Time taken is 6062 cycles
Class 0:
Packet latency average = 23.6685
	minimum = 7
	maximum = 108
Network latency average = 23.6568
	minimum = 7
	maximum = 108
Slowest packet = 29272
Flit latency average = 23.6568
	minimum = 7
	maximum = 108
Slowest flit = 29272
Fragmentation average = 0
	minimum = 0
	maximum = 0
Injected packet rate average = 0.1035
	minimum = 0.086 (at node 7)
	maximum = 0.115 (at node 0)
Accepted packet rate average = 0.100875
	minimum = 0.082 (at node 13)
	maximum = 0.119 (at node 0)
Injected flit rate average = 0.1035
	minimum = 0.086 (at node 7)
	maximum = 0.115 (at node 0)
Accepted flit rate average= 0.100875
	minimum = 0.082 (at node 13)
	maximum = 0.119 (at node 0)
Injected packet length average = 1
Accepted packet length average = 1
Total in-flight flits = 42 (0 measured)
latency change    = 1
throughput change = 1
Class 0:
Packet latency average = 22.8312
	minimum = 7
	maximum = 108
Network latency average = 22.8194
	minimum = 7
	maximum = 108
Slowest packet = 29272
Flit latency average = 22.8194
	minimum = 7
	maximum = 108
Slowest flit = 29272
Fragmentation average = 0
	minimum = 0
	maximum = 0
Injected packet rate average = 0.101875
	minimum = 0.0895 (at node 4)
	maximum = 0.108 (at node 14)
Accepted packet rate average = 0.100687
	minimum = 0.084 (at node 13)
	maximum = 0.118 (at node 11)
Injected flit rate average = 0.101875
	minimum = 0.0895 (at node 4)
	maximum = 0.108 (at node 14)
Accepted flit rate average= 0.100687
	minimum = 0.084 (at node 13)
	maximum = 0.118 (at node 11)
Injected packet length average = 1
Accepted packet length average = 1
Total in-flight flits = 38 (0 measured)
latency change    = 0.0366764
throughput change = 0.0018622
Class 0:
Packet latency average = 21.315
	minimum = 7
	maximum = 60
Network latency average = 21.3111
	minimum = 7
	maximum = 60
Slowest packet = 32487
Flit latency average = 21.3111
	minimum = 7
	maximum = 60
Slowest flit = 32487
Fragmentation average = 0
	minimum = 0
	maximum = 0
Injected packet rate average = 0.09725
	minimum = 0.076 (at node 3)
	maximum = 0.119 (at node 4)
Accepted packet rate average = 0.097625
	minimum = 0.076 (at node 12)
	maximum = 0.114 (at node 6)
Injected flit rate average = 0.09725
	minimum = 0.076 (at node 3)
	maximum = 0.119 (at node 4)
Accepted flit rate average= 0.097625
	minimum = 0.076 (at node 12)
	maximum = 0.114 (at node 6)
Injected packet length average = 1
Accepted packet length average = 1
Total in-flight flits = 32 (0 measured)
latency change    = 0.0711321
throughput change = 0.03137
Warmed up ...Time used is 3000 cycles
Class 0:
Packet latency average = 21.8109
	minimum = 7
	maximum = 71
Network latency average = 21.8071
	minimum = 7
	maximum = 71
Slowest packet = 33907
Flit latency average = 21.9204
	minimum = 7
	maximum = 71
Slowest flit = 33907
Fragmentation average = 0
	minimum = 0
	maximum = 0
Injected packet rate average = 0.102813
	minimum = 0.091 (at node 7)
	maximum = 0.12 (at node 11)
Accepted packet rate average = 0.102125
	minimum = 0.088 (at node 3)
	maximum = 0.12 (at node 11)
Injected flit rate average = 0.102813
	minimum = 0.091 (at node 7)
	maximum = 0.12 (at node 11)
Accepted flit rate average= 0.102125
	minimum = 0.088 (at node 3)
	maximum = 0.12 (at node 11)
Injected packet length average = 1
Accepted packet length average = 1
Total in-flight flits = 43 (43 measured)
latency change    = 0.0227355
throughput change = 0.0440636
Class 0:
Packet latency average = 22.3022
	minimum = 7
	maximum = 83
Network latency average = 22.2959
	minimum = 7
	maximum = 83
Slowest packet = 36509
Flit latency average = 22.3485
	minimum = 7
	maximum = 83
Slowest flit = 36509
Fragmentation average = 0
	minimum = 0
	maximum = 0
Injected packet rate average = 0.100406
	minimum = 0.0885 (at node 14)
	maximum = 0.112 (at node 0)
Accepted packet rate average = 0.100687
	minimum = 0.091 (at node 13)
	maximum = 0.1155 (at node 11)
Injected flit rate average = 0.100406
	minimum = 0.0885 (at node 14)
	maximum = 0.112 (at node 0)
Accepted flit rate average= 0.100687
	minimum = 0.091 (at node 13)
	maximum = 0.1155 (at node 11)
Injected packet length average = 1
Accepted packet length average = 1
Total in-flight flits = 23 (23 measured)
latency change    = 0.0220307
throughput change = 0.0142768
Class 0:
Packet latency average = 22.4164
	minimum = 7
	maximum = 86
Network latency average = 22.4104
	minimum = 7
	maximum = 86
Slowest packet = 36936
Flit latency average = 22.4445
	minimum = 7
	maximum = 86
Slowest flit = 36936
Fragmentation average = 0
	minimum = 0
	maximum = 0
Injected packet rate average = 0.101708
	minimum = 0.0963333 (at node 15)
	maximum = 0.110667 (at node 0)
Accepted packet rate average = 0.101479
	minimum = 0.0903333 (at node 13)
	maximum = 0.115667 (at node 11)
Injected flit rate average = 0.101708
	minimum = 0.0963333 (at node 15)
	maximum = 0.110667 (at node 0)
Accepted flit rate average= 0.101479
	minimum = 0.0903333 (at node 13)
	maximum = 0.115667 (at node 11)
Injected packet length average = 1
Accepted packet length average = 1
Total in-flight flits = 43 (43 measured)
latency change    = 0.00509511
throughput change = 0.00780127
Draining all recorded packets ...
Draining remaining packets ...
Time taken is 6080 cycles
Class 0:
Packet latency average = 21.9489
	minimum = 7
	maximum = 64
Network latency average = 21.9463
	minimum = 7
	maximum = 64
Slowest packet = 38845
Flit latency average = 21.9463
	minimum = 7
	maximum = 64
Slowest flit = 38845
Fragmentation average = 0
	minimum = 0
	maximum = 0
Injected packet rate average = 0.098375
	minimum = 0.073 (at node 10)
	maximum = 0.117 (at node 11)
Accepted packet rate average = 0.0966875
	minimum = 0.08 (at node 3)
	maximum = 0.113 (at node 5)
Injected flit rate average = 0.098375
	minimum = 0.073 (at node 10)
	maximum = 0.117 (at node 11)
Accepted flit rate average= 0.0966875
	minimum = 0.08 (at node 3)
	maximum = 0.113 (at node 5)
Injected packet length average = 1
Accepted packet length average = 1
Total in-flight flits = 27 (0 measured)
latency change    = 1
throughput change = 1
Class 0:
Packet latency average = 22.0894
	minimum = 7
	maximum = 82
Network latency average = 22.0862
	minimum = 7
	maximum = 82
Slowest packet = 40961
Flit latency average = 22.0862
	minimum = 7
	maximum = 82
Slowest flit = 40961
Fragmentation average = 0
	minimum = 0
	maximum = 0
Injected packet rate average = 0.098125
	minimum = 0.08 (at node 10)
	maximum = 0.1065 (at node 8)
Accepted packet rate average = 0.0964688
	minimum = 0.086 (at node 0)
	maximum = 0.108 (at node 4)
Injected flit rate average = 0.098125
	minimum = 0.08 (at node 10)
	maximum = 0.1065 (at node 8)
Accepted flit rate average= 0.0964688
	minimum = 0.086 (at node 0)
	maximum = 0.108 (at node 4)
Injected packet length average = 1
Accepted packet length average = 1
Total in-flight flits = 53 (0 measured)
latency change    = 0.00635933
throughput change = 0.00226757
Class 0:
Packet latency average = 22.0524
	minimum = 7
	maximum = 66
Network latency average = 22.0461
	minimum = 7
	maximum = 66
Slowest packet = 42783
Flit latency average = 22.0461
	minimum = 7
	maximum = 66
Slowest flit = 42783
Fragmentation average = 0
	minimum = 0
	maximum = 0
Injected packet rate average = 0.0984375
	minimum = 0.081 (at node 5)
	maximum = 0.114 (at node 8)
Accepted packet rate average = 0.0989375
	minimum = 0.079 (at node 9)
	maximum = 0.113 (at node 0)
Injected flit rate average = 0.0984375
	minimum = 0.081 (at node 5)
	maximum = 0.114 (at node 8)
Accepted flit rate average= 0.0989375
	minimum = 0.079 (at node 9)
	maximum = 0.113 (at node 0)
Injected packet length average = 1
Accepted packet length average = 1
Total in-flight flits = 45 (0 measured)
latency change    = 0.00167669
throughput change = 0.0249526
Warmed up ...Time used is 3000 cycles
Class 0:
Packet latency average = 22.481
	minimum = 7
	maximum = 72
Network latency average = 22.4584
	minimum = 7
	maximum = 70
Slowest packet = 43744
Flit latency average = 22.5339
	minimum = 7
	maximum = 70
Slowest flit = 44427
Fragmentation average = 0
	minimum = 0
	maximum = 0
Injected packet rate average = 0.0989375
	minimum = 0.083 (at node 12)
	maximum = 0.11 (at node 2)
Accepted packet rate average = 0.099625
	minimum = 0.08 (at node 0)
	maximum = 0.114 (at node 11)
Injected flit rate average = 0.0989375
	minimum = 0.083 (at node 12)
	maximum = 0.11 (at node 2)
Accepted flit rate average= 0.099625
	minimum = 0.08 (at node 0)
	maximum = 0.114 (at node 11)
Injected packet length average = 1
Accepted packet length average = 1
Total in-flight flits = 34 (34 measured)
latency change    = 0.0190616
throughput change = 0.00690088
Class 0:
Packet latency average = 22.0323
	minimum = 7
	maximum = 72
Network latency average = 22.0131
	minimum = 7
	maximum = 70
Slowest packet = 43744
Flit latency average = 22.0574
	minimum = 7
	maximum = 70
Slowest flit = 44427
Fragmentation average = 0
	minimum = 0
	maximum = 0
Injected packet rate average = 0.0983125
	minimum = 0.091 (at node 11)
	maximum = 0.106 (at node 15)
Accepted packet rate average = 0.099125
	minimum = 0.087 (at node 9)
	maximum = 0.112 (at node 1)
Injected flit rate average = 0.0983125
	minimum = 0.091 (at node 11)
	maximum = 0.106 (at node 15)
Accepted flit rate average= 0.099125
	minimum = 0.087 (at node 9)
	maximum = 0.112 (at node 1)
Injected packet length average = 1
Accepted packet length average = 1
Total in-flight flits = 19 (19 measured)
latency change    = 0.0203636
throughput change = 0.00504414
Class 0:
Packet latency average = 21.9018
	minimum = 7
	maximum = 72
Network latency average = 21.8862
	minimum = 7
	maximum = 70
Slowest packet = 43744
Flit latency average = 21.9171
	minimum = 7
	maximum = 70
Slowest flit = 44427
Fragmentation average = 0
	minimum = 0
	maximum = 0
Injected packet rate average = 0.0985
	minimum = 0.091 (at node 5)
	maximum = 0.105333 (at node 2)
Accepted packet rate average = 0.0985208
	minimum = 0.086 (at node 9)
	maximum = 0.108333 (at node 1)
Injected flit rate average = 0.0985
	minimum = 0.091 (at node 5)
	maximum = 0.105333 (at node 2)
Accepted flit rate average= 0.0985208
	minimum = 0.086 (at node 9)
	maximum = 0.108333 (at node 1)
Injected packet length average = 1
Accepted packet length average = 1
Total in-flight flits = 44 (44 measured)
latency change    = 0.00595869
throughput change = 0.00613237
Draining all recorded packets ...
Draining remaining packets ...
Time taken is 6073 cycles
Class 0:
Packet latency average = 22.0473
	minimum = 7
	maximum = 86
Network latency average = 22.0461
	minimum = 7
	maximum = 86
Slowest packet = 48342
Flit latency average = 22.0461
	minimum = 7
	maximum = 86
Slowest flit = 48342
Fragmentation average = 0
	minimum = 0
	maximum = 0
Injected packet rate average = 0.101562
	minimum = 0.092 (at node 3)
	maximum = 0.111 (at node 2)
Accepted packet rate average = 0.0990625
	minimum = 0.082 (at node 12)
	maximum = 0.114 (at node 15)
Injected flit rate average = 0.101562
	minimum = 0.092 (at node 3)
	maximum = 0.111 (at node 2)
Accepted flit rate average= 0.0990625
	minimum = 0.082 (at node 12)
	maximum = 0.114 (at node 15)
Injected packet length average = 1
Accepted packet length average = 1
Total in-flight flits = 40 (0 measured)
latency change    = 1
throughput change = 1
Class 0:
Packet latency average = 21.6601
	minimum = 7
	maximum = 86
Network latency average = 21.6588
	minimum = 7
	maximum = 86
Slowest packet = 48342
Flit latency average = 21.6588
	minimum = 7
	maximum = 86
Slowest flit = 48342
Fragmentation average = 0
	minimum = 0
	maximum = 0
Injected packet rate average = 0.099375
	minimum = 0.085 (at node 3)
	maximum = 0.111 (at node 12)
Accepted packet rate average = 0.098375
	minimum = 0.089 (at node 6)
	maximum = 0.1145 (at node 9)
Injected flit rate average = 0.099375
	minimum = 0.085 (at node 3)
	maximum = 0.111 (at node 12)
Accepted flit rate average= 0.098375
	minimum = 0.089 (at node 6)
	maximum = 0.1145 (at node 9)
Injected packet length average = 1
Accepted packet length average = 1
Total in-flight flits = 32 (0 measured)
latency change    = 0.017877
throughput change = 0.00698856
Class 0:
Packet latency average = 22.3266
	minimum = 7
	maximum = 80
Network latency average = 22.3196
	minimum = 7
	maximum = 80
Slowest packet = 52580
Flit latency average = 22.3196
	minimum = 7
	maximum = 80
Slowest flit = 52580
Fragmentation average = 0
	minimum = 0
	maximum = 0
Injected packet rate average = 0.0983125
	minimum = 0.087 (at node 3)
	maximum = 0.11 (at node 1)
Accepted packet rate average = 0.098375
	minimum = 0.081 (at node 6)
	maximum = 0.121 (at node 0)
Injected flit rate average = 0.0983125
	minimum = 0.087 (at node 3)
	maximum = 0.11 (at node 1)
Accepted flit rate average= 0.098375
	minimum = 0.081 (at node 6)
	maximum = 0.121 (at node 0)
Injected packet length average = 1
Accepted packet length average = 1
Total in-flight flits = 31 (0 measured)
latency change    = 0.0298503
throughput change = 0
Warmed up ...Time used is 3000 cycles
Class 0:
Packet latency average = 21.7087
	minimum = 7
	maximum = 71
Network latency average = 21.7074
	minimum = 7
	maximum = 71
Slowest packet = 54243
Flit latency average = 21.8024
	minimum = 7
	maximum = 71
Slowest flit = 54243
Fragmentation average = 0
	minimum = 0
	maximum = 0
Injected packet rate average = 0.098875
	minimum = 0.087 (at node 11)
	maximum = 0.122 (at node 15)
Accepted packet rate average = 0.0986875
	minimum = 0.084 (at node 3)
	maximum = 0.121 (at node 11)
Injected flit rate average = 0.098875
	minimum = 0.087 (at node 11)
	maximum = 0.122 (at node 15)
Accepted flit rate average= 0.0986875
	minimum = 0.084 (at node 3)
	maximum = 0.121 (at node 11)
Injected packet length average = 1
Accepted packet length average = 1
Total in-flight flits = 34 (34 measured)
latency change    = 0.0284633
throughput change = 0.00316656
Class 0:
Packet latency average = 21.4458
	minimum = 7
	maximum = 71
Network latency average = 21.4423
	minimum = 7
	maximum = 71
Slowest packet = 54243
Flit latency average = 21.492
	minimum = 7
	maximum = 71
Slowest flit = 54243
Fragmentation average = 0
	minimum = 0
	maximum = 0
Injected packet rate average = 0.0998437
	minimum = 0.0865 (at node 5)
	maximum = 0.1135 (at node 15)
Accepted packet rate average = 0.0995313
	minimum = 0.09 (at node 4)
	maximum = 0.1145 (at node 2)
Injected flit rate average = 0.0998437
	minimum = 0.0865 (at node 5)
	maximum = 0.1135 (at node 15)
Accepted flit rate average= 0.0995313
	minimum = 0.09 (at node 4)
	maximum = 0.1145 (at node 2)
Injected packet length average = 1
Accepted packet length average = 1
Total in-flight flits = 41 (41 measured)
latency change    = 0.0122576
throughput change = 0.00847724
Class 0:
Packet latency average = 21.9211
	minimum = 7
	maximum = 71
Network latency average = 21.9151
	minimum = 7
	maximum = 71
Slowest packet = 54243
Flit latency average = 21.9446
	minimum = 7
	maximum = 71
Slowest flit = 54243
Fragmentation average = 0
	minimum = 0
	maximum = 0
Injected packet rate average = 0.101708
	minimum = 0.094 (at node 5)
	maximum = 0.114667 (at node 15)
Accepted packet rate average = 0.101521
	minimum = 0.0936667 (at node 3)
	maximum = 0.112 (at node 11)
Injected flit rate average = 0.101708
	minimum = 0.094 (at node 5)
	maximum = 0.114667 (at node 15)
Accepted flit rate average= 0.101521
	minimum = 0.0936667 (at node 3)
	maximum = 0.112 (at node 11)
Injected packet length average = 1
Accepted packet length average = 1
Total in-flight flits = 41 (41 measured)
latency change    = 0.0216834
throughput change = 0.0195978
Draining all recorded packets ...
Draining remaining packets ...
Time taken is 6083 cycles
Class 0:
Packet latency average = 22.8966
	minimum = 7
	maximum = 89
Network latency average = 22.8901
	minimum = 7
	maximum = 89
Slowest packet = 58459
Flit latency average = 22.8901
	minimum = 7
	maximum = 89
Slowest flit = 58459
Fragmentation average = 0
	minimum = 0
	maximum = 0
Injected packet rate average = 0.0985
	minimum = 0.077 (at node 2)
	maximum = 0.124 (at node 4)
Accepted packet rate average = 0.096125
	minimum = 0.077 (at node 4)
	maximum = 0.115 (at node 11)
Injected flit rate average = 0.0985
	minimum = 0.077 (at node 2)
	maximum = 0.124 (at node 4)
Accepted flit rate average= 0.096125
	minimum = 0.077 (at node 4)
	maximum = 0.115 (at node 11)
Injected packet length average = 1
Accepted packet length average = 1
Total in-flight flits = 38 (0 measured)
latency change    = 1
throughput change = 1
Class 0:
Packet latency average = 22.5763
	minimum = 7
	maximum = 89
Network latency average = 22.5687
	minimum = 7
	maximum = 89
Slowest packet = 58459
Flit latency average = 22.5687
	minimum = 7
	maximum = 89
Slowest flit = 58459
Fragmentation average = 0
	minimum = 0
	maximum = 0
Injected packet rate average = 0.0988125
	minimum = 0.0865 (at node 9)
	maximum = 0.109 (at node 5)
Accepted packet rate average = 0.0980313
	minimum = 0.085 (at node 4)
	maximum = 0.1075 (at node 2)
Injected flit rate average = 0.0988125
	minimum = 0.0865 (at node 9)
	maximum = 0.109 (at node 5)
Accepted flit rate average= 0.0980313
	minimum = 0.085 (at node 4)
	maximum = 0.1075 (at node 2)
Injected packet length average = 1
Accepted packet length average = 1
Total in-flight flits = 25 (0 measured)
latency change    = 0.0141862
throughput change = 0.0194453
Class 0:
Packet latency average = 22.3389
	minimum = 7
	maximum = 76
Network latency average = 22.3365
	minimum = 7
	maximum = 76
Slowest packet = 61605
Flit latency average = 22.3365
	minimum = 7
	maximum = 76
Slowest flit = 61605
Fragmentation average = 0
	minimum = 0
	maximum = 0
Injected packet rate average = 0.10525
	minimum = 0.088 (at node 2)
	maximum = 0.121 (at node 5)
Accepted packet rate average = 0.104375
	minimum = 0.086 (at node 1)
	maximum = 0.127 (at node 13)
Injected flit rate average = 0.10525
	minimum = 0.088 (at node 2)
	maximum = 0.121 (at node 5)
Accepted flit rate average= 0.104375
	minimum = 0.086 (at node 1)
	maximum = 0.127 (at node 13)
Injected packet length average = 1
Accepted packet length average = 1
Total in-flight flits = 39 (0 measured)
latency change    = 0.0106283
throughput change = 0.0607784
Warmed up ...Time used is 3000 cycles
Class 0:
Packet latency average = 21.9604
	minimum = 7
	maximum = 72
Network latency average = 21.9546
	minimum = 7
	maximum = 72
Slowest packet = 63200
Flit latency average = 21.9588
	minimum = 7
	maximum = 72
Slowest flit = 63200
Fragmentation average = 0
	minimum = 0
	maximum = 0
Injected packet rate average = 0.09975
	minimum = 0.081 (at node 13)
	maximum = 0.12 (at node 11)
Accepted packet rate average = 0.100187
	minimum = 0.082 (at node 6)
	maximum = 0.118 (at node 15)
Injected flit rate average = 0.09975
	minimum = 0.081 (at node 13)
	maximum = 0.12 (at node 11)
Accepted flit rate average= 0.100187
	minimum = 0.082 (at node 6)
	maximum = 0.118 (at node 15)
Injected packet length average = 1
Accepted packet length average = 1
Total in-flight flits = 32 (32 measured)
latency change    = 0.0172385
throughput change = 0.0417966
Class 0:
Packet latency average = 22.0942
	minimum = 7
	maximum = 72
Network latency average = 22.0894
	minimum = 7
	maximum = 72
Slowest packet = 63200
Flit latency average = 22.0899
	minimum = 7
	maximum = 72
Slowest flit = 63200
Fragmentation average = 0
	minimum = 0
	maximum = 0
Injected packet rate average = 0.098875
	minimum = 0.0865 (at node 10)
	maximum = 0.1115 (at node 11)
Accepted packet rate average = 0.0987187
	minimum = 0.0875 (at node 6)
	maximum = 0.114 (at node 15)
Injected flit rate average = 0.098875
	minimum = 0.0865 (at node 10)
	maximum = 0.1115 (at node 11)
Accepted flit rate average= 0.0987187
	minimum = 0.0875 (at node 6)
	maximum = 0.114 (at node 15)
Injected packet length average = 1
Accepted packet length average = 1
Total in-flight flits = 44 (44 measured)
latency change    = 0.00605917
throughput change = 0.0148781
Class 0:
Packet latency average = 22.3833
	minimum = 7
	maximum = 77
Network latency average = 22.3741
	minimum = 7
	maximum = 77
Slowest packet = 66144
Flit latency average = 22.3722
	minimum = 7
	maximum = 77
Slowest flit = 66144
Fragmentation average = 0
	minimum = 0
	maximum = 0
Injected packet rate average = 0.100604
	minimum = 0.0913333 (at node 1)
	maximum = 0.108667 (at node 15)
Accepted packet rate average = 0.100542
	minimum = 0.0913333 (at node 6)
	maximum = 0.108667 (at node 15)
Injected flit rate average = 0.100604
	minimum = 0.0913333 (at node 1)
	maximum = 0.108667 (at node 15)
Accepted flit rate average= 0.100542
	minimum = 0.0913333 (at node 6)
	maximum = 0.108667 (at node 15)
Injected packet length average = 1
Accepted packet length average = 1
Total in-flight flits = 42 (42 measured)
latency change    = 0.0129158
throughput change = 0.018131
Draining all recorded packets ...
Draining remaining packets ...
Time taken is 6073 cycles
Class 0:
Packet latency average = 23.516
	minimum = 7
	maximum = 76
Network latency average = 23.508
	minimum = 7
	maximum = 76
Slowest packet = 69067
Flit latency average = 23.508
	minimum = 7
	maximum = 76
Slowest flit = 69067
Fragmentation average = 0
	minimum = 0
	maximum = 0
Injected packet rate average = 0.103563
	minimum = 0.091 (at node 11)
	maximum = 0.122 (at node 14)
Accepted packet rate average = 0.10125
	minimum = 0.079 (at node 12)
	maximum = 0.121 (at node 8)
Injected flit rate average = 0.103563
	minimum = 0.091 (at node 11)
	maximum = 0.122 (at node 14)
Accepted flit rate average= 0.10125
	minimum = 0.079 (at node 12)
	maximum = 0.121 (at node 8)
Injected packet length average = 1
Accepted packet length average = 1
Total in-flight flits = 37 (0 measured)
latency change    = 1
throughput change = 1
Class 0:
Packet latency average = 23.0887
	minimum = 7
	maximum = 76
Network latency average = 23.0783
	minimum = 7
	maximum = 76
Slowest packet = 69067
Flit latency average = 23.0783
	minimum = 7
	maximum = 76
Slowest flit = 69067
Fragmentation average = 0
	minimum = 0
	maximum = 0
Injected packet rate average = 0.103219
	minimum = 0.094 (at node 4)
	maximum = 0.115 (at node 1)
Accepted packet rate average = 0.102125
	minimum = 0.0845 (at node 9)
	maximum = 0.114 (at node 2)
Injected flit rate average = 0.103219
	minimum = 0.094 (at node 4)
	maximum = 0.115 (at node 1)
Accepted flit rate average= 0.102125
	minimum = 0.0845 (at node 9)
	maximum = 0.114 (at node 2)
Injected packet length average = 1
Accepted packet length average = 1
Total in-flight flits = 35 (0 measured)
latency change    = 0.0185073
throughput change = 0.00856793
Class 0:
Packet latency average = 22.3453
	minimum = 7
	maximum = 66
Network latency average = 22.3416
	minimum = 7
	maximum = 66
Slowest packet = 71793
Flit latency average = 22.3416
	minimum = 7
	maximum = 66
Slowest flit = 71793
Fragmentation average = 0
	minimum = 0
	maximum = 0
Injected packet rate average = 0.1025
	minimum = 0.082 (at node 13)
	maximum = 0.124 (at node 5)
Accepted packet rate average = 0.103
	minimum = 0.083 (at node 15)
	maximum = 0.12 (at node 13)
Injected flit rate average = 0.1025
	minimum = 0.082 (at node 13)
	maximum = 0.124 (at node 5)
Accepted flit rate average= 0.103
	minimum = 0.083 (at node 15)
	maximum = 0.12 (at node 13)
Injected packet length average = 1
Accepted packet length average = 1
Total in-flight flits = 27 (0 measured)
latency change    = 0.033272
throughput change = 0.00849515
Warmed up ...Time used is 3000 cycles
Class 0:
Packet latency average = 21.8995
	minimum = 7
	maximum = 71
Network latency average = 21.8929
	minimum = 7
	maximum = 71
Slowest packet = 72759
Flit latency average = 21.9812
	minimum = 7
	maximum = 71
Slowest flit = 72759
Fragmentation average = 0
	minimum = 0
	maximum = 0
Injected packet rate average = 0.096375
	minimum = 0.085 (at node 2)
	maximum = 0.112 (at node 12)
Accepted packet rate average = 0.09625
	minimum = 0.072 (at node 9)
	maximum = 0.115 (at node 8)
Injected flit rate average = 0.096375
	minimum = 0.085 (at node 2)
	maximum = 0.112 (at node 12)
Accepted flit rate average= 0.09625
	minimum = 0.072 (at node 9)
	maximum = 0.115 (at node 8)
Injected packet length average = 1
Accepted packet length average = 1
Total in-flight flits = 29 (29 measured)
latency change    = 0.0203534
throughput change = 0.0701299
Class 0:
Packet latency average = 22.26
	minimum = 7
	maximum = 73
Network latency average = 22.2548
	minimum = 7
	maximum = 73
Slowest packet = 75451
Flit latency average = 22.2953
	minimum = 7
	maximum = 73
Slowest flit = 75451
Fragmentation average = 0
	minimum = 0
	maximum = 0
Injected packet rate average = 0.0979375
	minimum = 0.091 (at node 0)
	maximum = 0.105 (at node 12)
Accepted packet rate average = 0.097375
	minimum = 0.0805 (at node 7)
	maximum = 0.109 (at node 0)
Injected flit rate average = 0.0979375
	minimum = 0.091 (at node 0)
	maximum = 0.105 (at node 12)
Accepted flit rate average= 0.097375
	minimum = 0.0805 (at node 7)
	maximum = 0.109 (at node 0)
Injected packet length average = 1
Accepted packet length average = 1
Total in-flight flits = 45 (45 measured)
latency change    = 0.0161913
throughput change = 0.0115533
Class 0:
Packet latency average = 22.876
	minimum = 7
	maximum = 127
Network latency average = 22.8526
	minimum = 7
	maximum = 127
Slowest packet = 76148
Flit latency average = 22.8752
	minimum = 7
	maximum = 127
Slowest flit = 76148
Fragmentation average = 0
	minimum = 0
	maximum = 0
Injected packet rate average = 0.1015
	minimum = 0.0936667 (at node 4)
	maximum = 0.107 (at node 1)
Accepted packet rate average = 0.101021
	minimum = 0.0903333 (at node 7)
	maximum = 0.109 (at node 10)
Injected flit rate average = 0.1015
	minimum = 0.0936667 (at node 4)
	maximum = 0.107 (at node 1)
Accepted flit rate average= 0.101021
	minimum = 0.0903333 (at node 7)
	maximum = 0.109 (at node 10)
Injected packet length average = 1
Accepted packet length average = 1
Total in-flight flits = 50 (50 measured)
latency change    = 0.0269291
throughput change = 0.0360899
Class 0:
Packet latency average = 22.901
	minimum = 7
	maximum = 127
Network latency average = 22.8819
	minimum = 7
	maximum = 127
Slowest packet = 76148
Flit latency average = 22.8987
	minimum = 7
	maximum = 127
Slowest flit = 76148
Fragmentation average = 0
	minimum = 0
	maximum = 0
Injected packet rate average = 0.101891
	minimum = 0.096 (at node 6)
	maximum = 0.10975 (at node 9)
Accepted packet rate average = 0.101609
	minimum = 0.092 (at node 9)
	maximum = 0.109 (at node 8)
Injected flit rate average = 0.101891
	minimum = 0.096 (at node 6)
	maximum = 0.10975 (at node 9)
Accepted flit rate average= 0.101609
	minimum = 0.092 (at node 9)
	maximum = 0.109 (at node 8)
Injected packet length average = 1
Accepted packet length average = 1
Total in-flight flits = 45 (45 measured)
latency change    = 0.00109314
throughput change = 0.0057922
Draining all recorded packets ...
Draining remaining packets ...
Time taken is 7064 cycles
Class 0:
Packet latency average = 22.1522
	minimum = 7
	maximum = 77
Network latency average = 22.1489
	minimum = 7
	maximum = 77
Slowest packet = 80065
Flit latency average = 22.1489
	minimum = 7
	maximum = 77
Slowest flit = 80065
Fragmentation average = 0
	minimum = 0
	maximum = 0
Injected packet rate average = 0.0963125
	minimum = 0.085 (at node 11)
	maximum = 0.11 (at node 7)
Accepted packet rate average = 0.094875
	minimum = 0.076 (at node 3)
	maximum = 0.112 (at node 13)
Injected flit rate average = 0.0963125
	minimum = 0.085 (at node 11)
	maximum = 0.11 (at node 7)
Accepted flit rate average= 0.094875
	minimum = 0.076 (at node 3)
	maximum = 0.112 (at node 13)
Injected packet length average = 1
Accepted packet length average = 1
Total in-flight flits = 23 (0 measured)
latency change    = 1
throughput change = 1
Class 0:
Packet latency average = 22.0417
	minimum = 7
	maximum = 77
Network latency average = 22.033
	minimum = 7
	maximum = 77
Slowest packet = 80065
Flit latency average = 22.033
	minimum = 7
	maximum = 77
Slowest flit = 80065
Fragmentation average = 0
	minimum = 0
	maximum = 0
Injected packet rate average = 0.0985937
	minimum = 0.089 (at node 9)
	maximum = 0.1125 (at node 5)
Accepted packet rate average = 0.0974062
	minimum = 0.085 (at node 4)
	maximum = 0.1105 (at node 10)
Injected flit rate average = 0.0985937
	minimum = 0.089 (at node 9)
	maximum = 0.1125 (at node 5)
Accepted flit rate average= 0.0974062
	minimum = 0.085 (at node 4)
	maximum = 0.1105 (at node 10)
Injected packet length average = 1
Accepted packet length average = 1
Total in-flight flits = 38 (0 measured)
latency change    = 0.00501173
throughput change = 0.0259865
Class 0:
Packet latency average = 22.6466
	minimum = 7
	maximum = 74
Network latency average = 22.6453
	minimum = 7
	maximum = 74
Slowest packet = 82507
Flit latency average = 22.6453
	minimum = 7
	maximum = 74
Slowest flit = 82507
Fragmentation average = 0
	minimum = 0
	maximum = 0
Injected packet rate average = 0.0979375
	minimum = 0.076 (at node 6)
	maximum = 0.112 (at node 3)
Accepted packet rate average = 0.0985
	minimum = 0.08 (at node 5)
	maximum = 0.123 (at node 10)
Injected flit rate average = 0.0979375
	minimum = 0.076 (at node 6)
	maximum = 0.112 (at node 3)
Accepted flit rate average= 0.0985
	minimum = 0.08 (at node 5)
	maximum = 0.123 (at node 10)
Injected packet length average = 1
Accepted packet length average = 1
Total in-flight flits = 29 (0 measured)
latency change    = 0.026709
throughput change = 0.0111041
Warmed up ...Time used is 3000 cycles
Class 0:
Packet latency average = 21.9763
	minimum = 7
	maximum = 102
Network latency average = 21.9737
	minimum = 7
	maximum = 102
Slowest packet = 85007
Flit latency average = 22.0038
	minimum = 7
	maximum = 102
Slowest flit = 85007
Fragmentation average = 0
	minimum = 0
	maximum = 0
Injected packet rate average = 0.0995625
	minimum = 0.084 (at node 2)
	maximum = 0.113 (at node 15)
Accepted packet rate average = 0.0993125
	minimum = 0.084 (at node 8)
	maximum = 0.117 (at node 11)
Injected flit rate average = 0.0995625
	minimum = 0.084 (at node 2)
	maximum = 0.113 (at node 15)
Accepted flit rate average= 0.0993125
	minimum = 0.084 (at node 8)
	maximum = 0.117 (at node 11)
Injected packet length average = 1
Accepted packet length average = 1
Total in-flight flits = 33 (33 measured)
latency change    = 0.0305007
throughput change = 0.00818125
Class 0:
Packet latency average = 21.9044
	minimum = 7
	maximum = 102
Network latency average = 21.9025
	minimum = 7
	maximum = 102
Slowest packet = 85007
Flit latency average = 21.9183
	minimum = 7
	maximum = 102
Slowest flit = 85007
Fragmentation average = 0
	minimum = 0
	maximum = 0
Injected packet rate average = 0.0989687
	minimum = 0.0865 (at node 13)
	maximum = 0.1085 (at node 3)
Accepted packet rate average = 0.0986875
	minimum = 0.091 (at node 8)
	maximum = 0.111 (at node 13)
Injected flit rate average = 0.0989687
	minimum = 0.0865 (at node 13)
	maximum = 0.1085 (at node 3)
Accepted flit rate average= 0.0986875
	minimum = 0.091 (at node 8)
	maximum = 0.111 (at node 13)
Injected packet length average = 1
Accepted packet length average = 1
Total in-flight flits = 38 (38 measured)
latency change    = 0.00327969
throughput change = 0.00633312
Class 0:
Packet latency average = 22.3058
	minimum = 7
	maximum = 102
Network latency average = 22.2927
	minimum = 7
	maximum = 102
Slowest packet = 85007
Flit latency average = 22.3008
	minimum = 7
	maximum = 102
Slowest flit = 85007
Fragmentation average = 0
	minimum = 0
	maximum = 0
Injected packet rate average = 0.0992083
	minimum = 0.0876667 (at node 13)
	maximum = 0.107333 (at node 3)
Accepted packet rate average = 0.0988958
	minimum = 0.09 (at node 8)
	maximum = 0.110333 (at node 13)
Injected flit rate average = 0.0992083
	minimum = 0.0876667 (at node 13)
	maximum = 0.107333 (at node 3)
Accepted flit rate average= 0.0988958
	minimum = 0.09 (at node 8)
	maximum = 0.110333 (at node 13)
Injected packet length average = 1
Accepted packet length average = 1
Total in-flight flits = 44 (44 measured)
latency change    = 0.0179956
throughput change = 0.00210659
Draining all recorded packets ...
Draining remaining packets ...
Time taken is 6093 cycles
Class 0:
Packet latency average = 21.6838
	minimum = 7
	maximum = 82
Network latency average = 21.6716
	minimum = 7
	maximum = 82
Slowest packet = 90136
Flit latency average = 21.6716
	minimum = 7
	maximum = 82
Slowest flit = 90136
Fragmentation average = 0
	minimum = 0
	maximum = 0
Injected packet rate average = 0.0995625
	minimum = 0.083 (at node 3)
	maximum = 0.124 (at node 2)
Accepted packet rate average = 0.0974375
	minimum = 0.081 (at node 0)
	maximum = 0.12 (at node 14)
Injected flit rate average = 0.0995625
	minimum = 0.083 (at node 3)
	maximum = 0.124 (at node 2)
Accepted flit rate average= 0.0974375
	minimum = 0.081 (at node 0)
	maximum = 0.12 (at node 14)
Injected packet length average = 1
Accepted packet length average = 1
Total in-flight flits = 34 (0 measured)
latency change    = 1
throughput change = 1
Class 0:
Packet latency average = 21.8022
	minimum = 7
	maximum = 82
Network latency average = 21.7932
	minimum = 7
	maximum = 82
Slowest packet = 90136
Flit latency average = 21.7932
	minimum = 7
	maximum = 82
Slowest flit = 90136
Fragmentation average = 0
	minimum = 0
	maximum = 0
Injected packet rate average = 0.0992813
	minimum = 0.088 (at node 3)
	maximum = 0.113 (at node 2)
Accepted packet rate average = 0.0980937
	minimum = 0.085 (at node 3)
	maximum = 0.1145 (at node 8)
Injected flit rate average = 0.0992813
	minimum = 0.088 (at node 3)
	maximum = 0.113 (at node 2)
Accepted flit rate average= 0.0980937
	minimum = 0.085 (at node 3)
	maximum = 0.1145 (at node 8)
Injected packet length average = 1
Accepted packet length average = 1
Total in-flight flits = 38 (0 measured)
latency change    = 0.00543041
throughput change = 0.00669003
Class 0:
Packet latency average = 21.9245
	minimum = 7
	maximum = 69
Network latency average = 21.9232
	minimum = 7
	maximum = 69
Slowest packet = 92646
Flit latency average = 21.9232
	minimum = 7
	maximum = 69
Slowest flit = 92646
Fragmentation average = 0
	minimum = 0
	maximum = 0
Injected packet rate average = 0.099875
	minimum = 0.083 (at node 11)
	maximum = 0.121 (at node 3)
Accepted packet rate average = 0.100125
	minimum = 0.081 (at node 11)
	maximum = 0.13 (at node 10)
Injected flit rate average = 0.099875
	minimum = 0.083 (at node 11)
	maximum = 0.121 (at node 3)
Accepted flit rate average= 0.100125
	minimum = 0.081 (at node 11)
	maximum = 0.13 (at node 10)
Injected packet length average = 1
Accepted packet length average = 1
Total in-flight flits = 34 (0 measured)
latency change    = 0.00557838
throughput change = 0.0202871
Warmed up ...Time used is 3000 cycles
Class 0:
Packet latency average = 23.0892
	minimum = 7
	maximum = 80
Network latency average = 23.0854
	minimum = 7
	maximum = 80
Slowest packet = 93736
Flit latency average = 23.1022
	minimum = 7
	maximum = 80
Slowest flit = 93736
Fragmentation average = 0
	minimum = 0
	maximum = 0
Injected packet rate average = 0.100187
	minimum = 0.077 (at node 13)
	maximum = 0.113 (at node 8)
Accepted packet rate average = 0.10025
	minimum = 0.084 (at node 14)
	maximum = 0.116 (at node 12)
Injected flit rate average = 0.100187
	minimum = 0.077 (at node 13)
	maximum = 0.113 (at node 8)
Accepted flit rate average= 0.10025
	minimum = 0.084 (at node 14)
	maximum = 0.116 (at node 12)
Injected packet length average = 1
Accepted packet length average = 1
Total in-flight flits = 33 (33 measured)
latency change    = 0.0504437
throughput change = 0.00124688
Class 0:
Packet latency average = 22.6107
	minimum = 7
	maximum = 80
Network latency average = 22.6088
	minimum = 7
	maximum = 80
Slowest packet = 93736
Flit latency average = 22.6222
	minimum = 7
	maximum = 80
Slowest flit = 93736
Fragmentation average = 0
	minimum = 0
	maximum = 0
Injected packet rate average = 0.100875
	minimum = 0.094 (at node 13)
	maximum = 0.1155 (at node 4)
Accepted packet rate average = 0.100844
	minimum = 0.0895 (at node 14)
	maximum = 0.1115 (at node 9)
Injected flit rate average = 0.100875
	minimum = 0.094 (at node 13)
	maximum = 0.1155 (at node 4)
Accepted flit rate average= 0.100844
	minimum = 0.0895 (at node 14)
	maximum = 0.1115 (at node 9)
Injected packet length average = 1
Accepted packet length average = 1
Total in-flight flits = 35 (35 measured)
latency change    = 0.0211608
throughput change = 0.00588782
Class 0:
Packet latency average = 22.3513
	minimum = 7
	maximum = 80
Network latency average = 22.3477
	minimum = 7
	maximum = 80
Slowest packet = 93736
Flit latency average = 22.3587
	minimum = 7
	maximum = 80
Slowest flit = 93736
Fragmentation average = 0
	minimum = 0
	maximum = 0
Injected packet rate average = 0.0989792
	minimum = 0.093 (at node 12)
	maximum = 0.107667 (at node 4)
Accepted packet rate average = 0.0990833
	minimum = 0.0913333 (at node 3)
	maximum = 0.107 (at node 5)
Injected flit rate average = 0.0989792
	minimum = 0.093 (at node 12)
	maximum = 0.107667 (at node 4)
Accepted flit rate average= 0.0990833
	minimum = 0.0913333 (at node 3)
	maximum = 0.107 (at node 5)
Injected packet length average = 1
Accepted packet length average = 1
Total in-flight flits = 29 (29 measured)
latency change    = 0.0116045
throughput change = 0.017767
Class 0:
Packet latency average = 22.2613
	minimum = 7
	maximum = 80
Network latency average = 22.2584
	minimum = 7
	maximum = 80
Slowest packet = 93736
Flit latency average = 22.2672
	minimum = 7
	maximum = 80
Slowest flit = 93736
Fragmentation average = 0
	minimum = 0
	maximum = 0
Injected packet rate average = 0.0976719
	minimum = 0.092 (at node 14)
	maximum = 0.10425 (at node 2)
Accepted packet rate average = 0.0978281
	minimum = 0.09225 (at node 13)
	maximum = 0.10675 (at node 2)
Injected flit rate average = 0.0976719
	minimum = 0.092 (at node 14)
	maximum = 0.10425 (at node 2)
Accepted flit rate average= 0.0978281
	minimum = 0.09225 (at node 13)
	maximum = 0.10675 (at node 2)
Injected packet length average = 1
Accepted packet length average = 1
Total in-flight flits = 24 (24 measured)
latency change    = 0.00404526
throughput change = 0.0128308
Draining all recorded packets ...
Draining remaining packets ...
Time taken is 7066 cycles
Class 0:
Packet latency average = 21.8121
	minimum = 7
	maximum = 64
Network latency average = 21.8121
	minimum = 7
	maximum = 64
Slowest packet = 100043
Flit latency average = 21.8121
	minimum = 7
	maximum = 64
Slowest flit = 100043
Fragmentation average = 0
	minimum = 0
	maximum = 0
Injected packet rate average = 0.0980625
	minimum = 0.078 (at node 12)
	maximum = 0.117 (at node 11)
Accepted packet rate average = 0.0958125
	minimum = 0.082 (at node 10)
	maximum = 0.109 (at node 12)
Injected flit rate average = 0.0980625
	minimum = 0.078 (at node 12)
	maximum = 0.117 (at node 11)
Accepted flit rate average= 0.0958125
	minimum = 0.082 (at node 10)
	maximum = 0.109 (at node 12)
Injected packet length average = 1
Accepted packet length average = 1
Total in-flight flits = 36 (0 measured)
latency change    = 1
throughput change = 1
Class 0:
Packet latency average = 21.6803
	minimum = 7
	maximum = 88
Network latency average = 21.6793
	minimum = 7
	maximum = 88
Slowest packet = 101265
Flit latency average = 21.6793
	minimum = 7
	maximum = 88
Slowest flit = 101265
Fragmentation average = 0
	minimum = 0
	maximum = 0
Injected packet rate average = 0.0992813
	minimum = 0.0875 (at node 6)
	maximum = 0.113 (at node 10)
Accepted packet rate average = 0.09775
	minimum = 0.089 (at node 10)
	maximum = 0.1135 (at node 2)
Injected flit rate average = 0.0992813
	minimum = 0.0875 (at node 6)
	maximum = 0.113 (at node 10)
Accepted flit rate average= 0.09775
	minimum = 0.089 (at node 10)
	maximum = 0.1135 (at node 2)
Injected packet length average = 1
Accepted packet length average = 1
Total in-flight flits = 50 (0 measured)
latency change    = 0.00608046
throughput change = 0.019821
Class 0:
Packet latency average = 23.1693
	minimum = 7
	maximum = 133
Network latency average = 23.1661
	minimum = 7
	maximum = 133
Slowest packet = 102947
Flit latency average = 23.1661
	minimum = 7
	maximum = 133
Slowest flit = 102947
Fragmentation average = 0
	minimum = 0
	maximum = 0
Injected packet rate average = 0.099625
	minimum = 0.087 (at node 10)
	maximum = 0.112 (at node 8)
Accepted packet rate average = 0.100437
	minimum = 0.081 (at node 3)
	maximum = 0.121 (at node 14)
Injected flit rate average = 0.099625
	minimum = 0.087 (at node 10)
	maximum = 0.112 (at node 8)
Accepted flit rate average= 0.100437
	minimum = 0.081 (at node 3)
	maximum = 0.121 (at node 14)
Injected packet length average = 1
Accepted packet length average = 1
Total in-flight flits = 36 (0 measured)
latency change    = 0.0642641
throughput change = 0.0267579
Warmed up ...Time used is 3000 cycles
Class 0:
Packet latency average = 21.9401
	minimum = 7
	maximum = 78
Network latency average = 21.9375
	minimum = 7
	maximum = 78
Slowest packet = 105058
Flit latency average = 22.0901
	minimum = 7
	maximum = 78
Slowest flit = 105058
Fragmentation average = 0
	minimum = 0
	maximum = 0
Injected packet rate average = 0.101312
	minimum = 0.085 (at node 15)
	maximum = 0.121 (at node 11)
Accepted packet rate average = 0.101312
	minimum = 0.087 (at node 5)
	maximum = 0.114 (at node 12)
Injected flit rate average = 0.101312
	minimum = 0.085 (at node 15)
	maximum = 0.121 (at node 11)
Accepted flit rate average= 0.101312
	minimum = 0.087 (at node 5)
	maximum = 0.114 (at node 12)
Injected packet length average = 1
Accepted packet length average = 1
Total in-flight flits = 36 (36 measured)
latency change    = 0.0560252
throughput change = 0.00863664
Class 0:
Packet latency average = 22.3437
	minimum = 7
	maximum = 78
Network latency average = 22.3277
	minimum = 7
	maximum = 78
Slowest packet = 105058
Flit latency average = 22.3986
	minimum = 7
	maximum = 78
Slowest flit = 105058
Fragmentation average = 0
	minimum = 0
	maximum = 0
Injected packet rate average = 0.102531
	minimum = 0.095 (at node 5)
	maximum = 0.111 (at node 11)
Accepted packet rate average = 0.102781
	minimum = 0.0925 (at node 10)
	maximum = 0.1135 (at node 1)
Injected flit rate average = 0.102531
	minimum = 0.095 (at node 5)
	maximum = 0.111 (at node 11)
Accepted flit rate average= 0.102781
	minimum = 0.0925 (at node 10)
	maximum = 0.1135 (at node 1)
Injected packet length average = 1
Accepted packet length average = 1
Total in-flight flits = 28 (28 measured)
latency change    = 0.0180642
throughput change = 0.0142901
Class 0:
Packet latency average = 22.3592
	minimum = 7
	maximum = 78
Network latency average = 22.3466
	minimum = 7
	maximum = 78
Slowest packet = 105058
Flit latency average = 22.3937
	minimum = 7
	maximum = 78
Slowest flit = 105058
Fragmentation average = 0
	minimum = 0
	maximum = 0
Injected packet rate average = 0.102333
	minimum = 0.094 (at node 10)
	maximum = 0.112333 (at node 11)
Accepted packet rate average = 0.102646
	minimum = 0.0896667 (at node 13)
	maximum = 0.112667 (at node 1)
Injected flit rate average = 0.102333
	minimum = 0.094 (at node 10)
	maximum = 0.112333 (at node 11)
Accepted flit rate average= 0.102646
	minimum = 0.0896667 (at node 13)
	maximum = 0.112667 (at node 1)
Injected packet length average = 1
Accepted packet length average = 1
Total in-flight flits = 21 (21 measured)
latency change    = 0.000695395
throughput change = 0.00131926
Class 0:
Packet latency average = 22.1447
	minimum = 7
	maximum = 78
Network latency average = 22.1346
	minimum = 7
	maximum = 78
Slowest packet = 105058
Flit latency average = 22.1717
	minimum = 7
	maximum = 78
Slowest flit = 105058
Fragmentation average = 0
	minimum = 0
	maximum = 0
Injected packet rate average = 0.101203
	minimum = 0.09225 (at node 10)
	maximum = 0.11325 (at node 11)
Accepted packet rate average = 0.101219
	minimum = 0.09025 (at node 13)
	maximum = 0.10775 (at node 1)
Injected flit rate average = 0.101203
	minimum = 0.09225 (at node 10)
	maximum = 0.11325 (at node 11)
Accepted flit rate average= 0.101219
	minimum = 0.09025 (at node 13)
	maximum = 0.10775 (at node 1)
Injected packet length average = 1
Accepted packet length average = 1
Total in-flight flits = 35 (35 measured)
latency change    = 0.00968882
throughput change = 0.014099
Draining all recorded packets ...
Draining remaining packets ...
Time taken is 7063 cycles
Class 0:
Packet latency average = 21.8381
	minimum = 7
	maximum = 65
Network latency average = 21.831
	minimum = 7
	maximum = 65
Slowest packet = 111173
Flit latency average = 21.831
	minimum = 7
	maximum = 65
Slowest flit = 111173
Fragmentation average = 0
	minimum = 0
	maximum = 0
Injected packet rate average = 0.0986875
	minimum = 0.087 (at node 9)
	maximum = 0.112 (at node 7)
Accepted packet rate average = 0.096875
	minimum = 0.085 (at node 6)
	maximum = 0.113 (at node 11)
Injected flit rate average = 0.0986875
	minimum = 0.087 (at node 9)
	maximum = 0.112 (at node 7)
Accepted flit rate average= 0.096875
	minimum = 0.085 (at node 6)
	maximum = 0.113 (at node 11)
Injected packet length average = 1
Accepted packet length average = 1
Total in-flight flits = 29 (0 measured)
latency change    = 1
throughput change = 1
Class 0:
Packet latency average = 22.1181
	minimum = 7
	maximum = 105
Network latency average = 22.1123
	minimum = 7
	maximum = 105
Slowest packet = 113596
Flit latency average = 22.1123
	minimum = 7
	maximum = 105
Slowest flit = 113596
Fragmentation average = 0
	minimum = 0
	maximum = 0
Injected packet rate average = 0.0985625
	minimum = 0.089 (at node 9)
	maximum = 0.1115 (at node 8)
Accepted packet rate average = 0.0976562
	minimum = 0.0875 (at node 1)
	maximum = 0.1095 (at node 0)
Injected flit rate average = 0.0985625
	minimum = 0.089 (at node 9)
	maximum = 0.1115 (at node 8)
Accepted flit rate average= 0.0976562
	minimum = 0.0875 (at node 1)
	maximum = 0.1095 (at node 0)
Injected packet length average = 1
Accepted packet length average = 1
Total in-flight flits = 29 (0 measured)
latency change    = 0.01266
throughput change = 0.008
Class 0:
Packet latency average = 21.8978
	minimum = 7
	maximum = 72
Network latency average = 21.8971
	minimum = 7
	maximum = 72
Slowest packet = 115595
Flit latency average = 21.8971
	minimum = 7
	maximum = 72
Slowest flit = 115595
Fragmentation average = 0
	minimum = 0
	maximum = 0
Injected packet rate average = 0.0956875
	minimum = 0.076 (at node 14)
	maximum = 0.109 (at node 11)
Accepted packet rate average = 0.095375
	minimum = 0.076 (at node 7)
	maximum = 0.115 (at node 2)
Injected flit rate average = 0.0956875
	minimum = 0.076 (at node 14)
	maximum = 0.109 (at node 11)
Accepted flit rate average= 0.095375
	minimum = 0.076 (at node 7)
	maximum = 0.115 (at node 2)
Injected packet length average = 1
Accepted packet length average = 1
Total in-flight flits = 34 (0 measured)
latency change    = 0.0100608
throughput change = 0.0239187
Warmed up ...Time used is 3000 cycles
Class 0:
Packet latency average = 22.6094
	minimum = 7
	maximum = 98
Network latency average = 22.6081
	minimum = 7
	maximum = 98
Slowest packet = 117109
Flit latency average = 22.592
	minimum = 7
	maximum = 98
Slowest flit = 117109
Fragmentation average = 0
	minimum = 0
	maximum = 0
Injected packet rate average = 0.100437
	minimum = 0.087 (at node 0)
	maximum = 0.116 (at node 1)
Accepted packet rate average = 0.0995625
	minimum = 0.085 (at node 2)
	maximum = 0.12 (at node 12)
Injected flit rate average = 0.100437
	minimum = 0.087 (at node 0)
	maximum = 0.116 (at node 1)
Accepted flit rate average= 0.0995625
	minimum = 0.085 (at node 2)
	maximum = 0.12 (at node 12)
Injected packet length average = 1
Accepted packet length average = 1
Total in-flight flits = 48 (48 measured)
latency change    = 0.0314734
throughput change = 0.042059
Class 0:
Packet latency average = 22.4267
	minimum = 7
	maximum = 98
Network latency average = 22.4222
	minimum = 7
	maximum = 98
Slowest packet = 117109
Flit latency average = 22.4161
	minimum = 7
	maximum = 98
Slowest flit = 117109
Fragmentation average = 0
	minimum = 0
	maximum = 0
Injected packet rate average = 0.0983437
	minimum = 0.089 (at node 0)
	maximum = 0.111 (at node 7)
Accepted packet rate average = 0.0983125
	minimum = 0.086 (at node 2)
	maximum = 0.1085 (at node 12)
Injected flit rate average = 0.0983437
	minimum = 0.089 (at node 0)
	maximum = 0.111 (at node 7)
Accepted flit rate average= 0.0983125
	minimum = 0.086 (at node 2)
	maximum = 0.1085 (at node 12)
Injected packet length average = 1
Accepted packet length average = 1
Total in-flight flits = 35 (35 measured)
latency change    = 0.00814339
throughput change = 0.0127146
Class 0:
Packet latency average = 22.4179
	minimum = 7
	maximum = 113
Network latency average = 22.4059
	minimum = 7
	maximum = 113
Slowest packet = 119255
Flit latency average = 22.4019
	minimum = 7
	maximum = 113
Slowest flit = 119255
Fragmentation average = 0
	minimum = 0
	maximum = 0
Injected packet rate average = 0.0993333
	minimum = 0.091 (at node 12)
	maximum = 0.108 (at node 10)
Accepted packet rate average = 0.0993125
	minimum = 0.0923333 (at node 15)
	maximum = 0.107667 (at node 1)
Injected flit rate average = 0.0993333
	minimum = 0.091 (at node 12)
	maximum = 0.108 (at node 10)
Accepted flit rate average= 0.0993125
	minimum = 0.0923333 (at node 15)
	maximum = 0.107667 (at node 1)
Injected packet length average = 1
Accepted packet length average = 1
Total in-flight flits = 35 (35 measured)
latency change    = 0.000393367
throughput change = 0.0100692
Draining all recorded packets ...
Draining remaining packets ...
Time taken is 6072 cycles
Class 0:
Packet latency average = 21.8956
	minimum = 7
	maximum = 65
Network latency average = 21.8813
	minimum = 7
	maximum = 65
Slowest packet = 121451
Flit latency average = 21.8813
	minimum = 7
	maximum = 65
Slowest flit = 121451
Fragmentation average = 0
	minimum = 0
	maximum = 0
Injected packet rate average = 0.099375
	minimum = 0.076 (at node 11)
	maximum = 0.129 (at node 14)
Accepted packet rate average = 0.096375
	minimum = 0.081 (at node 9)
	maximum = 0.104 (at node 8)
Injected flit rate average = 0.099375
	minimum = 0.076 (at node 11)
	maximum = 0.129 (at node 14)
Accepted flit rate average= 0.096375
	minimum = 0.081 (at node 9)
	maximum = 0.104 (at node 8)
Injected packet length average = 1
Accepted packet length average = 1
Total in-flight flits = 48 (0 measured)
latency change    = 1
throughput change = 1
Class 0:
Packet latency average = 21.8368
	minimum = 7
	maximum = 65
Network latency average = 21.8285
	minimum = 7
	maximum = 65
Slowest packet = 121451
Flit latency average = 21.8285
	minimum = 7
	maximum = 65
Slowest flit = 121451
Fragmentation average = 0
	minimum = 0
	maximum = 0
Injected packet rate average = 0.0985937
	minimum = 0.089 (at node 0)
	maximum = 0.113 (at node 14)
Accepted packet rate average = 0.0976562
	minimum = 0.0805 (at node 9)
	maximum = 0.116 (at node 1)
Injected flit rate average = 0.0985937
	minimum = 0.089 (at node 0)
	maximum = 0.113 (at node 14)
Accepted flit rate average= 0.0976562
	minimum = 0.0805 (at node 9)
	maximum = 0.116 (at node 1)
Injected packet length average = 1
Accepted packet length average = 1
Total in-flight flits = 30 (0 measured)
latency change    = 0.00269225
throughput change = 0.01312
Class 0:
Packet latency average = 22.4512
	minimum = 7
	maximum = 79
Network latency average = 22.4469
	minimum = 7
	maximum = 79
Slowest packet = 124050
Flit latency average = 22.4469
	minimum = 7
	maximum = 79
Slowest flit = 124050
Fragmentation average = 0
	minimum = 0
	maximum = 0
Injected packet rate average = 0.1025
	minimum = 0.085 (at node 8)
	maximum = 0.118 (at node 14)
Accepted packet rate average = 0.102375
	minimum = 0.09 (at node 12)
	maximum = 0.121 (at node 11)
Injected flit rate average = 0.1025
	minimum = 0.085 (at node 8)
	maximum = 0.118 (at node 14)
Accepted flit rate average= 0.102375
	minimum = 0.09 (at node 12)
	maximum = 0.121 (at node 11)
Injected packet length average = 1
Accepted packet length average = 1
Total in-flight flits = 32 (0 measured)
latency change    = 0.0273643
throughput change = 0.0460928
Warmed up ...Time used is 3000 cycles
Class 0:
Packet latency average = 21.7405
	minimum = 7
	maximum = 64
Network latency average = 21.7373
	minimum = 7
	maximum = 64
Slowest packet = 126025
Flit latency average = 21.8018
	minimum = 7
	maximum = 64
Slowest flit = 126025
Fragmentation average = 0
	minimum = 0
	maximum = 0
Injected packet rate average = 0.100062
	minimum = 0.088 (at node 8)
	maximum = 0.117 (at node 12)
Accepted packet rate average = 0.0993125
	minimum = 0.084 (at node 4)
	maximum = 0.121 (at node 12)
Injected flit rate average = 0.100062
	minimum = 0.088 (at node 8)
	maximum = 0.117 (at node 12)
Accepted flit rate average= 0.0993125
	minimum = 0.084 (at node 4)
	maximum = 0.121 (at node 12)
Injected packet length average = 1
Accepted packet length average = 1
Total in-flight flits = 44 (44 measured)
latency change    = 0.032687
throughput change = 0.030837
Class 0:
Packet latency average = 21.9958
	minimum = 7
	maximum = 64
Network latency average = 21.9929
	minimum = 7
	maximum = 64
Slowest packet = 126025
Flit latency average = 22.023
	minimum = 7
	maximum = 64
Slowest flit = 126025
Fragmentation average = 0
	minimum = 0
	maximum = 0
Injected packet rate average = 0.098
	minimum = 0.0885 (at node 7)
	maximum = 0.1125 (at node 12)
Accepted packet rate average = 0.0977813
	minimum = 0.0815 (at node 4)
	maximum = 0.11 (at node 7)
Injected flit rate average = 0.098
	minimum = 0.0885 (at node 7)
	maximum = 0.1125 (at node 12)
Accepted flit rate average= 0.0977813
	minimum = 0.0815 (at node 4)
	maximum = 0.11 (at node 7)
Injected packet length average = 1
Accepted packet length average = 1
Total in-flight flits = 39 (39 measured)
latency change    = 0.0116057
throughput change = 0.01566
Class 0:
Packet latency average = 22.2427
	minimum = 7
	maximum = 82
Network latency average = 22.2363
	minimum = 7
	maximum = 82
Slowest packet = 128789
Flit latency average = 22.2545
	minimum = 7
	maximum = 82
Slowest flit = 128789
Fragmentation average = 0
	minimum = 0
	maximum = 0
Injected packet rate average = 0.0988542
	minimum = 0.0916667 (at node 4)
	maximum = 0.108333 (at node 12)
Accepted packet rate average = 0.0989583
	minimum = 0.0813333 (at node 4)
	maximum = 0.117 (at node 7)
Injected flit rate average = 0.0988542
	minimum = 0.0916667 (at node 4)
	maximum = 0.108333 (at node 12)
Accepted flit rate average= 0.0989583
	minimum = 0.0813333 (at node 4)
	maximum = 0.117 (at node 7)
Injected packet length average = 1
Accepted packet length average = 1
Total in-flight flits = 27 (27 measured)
latency change    = 0.0110996
throughput change = 0.0118947
Draining all recorded packets ...
Draining remaining packets ...
Time taken is 6076 cycles
Class 0:
Packet latency average = 22.1884
	minimum = 7
	maximum = 84
Network latency average = 22.1789
	minimum = 7
	maximum = 84
Slowest packet = 130989
Flit latency average = 22.1789
	minimum = 7
	maximum = 84
Slowest flit = 130989
Fragmentation average = 0
	minimum = 0
	maximum = 0
Injected packet rate average = 0.100875
	minimum = 0.087 (at node 13)
	maximum = 0.116 (at node 8)
Accepted packet rate average = 0.098875
	minimum = 0.078 (at node 2)
	maximum = 0.115 (at node 15)
Injected flit rate average = 0.100875
	minimum = 0.087 (at node 13)
	maximum = 0.116 (at node 8)
Accepted flit rate average= 0.098875
	minimum = 0.078 (at node 2)
	maximum = 0.115 (at node 15)
Injected packet length average = 1
Accepted packet length average = 1
Total in-flight flits = 32 (0 measured)
latency change    = 1
throughput change = 1
Class 0:
Packet latency average = 22.5856
	minimum = 7
	maximum = 84
Network latency average = 22.5746
	minimum = 7
	maximum = 84
Slowest packet = 130989
Flit latency average = 22.5746
	minimum = 7
	maximum = 84
Slowest flit = 130989
Fragmentation average = 0
	minimum = 0
	maximum = 0
Injected packet rate average = 0.100719
	minimum = 0.089 (at node 15)
	maximum = 0.1215 (at node 8)
Accepted packet rate average = 0.0990937
	minimum = 0.086 (at node 2)
	maximum = 0.1145 (at node 15)
Injected flit rate average = 0.100719
	minimum = 0.089 (at node 15)
	maximum = 0.1215 (at node 8)
Accepted flit rate average= 0.0990937
	minimum = 0.086 (at node 2)
	maximum = 0.1145 (at node 15)
Injected packet length average = 1
Accepted packet length average = 1
Total in-flight flits = 52 (0 measured)
latency change    = 0.0175886
throughput change = 0.00220751
Class 0:
Packet latency average = 22.6999
	minimum = 7
	maximum = 77
Network latency average = 22.6987
	minimum = 7
	maximum = 77
Slowest packet = 133348
Flit latency average = 22.6987
	minimum = 7
	maximum = 77
Slowest flit = 133348
Fragmentation average = 0
	minimum = 0
	maximum = 0
Injected packet rate average = 0.100625
	minimum = 0.085 (at node 14)
	maximum = 0.116 (at node 0)
Accepted packet rate average = 0.102063
	minimum = 0.087 (at node 1)
	maximum = 0.118 (at node 0)
Injected flit rate average = 0.100625
	minimum = 0.085 (at node 14)
	maximum = 0.116 (at node 0)
Accepted flit rate average= 0.102063
	minimum = 0.087 (at node 1)
	maximum = 0.118 (at node 0)
Injected packet length average = 1
Accepted packet length average = 1
Total in-flight flits = 29 (0 measured)
latency change    = 0.0050361
throughput change = 0.0290876
Warmed up ...Time used is 3000 cycles
Class 0:
Packet latency average = 22.7181
	minimum = 7
	maximum = 91
Network latency average = 22.7082
	minimum = 7
	maximum = 91
Slowest packet = 135198
Flit latency average = 22.7846
	minimum = 7
	maximum = 91
Slowest flit = 135198
Fragmentation average = 0
	minimum = 0
	maximum = 0
Injected packet rate average = 0.104
	minimum = 0.082 (at node 7)
	maximum = 0.126 (at node 2)
Accepted packet rate average = 0.103563
	minimum = 0.088 (at node 7)
	maximum = 0.125 (at node 14)
Injected flit rate average = 0.104
	minimum = 0.082 (at node 7)
	maximum = 0.126 (at node 2)
Accepted flit rate average= 0.103563
	minimum = 0.088 (at node 7)
	maximum = 0.125 (at node 14)
Injected packet length average = 1
Accepted packet length average = 1
Total in-flight flits = 36 (36 measured)
latency change    = 0.000797612
throughput change = 0.014484
Class 0:
Packet latency average = 22.4941
	minimum = 7
	maximum = 91
Network latency average = 22.4892
	minimum = 7
	maximum = 91
Slowest packet = 135198
Flit latency average = 22.5299
	minimum = 7
	maximum = 91
Slowest flit = 135198
Fragmentation average = 0
	minimum = 0
	maximum = 0
Injected packet rate average = 0.102094
	minimum = 0.085 (at node 7)
	maximum = 0.1235 (at node 2)
Accepted packet rate average = 0.101969
	minimum = 0.0865 (at node 7)
	maximum = 0.121 (at node 14)
Injected flit rate average = 0.102094
	minimum = 0.085 (at node 7)
	maximum = 0.1235 (at node 2)
Accepted flit rate average= 0.101969
	minimum = 0.0865 (at node 7)
	maximum = 0.121 (at node 14)
Injected packet length average = 1
Accepted packet length average = 1
Total in-flight flits = 33 (33 measured)
latency change    = 0.00995522
throughput change = 0.0156298
Class 0:
Packet latency average = 22.659
	minimum = 7
	maximum = 91
Network latency average = 22.6538
	minimum = 7
	maximum = 91
Slowest packet = 135198
Flit latency average = 22.6801
	minimum = 7
	maximum = 91
Slowest flit = 135198
Fragmentation average = 0
	minimum = 0
	maximum = 0
Injected packet rate average = 0.101583
	minimum = 0.09 (at node 5)
	maximum = 0.114667 (at node 2)
Accepted packet rate average = 0.101458
	minimum = 0.089 (at node 12)
	maximum = 0.116 (at node 14)
Injected flit rate average = 0.101583
	minimum = 0.09 (at node 5)
	maximum = 0.114667 (at node 2)
Accepted flit rate average= 0.101458
	minimum = 0.089 (at node 12)
	maximum = 0.116 (at node 14)
Injected packet length average = 1
Accepted packet length average = 1
Total in-flight flits = 35 (35 measured)
latency change    = 0.00727438
throughput change = 0.0050308
Draining all recorded packets ...
Draining remaining packets ...
Time taken is 6059 cycles
Class 0:
Packet latency average = 21.6667
	minimum = 7
	maximum = 61
Network latency average = 21.6647
	minimum = 7
	maximum = 61
Slowest packet = 141277
Flit latency average = 21.6647
	minimum = 7
	maximum = 61
Slowest flit = 141277
Fragmentation average = 0
	minimum = 0
	maximum = 0
Injected packet rate average = 0.0995625
	minimum = 0.079 (at node 13)
	maximum = 0.114 (at node 1)
Accepted packet rate average = 0.0976875
	minimum = 0.084 (at node 7)
	maximum = 0.12 (at node 1)
Injected flit rate average = 0.0995625
	minimum = 0.079 (at node 13)
	maximum = 0.114 (at node 1)
Accepted flit rate average= 0.0976875
	minimum = 0.084 (at node 7)
	maximum = 0.12 (at node 1)
Injected packet length average = 1
Accepted packet length average = 1
Total in-flight flits = 30 (0 measured)
latency change    = 1
throughput change = 1
Class 0:
Packet latency average = 22.1327
	minimum = 7
	maximum = 74
Network latency average = 22.104
	minimum = 7
	maximum = 71
Slowest packet = 141962
Flit latency average = 22.104
	minimum = 7
	maximum = 71
Slowest flit = 141962
Fragmentation average = 0
	minimum = 0
	maximum = 0
Injected packet rate average = 0.09925
	minimum = 0.086 (at node 15)
	maximum = 0.109 (at node 8)
Accepted packet rate average = 0.0982187
	minimum = 0.0875 (at node 8)
	maximum = 0.1075 (at node 1)
Injected flit rate average = 0.09925
	minimum = 0.086 (at node 15)
	maximum = 0.109 (at node 8)
Accepted flit rate average= 0.0982187
	minimum = 0.0875 (at node 8)
	maximum = 0.1075 (at node 1)
Injected packet length average = 1
Accepted packet length average = 1
Total in-flight flits = 33 (0 measured)
latency change    = 0.0210553
throughput change = 0.00540885
Class 0:
Packet latency average = 22.4692
	minimum = 7
	maximum = 83
Network latency average = 22.4599
	minimum = 7
	maximum = 83
Slowest packet = 143148
Flit latency average = 22.4599
	minimum = 7
	maximum = 83
Slowest flit = 143148
Fragmentation average = 0
	minimum = 0
	maximum = 0
Injected packet rate average = 0.101
	minimum = 0.078 (at node 7)
	maximum = 0.118 (at node 6)
Accepted packet rate average = 0.100562
	minimum = 0.078 (at node 15)
	maximum = 0.121 (at node 11)
Injected flit rate average = 0.101
	minimum = 0.078 (at node 7)
	maximum = 0.118 (at node 6)
Accepted flit rate average= 0.100562
	minimum = 0.078 (at node 15)
	maximum = 0.121 (at node 11)
Injected packet length average = 1
Accepted packet length average = 1
Total in-flight flits = 40 (0 measured)
latency change    = 0.0149787
throughput change = 0.0233064
Warmed up ...Time used is 3000 cycles
Class 0:
Packet latency average = 21.4854
	minimum = 7
	maximum = 58
Network latency average = 21.4835
	minimum = 7
	maximum = 58
Slowest packet = 144757
Flit latency average = 21.6015
	minimum = 7
	maximum = 58
Slowest flit = 144757
Fragmentation average = 0
	minimum = 0
	maximum = 0
Injected packet rate average = 0.100625
	minimum = 0.081 (at node 4)
	maximum = 0.119 (at node 2)
Accepted packet rate average = 0.101
	minimum = 0.085 (at node 13)
	maximum = 0.121 (at node 7)
Injected flit rate average = 0.100625
	minimum = 0.081 (at node 4)
	maximum = 0.119 (at node 2)
Accepted flit rate average= 0.101
	minimum = 0.085 (at node 13)
	maximum = 0.121 (at node 7)
Injected packet length average = 1
Accepted packet length average = 1
Total in-flight flits = 34 (34 measured)
latency change    = 0.0457906
throughput change = 0.00433168
Class 0:
Packet latency average = 21.8393
	minimum = 7
	maximum = 88
Network latency average = 21.8364
	minimum = 7
	maximum = 88
Slowest packet = 147313
Flit latency average = 21.8923
	minimum = 7
	maximum = 88
Slowest flit = 147313
Fragmentation average = 0
	minimum = 0
	maximum = 0
Injected packet rate average = 0.0986563
	minimum = 0.09 (at node 4)
	maximum = 0.108 (at node 12)
Accepted packet rate average = 0.0986563
	minimum = 0.085 (at node 13)
	maximum = 0.116 (at node 7)
[...]
	minimum = 0.091 (at node 5)
	maximum = 0.115 (at node 1)
Accepted packet rate average = 0.101187
	minimum = 0.078 (at node 8)
	maximum = 0.119 (at node 4)
Injected flit rate average = 0.101062
	minimum = 0.091 (at node 5)
	maximum = 0.115 (at node 1)
Accepted flit rate average= 0.101187
	minimum = 0.078 (at node 8)
	maximum = 0.119 (at node 4)
Injected packet length average = 1
Accepted packet length average = 1
Total in-flight flits = 37 (0 measured)
latency change    = 0.00428341
throughput change = 0.0596047
Warmed up ...Time used is 3000 cycles
Class 0:
Packet latency average = 22.0851
	minimum = 7
	maximum = 74
Network latency average = 22.0781
	minimum = 7
	maximum = 74
Slowest packet = 972170
Flit latency average = 22.1484
	minimum = 7
	maximum = 74
Slowest flit = 972170
Fragmentation average = 0
	minimum = 0
	maximum = 0
Injected packet rate average = 0.101312
	minimum = 0.086 (at node 7)
	maximum = 0.128 (at node 14)
Accepted packet rate average = 0.1015
	minimum = 0.083 (at node 1)
	maximum = 0.115 (at node 10)
Injected flit rate average = 0.101312
	minimum = 0.086 (at node 7)
	maximum = 0.128 (at node 14)
Accepted flit rate average= 0.1015
	minimum = 0.083 (at node 1)
	maximum = 0.115 (at node 10)
Injected packet length average = 1
Accepted packet length average = 1
Total in-flight flits = 34 (34 measured)
latency change    = 0.00318053
throughput change = 0.00307882
Class 0:
Packet latency average = 21.9975
	minimum = 7
	maximum = 76
Network latency average = 21.9861
	minimum = 7
	maximum = 76
Slowest packet = 974219
Flit latency average = 22.0227
	minimum = 7
	maximum = 76
Slowest flit = 974219
Fragmentation average = 0
	minimum = 0
	maximum = 0
Injected packet rate average = 0.100406
	minimum = 0.0845 (at node 2)
	maximum = 0.113 (at node 14)
Accepted packet rate average = 0.100312
	minimum = 0.088 (at node 2)
	maximum = 0.111 (at node 10)
Injected flit rate average = 0.100406
	minimum = 0.0845 (at node 2)
	maximum = 0.113 (at node 14)
Accepted flit rate average= 0.100312
	minimum = 0.088 (at node 2)
	maximum = 0.111 (at node 10)
Injected packet length average = 1
Accepted packet length average = 1
Total in-flight flits = 40 (40 measured)
latency change    = 0.0039817
throughput change = 0.011838
Class 0:
Packet latency average = 22.1816
	minimum = 7
	maximum = 76
Network latency average = 22.174
	minimum = 7
	maximum = 76
Slowest packet = 974219
Flit latency average = 22.1971
	minimum = 7
	maximum = 76
Slowest flit = 974219
Fragmentation average = 0
	minimum = 0
	maximum = 0
Injected packet rate average = 0.0997917
	minimum = 0.0896667 (at node 8)
	maximum = 0.113 (at node 14)
Accepted packet rate average = 0.1
	minimum = 0.0883333 (at node 12)
	maximum = 0.106333 (at node 10)
Injected flit rate average = 0.0997917
	minimum = 0.0896667 (at node 8)
	maximum = 0.113 (at node 14)
Accepted flit rate average= 0.1
	minimum = 0.0883333 (at node 12)
	maximum = 0.106333 (at node 10)
Injected packet length average = 1
Accepted packet length average = 1
Total in-flight flits = 27 (27 measured)
latency change    = 0.008301
throughput change = 0.003125
Draining all recorded packets ...
Draining remaining packets ...
Time taken is 6053 cycles
Class 0:
Packet latency average = 21.9909
	minimum = 7
	maximum = 71
Network latency average = 21.9896
	minimum = 7
	maximum = 71
Slowest packet = 978055
Flit latency average = 21.9896
	minimum = 7
	maximum = 71
Slowest flit = 978055
Fragmentation average = 0
	minimum = 0
	maximum = 0
Injected packet rate average = 0.0983125
	minimum = 0.081 (at node 4)
	maximum = 0.129 (at node 6)
Accepted packet rate average = 0.09575
	minimum = 0.073 (at node 0)
	maximum = 0.112 (at node 11)
Injected flit rate average = 0.0983125
	minimum = 0.081 (at node 4)
	maximum = 0.129 (at node 6)
Accepted flit rate average= 0.09575
	minimum = 0.073 (at node 0)
	maximum = 0.112 (at node 11)
Injected packet length average = 1
Accepted packet length average = 1
Total in-flight flits = 41 (0 measured)
latency change    = 1
throughput change = 1
Class 0:
Packet latency average = 21.9129
	minimum = 7
	maximum = 85
Network latency average = 21.9122
	minimum = 7
	maximum = 85
Slowest packet = 978865
Flit latency average = 21.9122
	minimum = 7
	maximum = 85
Slowest flit = 978865
Fragmentation average = 0
	minimum = 0
	maximum = 0
Injected packet rate average = 0.0965
	minimum = 0.088 (at node 1)
	maximum = 0.1055 (at node 6)
Accepted packet rate average = 0.0954375
	minimum = 0.0775 (at node 0)
	maximum = 0.1075 (at node 9)
Injected flit rate average = 0.0965
	minimum = 0.088 (at node 1)
	maximum = 0.1055 (at node 6)
Accepted flit rate average= 0.0954375
	minimum = 0.0775 (at node 0)
	maximum = 0.1075 (at node 9)
Injected packet length average = 1
Accepted packet length average = 1
Total in-flight flits = 34 (0 measured)
latency change    = 0.00355774
throughput change = 0.00327439
Class 0:
Packet latency average = 22.1282
	minimum = 7
	maximum = 73
Network latency average = 22.1269
	minimum = 7
	maximum = 73
Slowest packet = 979881
Flit latency average = 22.1269
	minimum = 7
	maximum = 73
Slowest flit = 979881
Fragmentation average = 0
	minimum = 0
	maximum = 0
Injected packet rate average = 0.100687
	minimum = 0.087 (at node 2)
	maximum = 0.122 (at node 8)
Accepted packet rate average = 0.100937
	minimum = 0.078 (at node 12)
	maximum = 0.122 (at node 14)
Injected flit rate average = 0.100687
	minimum = 0.087 (at node 2)
	maximum = 0.122 (at node 8)
Accepted flit rate average= 0.100937
	minimum = 0.078 (at node 12)
	maximum = 0.122 (at node 14)
Injected packet length average = 1
Accepted packet length average = 1
Total in-flight flits = 30 (0 measured)
latency change    = 0.00972842
throughput change = 0.0544892
Warmed up ...Time used is 3000 cycles
Class 0:
Packet latency average = 23.0224
	minimum = 7
	maximum = 94
Network latency average = 23.0166
	minimum = 7
	maximum = 94
Slowest packet = 982112
Flit latency average = 23.0263
	minimum = 7
	maximum = 94
Slowest flit = 982112
Fragmentation average = 0
	minimum = 0
	maximum = 0
Injected packet rate average = 0.1005
	minimum = 0.088 (at node 7)
	maximum = 0.12 (at node 0)
Accepted packet rate average = 0.0996875
	minimum = 0.086 (at node 7)
	maximum = 0.121 (at node 3)
Injected flit rate average = 0.1005
	minimum = 0.088 (at node 7)
	maximum = 0.12 (at node 0)
Accepted flit rate average= 0.0996875
	minimum = 0.086 (at node 7)
	maximum = 0.121 (at node 3)
Injected packet length average = 1
Accepted packet length average = 1
Total in-flight flits = 43 (43 measured)
latency change    = 0.0388401
throughput change = 0.0125392
Class 0:
Packet latency average = 22.5545
	minimum = 7
	maximum = 94
Network latency average = 22.5458
	minimum = 7
	maximum = 94
Slowest packet = 982112
Flit latency average = 22.5549
	minimum = 7
	maximum = 94
Slowest flit = 982112
Fragmentation average = 0
	minimum = 0
	maximum = 0
Injected packet rate average = 0.101187
	minimum = 0.091 (at node 11)
	maximum = 0.1135 (at node 3)
Accepted packet rate average = 0.100969
	minimum = 0.0855 (at node 7)
	maximum = 0.1135 (at node 3)
Injected flit rate average = 0.101187
	minimum = 0.091 (at node 11)
	maximum = 0.1135 (at node 3)
Accepted flit rate average= 0.100969
	minimum = 0.0855 (at node 7)
	maximum = 0.1135 (at node 3)
Injected packet length average = 1
Accepted packet length average = 1
Total in-flight flits = 37 (37 measured)
latency change    = 0.0207431
throughput change = 0.0126896
Class 0:
Packet latency average = 22.2539
	minimum = 7
	maximum = 94
Network latency average = 22.2454
	minimum = 7
	maximum = 94
Slowest packet = 982112
Flit latency average = 22.2534
	minimum = 7
	maximum = 94
Slowest flit = 982112
Fragmentation average = 0
	minimum = 0
	maximum = 0
Injected packet rate average = 0.101062
	minimum = 0.094 (at node 5)
	maximum = 0.111 (at node 3)
Accepted packet rate average = 0.100875
	minimum = 0.0913333 (at node 15)
	maximum = 0.108333 (at node 3)
Injected flit rate average = 0.101062
	minimum = 0.094 (at node 5)
	maximum = 0.111 (at node 3)
Accepted flit rate average= 0.100875
	minimum = 0.0913333 (at node 15)
	maximum = 0.108333 (at node 3)
Injected packet length average = 1
Accepted packet length average = 1
Total in-flight flits = 39 (39 measured)
latency change    = 0.0135062
throughput change = 0.000929368
Draining all recorded packets ...
Draining remaining packets ...
Time taken is 6083 cycles
Class 0:
Packet latency average = 22.0432
	minimum = 7
	maximum = 77
Network latency average = 22.0353
	minimum = 7
	maximum = 77
Slowest packet = 986681
Flit latency average = 22.0353
	minimum = 7
	maximum = 77
Slowest flit = 986681
Fragmentation average = 0
	minimum = 0
	maximum = 0
Injected packet rate average = 0.0976875
	minimum = 0.083 (at node 15)
	maximum = 0.112 (at node 13)
Accepted packet rate average = 0.0955625
	minimum = 0.082 (at node 13)
	maximum = 0.12 (at node 4)
Injected flit rate average = 0.0976875
	minimum = 0.083 (at node 15)
	maximum = 0.112 (at node 13)
Accepted flit rate average= 0.0955625
	minimum = 0.082 (at node 13)
	maximum = 0.12 (at node 4)
Injected packet length average = 1
Accepted packet length average = 1
Total in-flight flits = 34 (0 measured)
latency change    = 1
throughput change = 1
Class 0:
Packet latency average = 22.0866
	minimum = 7
	maximum = 81
Network latency average = 22.0803
	minimum = 7
	maximum = 81
Slowest packet = 988059
Flit latency average = 22.0803
	minimum = 7
	maximum = 81
Slowest flit = 988059
Fragmentation average = 0
	minimum = 0
	maximum = 0
Injected packet rate average = 0.100094
	minimum = 0.0875 (at node 3)
	maximum = 0.1105 (at node 7)
Accepted packet rate average = 0.0992187
	minimum = 0.089 (at node 2)
	maximum = 0.108 (at node 10)
Injected flit rate average = 0.100094
	minimum = 0.0875 (at node 3)
	maximum = 0.1105 (at node 7)
Accepted flit rate average= 0.0992187
	minimum = 0.089 (at node 2)
	maximum = 0.108 (at node 10)
Injected packet length average = 1
Accepted packet length average = 1
Total in-flight flits = 28 (0 measured)
latency change    = 0.0019672
throughput change = 0.0368504
Class 0:
Packet latency average = 21.8159
	minimum = 7
	maximum = 63
Network latency average = 21.8153
	minimum = 7
	maximum = 63
Slowest packet = 990083
Flit latency average = 21.8153
	minimum = 7
	maximum = 63
Slowest flit = 990083
Fragmentation average = 0
	minimum = 0
	maximum = 0
Injected packet rate average = 0.1005
	minimum = 0.088 (at node 0)
	maximum = 0.116 (at node 3)
Accepted packet rate average = 0.0998125
	minimum = 0.087 (at node 4)
	maximum = 0.118 (at node 15)
Injected flit rate average = 0.1005
	minimum = 0.088 (at node 0)
	maximum = 0.116 (at node 3)
Accepted flit rate average= 0.0998125
	minimum = 0.087 (at node 4)
	maximum = 0.118 (at node 15)
Injected packet length average = 1
Accepted packet length average = 1
Total in-flight flits = 40 (0 measured)
latency change    = 0.0124088
throughput change = 0.00594865
Warmed up ...Time used is 3000 cycles
Class 0:
Packet latency average = 21.7358
	minimum = 7
	maximum = 62
Network latency average = 21.7129
	minimum = 7
	maximum = 62
Slowest packet = 992552
Flit latency average = 21.9143
	minimum = 7
	maximum = 62
Slowest flit = 992552
Fragmentation average = 0
	minimum = 0
	maximum = 0
Injected packet rate average = 0.1
	minimum = 0.09 (at node 0)
	maximum = 0.119 (at node 11)
Accepted packet rate average = 0.100687
	minimum = 0.08 (at node 0)
	maximum = 0.119 (at node 15)
Injected flit rate average = 0.1
	minimum = 0.09 (at node 0)
	maximum = 0.119 (at node 11)
Accepted flit rate average= 0.100687
	minimum = 0.08 (at node 0)
	maximum = 0.119 (at node 15)
Injected packet length average = 1
Accepted packet length average = 1
Total in-flight flits = 28 (28 measured)
latency change    = 0.00368368
throughput change = 0.00869025
Class 0:
Packet latency average = 21.7854
	minimum = 7
	maximum = 78
Network latency average = 21.7734
	minimum = 7
	maximum = 78
Slowest packet = 994171
Flit latency average = 21.8735
	minimum = 7
	maximum = 78
Slowest flit = 994171
Fragmentation average = 0
	minimum = 0
	maximum = 0
Injected packet rate average = 0.100375
	minimum = 0.092 (at node 0)
	maximum = 0.1185 (at node 3)
Accepted packet rate average = 0.100562
	minimum = 0.088 (at node 0)
	maximum = 0.111 (at node 1)
Injected flit rate average = 0.100375
	minimum = 0.092 (at node 0)
	maximum = 0.1185 (at node 3)
Accepted flit rate average= 0.100562
	minimum = 0.088 (at node 0)
	maximum = 0.111 (at node 1)
Injected packet length average = 1
Accepted packet length average = 1
Total in-flight flits = 33 (33 measured)
latency change    = 0.00227504
throughput change = 0.00124301
Class 0:
Packet latency average = 21.8228
	minimum = 7
	maximum = 78
Network latency average = 21.8142
	minimum = 7
	maximum = 78
Slowest packet = 994171
Flit latency average = 21.8811
	minimum = 7
	maximum = 78
Slowest flit = 994171
Fragmentation average = 0
	minimum = 0
	maximum = 0
Injected packet rate average = 0.0999375
	minimum = 0.0916667 (at node 7)
	maximum = 0.109667 (at node 3)
Accepted packet rate average = 0.0998333
	minimum = 0.088 (at node 0)
	maximum = 0.11 (at node 14)
Injected flit rate average = 0.0999375
	minimum = 0.0916667 (at node 7)
	maximum = 0.109667 (at node 3)
Accepted flit rate average= 0.0998333
	minimum = 0.088 (at node 0)
	maximum = 0.11 (at node 14)
Injected packet length average = 1
Accepted packet length average = 1
Total in-flight flits = 44 (44 measured)
latency change    = 0.00171434
throughput change = 0.00730384
Draining all recorded packets ...
Draining remaining packets ...
Time taken is 6091 cycles
Class 0:
Packet latency average = 21.6816
	minimum = 7
	maximum = 66
Network latency average = 21.6783
	minimum = 7
	maximum = 66
Slowest packet = 996431
Flit latency average = 21.6783
	minimum = 7
	maximum = 66
Slowest flit = 996431
Fragmentation average = 0
	minimum = 0
	maximum = 0
Injected packet rate average = 0.0970625
	minimum = 0.079 (at node 11)
	maximum = 0.111 (at node 1)
Accepted packet rate average = 0.095
	minimum = 0.079 (at node 12)
	maximum = 0.109 (at node 6)
Injected flit rate average = 0.0970625
	minimum = 0.079 (at node 11)
	maximum = 0.111 (at node 1)
Accepted flit rate average= 0.095
	minimum = 0.079 (at node 12)
	maximum = 0.109 (at node 6)
Injected packet length average = 1
Accepted packet length average = 1
Total in-flight flits = 33 (0 measured)
latency change    = 1
throughput change = 1
Class 0:
Packet latency average = 21.5732
	minimum = 7
	maximum = 66
Network latency average = 21.569
	minimum = 7
	maximum = 66
Slowest packet = 996431
Flit latency average = 21.569
	minimum = 7
	maximum = 66
Slowest flit = 996431
Fragmentation average = 0
	minimum = 0
	maximum = 0
Injected packet rate average = 0.0979375
	minimum = 0.089 (at node 14)
	maximum = 0.108 (at node 13)
Accepted packet rate average = 0.0966562
	minimum = 0.0865 (at node 12)
	maximum = 0.112 (at node 8)
Injected flit rate average = 0.0979375
	minimum = 0.089 (at node 14)
	maximum = 0.108 (at node 13)
Accepted flit rate average= 0.0966562
	minimum = 0.0865 (at node 12)
	maximum = 0.112 (at node 8)
Injected packet length average = 1
Accepted packet length average = 1
Total in-flight flits = 41 (0 measured)
latency change    = 0.00502239
throughput change = 0.0171355
Class 0:
Packet latency average = 22.9007
	minimum = 7
	maximum = 67
Network latency average = 22.9007
	minimum = 7
	maximum = 67
Slowest packet = 1000085
Flit latency average = 22.9007
	minimum = 7
	maximum = 67
Slowest flit = 1000085
Fragmentation average = 0
	minimum = 0
	maximum = 0
Injected packet rate average = 0.099
	minimum = 0.086 (at node 4)
	maximum = 0.114 (at node 12)
Accepted packet rate average = 0.100125
	minimum = 0.087 (at node 12)
	maximum = 0.114 (at node 10)
Injected flit rate average = 0.099
	minimum = 0.086 (at node 4)
	maximum = 0.114 (at node 12)
Accepted flit rate average= 0.100125
	minimum = 0.087 (at node 12)
	maximum = 0.114 (at node 10)
Injected packet length average = 1
Accepted packet length average = 1
Total in-flight flits = 23 (0 measured)
latency change    = 0.0579684
throughput change = 0.0346442
Warmed up ...Time used is 3000 cycles
Class 0:
Packet latency average = 22.1762
	minimum = 7
	maximum = 82
Network latency average = 22.1742
	minimum = 7
	maximum = 82
Slowest packet = 1001486
Flit latency average = 22.2443
	minimum = 7
	maximum = 82
Slowest flit = 1001486
Fragmentation average = 0
	minimum = 0
	maximum = 0
Injected packet rate average = 0.100062
	minimum = 0.086 (at node 4)
	maximum = 0.116 (at node 8)
Accepted packet rate average = 0.099
	minimum = 0.083 (at node 2)
	maximum = 0.112 (at node 11)
Injected flit rate average = 0.100062
	minimum = 0.086 (at node 4)
	maximum = 0.116 (at node 8)
Accepted flit rate average= 0.099
	minimum = 0.083 (at node 2)
	maximum = 0.112 (at node 11)
Injected packet length average = 1
Accepted packet length average = 1
Total in-flight flits = 40 (40 measured)
latency change    = 0.0326738
throughput change = 0.0113636
Class 0:
Packet latency average = 22.6785
	minimum = 7
	maximum = 142
Network latency average = 22.6426
	minimum = 7
	maximum = 142
Slowest packet = 1002305
Flit latency average = 22.6742
	minimum = 7
	maximum = 142
Slowest flit = 1002305
Fragmentation average = 0
	minimum = 0
	maximum = 0
Injected packet rate average = 0.0994687
	minimum = 0.091 (at node 2)
	maximum = 0.108 (at node 8)
Accepted packet rate average = 0.0990937
	minimum = 0.0905 (at node 8)
	maximum = 0.1085 (at node 9)
Injected flit rate average = 0.0994687
	minimum = 0.091 (at node 2)
	maximum = 0.108 (at node 8)
Accepted flit rate average= 0.0990937
	minimum = 0.0905 (at node 8)
	maximum = 0.1085 (at node 9)
Injected packet length average = 1
Accepted packet length average = 1
Total in-flight flits = 35 (35 measured)
latency change    = 0.0221512
throughput change = 0.000946074
Class 0:
Packet latency average = 22.4319
	minimum = 7
	maximum = 142
Network latency average = 22.4079
	minimum = 7
	maximum = 142
Slowest packet = 1002305
Flit latency average = 22.4301
	minimum = 7
	maximum = 142
Slowest flit = 1002305
Fragmentation average = 0
	minimum = 0
	maximum = 0
Injected packet rate average = 0.0996458
	minimum = 0.094 (at node 10)
	maximum = 0.104667 (at node 3)
Accepted packet rate average = 0.0992083
	minimum = 0.0923333 (at node 5)
	maximum = 0.105333 (at node 10)
Injected flit rate average = 0.0996458
	minimum = 0.094 (at node 10)
	maximum = 0.104667 (at node 3)
Accepted flit rate average= 0.0992083
	minimum = 0.0923333 (at node 5)
	maximum = 0.105333 (at node 10)
Injected packet length average = 1
Accepted packet length average = 1
Total in-flight flits = 44 (44 measured)
latency change    = 0.0109923
throughput change = 0.00115498
Draining all recorded packets ...
Draining remaining packets ...
Time taken is 6083 cycles
====== Overall Traffic Statistics ======
====== Traffic class 0 ======
Packet latency average = 22.3268 (100 samples)
	minimum = 7 (100 samples)
	maximum = 90.85 (100 samples)
Network latency average = 22.3141 (100 samples)
	minimum = 7 (100 samples)
	maximum = 90.52 (100 samples)
Flit latency average = 22.3433 (100 samples)
	minimum = 7 (100 samples)
	maximum = 91.15 (100 samples)
Fragmentation average = 0 (100 samples)
	minimum = 0 (100 samples)
	maximum = 0 (100 samples)
Injected packet rate average = 0.100116 (100 samples)
	minimum = 0.0910362 (100 samples)
	maximum = 0.109585 (100 samples)
Accepted packet rate average = 0.10009 (100 samples)
	minimum = 0.0902015 (100 samples)
	maximum = 0.109751 (100 samples)
Injected flit rate average = 0.100116 (100 samples)
	minimum = 0.0910362 (100 samples)
	maximum = 0.109585 (100 samples)
Accepted flit rate average = 0.10009 (100 samples)
	minimum = 0.0902015 (100 samples)
	maximum = 0.109751 (100 samples)
Injected packet size average = 1 (100 samples)
Accepted packet size average = 1 (100 samples)
Hops average = 3.49934 (100 samples)
Total run time 45.1535
