BEGIN Configuration File: /tmp/tmpglb33gst.cfg
topology = mesh;
k = 8; n = 2;
routing_function = dor;
num_vcs = 4; vc_buf_size = 4;
wait_for_tail_credit = 1;
vc_allocator = islip; sw_allocator = islip;
alloc_iters = 1;
credit_delay = 2; routing_delay = 1;
vc_alloc_delay = 1; sw_alloc_delay = 1;
input_speedup = 2; output_speedup = 1; internal_speedup = 1.0;
traffic = uniform;
packet_size = 1; sim_type = latency;
injection_rate = 0.01;
warmup_periods = 3; sample_period = 1000; sim_count = 100;
seed = 2;

END Configuration File: /tmp/tmpglb33gst.cfg
Class 0:
Packet latency average = 32.2204
	minimum = 7
	maximum = 77
Network latency average = 32.2204
	minimum = 7
	maximum = 77
Slowest packet = 570
Flit latency average = 32.2204
	minimum = 7
	maximum = 77
Slowest flit = 570
Fragmentation average = 0
	minimum = 0
	maximum = 0
Injected packet rate average = 0.00982813
	minimum = 0.003 (at node 2)
	maximum = 0.017 (at node 0)
Accepted packet rate average = 0.00935937
	minimum = 0.004 (at node 18)
	maximum = 0.016 (at node 33)
Injected flit rate average = 0.00982813
	minimum = 0.003 (at node 2)
	maximum = 0.017 (at node 0)
Accepted flit rate average= 0.00935937
	minimum = 0.004 (at node 18)
	maximum = 0.016 (at node 33)
Injected packet length average = 1
Accepted packet length average = 1
Total in-flight flits = 30 (0 measured)
latency change    = 1
throughput change = 1
Class 0:
Packet latency average = 33.326
	minimum = 7
	maximum = 77
Network latency average = 33.326
	minimum = 7
	maximum = 77
Slowest packet = 570
Flit latency average = 33.326
	minimum = 7
	maximum = 77
Slowest flit = 570
Fragmentation average = 0
	minimum = 0
	maximum = 0
Injected packet rate average = 0.0100078
	minimum = 0.0045 (at node 40)
	maximum = 0.015 (at node 3)
Accepted packet rate average = 0.00989844
	minimum = 0.006 (at node 2)
	maximum = 0.016 (at node 33)
Injected flit rate average = 0.0100078
	minimum = 0.0045 (at node 40)
	maximum = 0.015 (at node 3)
Accepted flit rate average= 0.00989844
	minimum = 0.006 (at node 2)
	maximum = 0.016 (at node 33)
Injected packet length average = 1
Accepted packet length average = 1
Total in-flight flits = 14 (0 measured)
latency change    = 0.0331753
throughput change = 0.0544594
Class 0:
Packet latency average = 33.8415
	minimum = 7
	maximum = 72
Network latency average = 33.8415
	minimum = 7
	maximum = 72
Slowest packet = 1293
Flit latency average = 33.8415
	minimum = 7
	maximum = 72
Slowest flit = 1293
Fragmentation average = 0
	minimum = 0
	maximum = 0
Injected packet rate average = 0.0110312
	minimum = 0.002 (at node 41)
	maximum = 0.018 (at node 32)
Accepted packet rate average = 0.0108437
	minimum = 0.005 (at node 1)
	maximum = 0.018 (at node 26)
Injected flit rate average = 0.0110312
	minimum = 0.002 (at node 41)
	maximum = 0.018 (at node 32)
Accepted flit rate average= 0.0108437
	minimum = 0.005 (at node 1)
	maximum = 0.018 (at node 26)
Injected packet length average = 1
Accepted packet length average = 1
Total in-flight flits = 26 (0 measured)
latency change    = 0.0152337
throughput change = 0.0871758
Warmed up ...Time used is 3000 cycles
Class 0:
Packet latency average = 32.6576
	minimum = 7
	maximum = 77
Network latency average = 32.6576
	minimum = 7
	maximum = 77
Slowest packet = 2540
Flit latency average = 33.0108
	minimum = 7
	maximum = 77
Slowest flit = 2540
Fragmentation average = 0
	minimum = 0
	maximum = 0
Injected packet rate average = 0.0100625
	minimum = 0.002 (at node 38)
	maximum = 0.019 (at node 5)
Accepted packet rate average = 0.010125
	minimum = 0.002 (at node 1)
	maximum = 0.018 (at node 15)
Injected flit rate average = 0.0100625
	minimum = 0.002 (at node 38)
	maximum = 0.019 (at node 5)
Accepted flit rate average= 0.010125
	minimum = 0.002 (at node 1)
	maximum = 0.018 (at node 15)
Injected packet length average = 1
Accepted packet length average = 1
Total in-flight flits = 22 (22 measured)
latency change    = 0.0362532
throughput change = 0.0709877
Class 0:
Packet latency average = 33.1012
	minimum = 7
	maximum = 77
Network latency average = 33.1012
	minimum = 7
	maximum = 77
Slowest packet = 2540
Flit latency average = 33.2776
	minimum = 7
	maximum = 77
Slowest flit = 2540
Fragmentation average = 0
	minimum = 0
	maximum = 0
Injected packet rate average = 0.00961719
	minimum = 0.0035 (at node 38)
	maximum = 0.0145 (at node 6)
Accepted packet rate average = 0.009625
	minimum = 0.005 (at node 50)
	maximum = 0.0145 (at node 11)
Injected flit rate average = 0.00961719
	minimum = 0.0035 (at node 38)
	maximum = 0.0145 (at node 6)
Accepted flit rate average= 0.009625
	minimum = 0.005 (at node 50)
	maximum = 0.0145 (at node 11)
Injected packet length average = 1
Accepted packet length average = 1
Total in-flight flits = 25 (25 measured)
latency change    = 0.0134015
throughput change = 0.0519481
Class 0:
Packet latency average = 33.0605
	minimum = 7
	maximum = 77
Network latency average = 33.0605
	minimum = 7
	maximum = 77
Slowest packet = 2540
Flit latency average = 33.1758
	minimum = 7
	maximum = 77
Slowest flit = 2540
Fragmentation average = 0
	minimum = 0
	maximum = 0
Injected packet rate average = 0.0098125
	minimum = 0.00533333 (at node 38)
	maximum = 0.0146667 (at node 44)
Accepted packet rate average = 0.00986458
	minimum = 0.00633333 (at node 9)
	maximum = 0.0153333 (at node 11)
Injected flit rate average = 0.0098125
	minimum = 0.00533333 (at node 38)
	maximum = 0.0146667 (at node 44)
Accepted flit rate average= 0.00986458
	minimum = 0.00633333 (at node 9)
	maximum = 0.0153333 (at node 11)
Injected packet length average = 1
Accepted packet length average = 1
Total in-flight flits = 16 (16 measured)
latency change    = 0.00123012
throughput change = 0.0242872
Class 0:
Packet latency average = 33.2183
	minimum = 7
	maximum = 77
Network latency average = 33.2183
	minimum = 7
	maximum = 77
Slowest packet = 2540
Flit latency average = 33.3029
	minimum = 7
	maximum = 77
Slowest flit = 2540
Fragmentation average = 0
	minimum = 0
	maximum = 0
Injected packet rate average = 0.00988672
	minimum = 0.00625 (at node 38)
	maximum = 0.014 (at node 61)
Accepted packet rate average = 0.00989063
	minimum = 0.00575 (at node 12)
	maximum = 0.0145 (at node 11)
Injected flit rate average = 0.00988672
	minimum = 0.00625 (at node 38)
	maximum = 0.014 (at node 61)
Accepted flit rate average= 0.00989063
	minimum = 0.00575 (at node 12)
	maximum = 0.0145 (at node 11)
Injected packet length average = 1
Accepted packet length average = 1
Total in-flight flits = 25 (25 measured)
latency change    = 0.0047499
throughput change = 0.00263296
Class 0:
Packet latency average = 33.1755
	minimum = 7
	maximum = 77
Network latency average = 33.1755
	minimum = 7
	maximum = 77
Slowest packet = 2540
Flit latency average = 33.2432
	minimum = 7
	maximum = 77
Slowest flit = 2540
Fragmentation average = 0
	minimum = 0
	maximum = 0
Injected packet rate average = 0.00992812
	minimum = 0.0064 (at node 38)
	maximum = 0.0134 (at node 61)
Accepted packet rate average = 0.00994688
	minimum = 0.0064 (at node 12)
	maximum = 0.0138 (at node 32)
Injected flit rate average = 0.00992812
	minimum = 0.0064 (at node 38)
	maximum = 0.0134 (at node 61)
Accepted flit rate average= 0.00994688
	minimum = 0.0064 (at node 12)
	maximum = 0.0138 (at node 32)
Injected packet length average = 1
Accepted packet length average = 1
Total in-flight flits = 20 (20 measured)
latency change    = 0.0012899
throughput change = 0.00565504
Draining all recorded packets ...
Draining remaining packets ...
Time taken is 8125 cycles
Class 0:
Packet latency average = 32.8366
	minimum = 7
	maximum = 77
Network latency average = 32.8366
	minimum = 7
	maximum = 77
Slowest packet = 5223
Flit latency average = 32.8366
	minimum = 7
	maximum = 77
Slowest flit = 5223
Fragmentation average = 0
	minimum = 0
	maximum = 0
Injected packet rate average = 0.00975
	minimum = 0.004 (at node 15)
	maximum = 0.02 (at node 55)
Accepted packet rate average = 0.00946875
	minimum = 0.002 (at node 31)
	maximum = 0.02 (at node 15)
Injected flit rate average = 0.00975
	minimum = 0.004 (at node 15)
	maximum = 0.02 (at node 55)
Accepted flit rate average= 0.00946875
	minimum = 0.002 (at node 31)
	maximum = 0.02 (at node 15)
Injected packet length average = 1
Accepted packet length average = 1
Total in-flight flits = 18 (0 measured)
latency change    = 1
throughput change = 1
Class 0:
Packet latency average = 32.7689
	minimum = 7
	maximum = 77
Network latency average = 32.7689
	minimum = 7
	maximum = 77
Slowest packet = 5223
Flit latency average = 32.7689
	minimum = 7
	maximum = 77
Slowest flit = 5223
Fragmentation average = 0
	minimum = 0
	maximum = 0
Injected packet rate average = 0.009625
	minimum = 0.0055 (at node 15)
	maximum = 0.019 (at node 55)
Accepted packet rate average = 0.0095
	minimum = 0.0045 (at node 31)
	maximum = 0.0155 (at node 15)
Injected flit rate average = 0.009625
	minimum = 0.0055 (at node 15)
	maximum = 0.019 (at node 55)
Accepted flit rate average= 0.0095
	minimum = 0.0045 (at node 31)
	maximum = 0.0155 (at node 15)
Injected packet length average = 1
Accepted packet length average = 1
Total in-flight flits = 16 (0 measured)
latency change    = 0.00206657
throughput change = 0.00328947
Class 0:
Packet latency average = 33.8532
	minimum = 7
	maximum = 72
Network latency average = 33.8532
	minimum = 7
	maximum = 72
Slowest packet = 6442
Flit latency average = 33.8532
	minimum = 7
	maximum = 72
Slowest flit = 6442
Fragmentation average = 0
	minimum = 0
	maximum = 0
Injected packet rate average = 0.00971875
	minimum = 0.003 (at node 43)
	maximum = 0.022 (at node 4)
Accepted packet rate average = 0.00957812
	minimum = 0.004 (at node 10)
	maximum = 0.019 (at node 19)
Injected flit rate average = 0.00971875
	minimum = 0.003 (at node 43)
	maximum = 0.022 (at node 4)
Accepted flit rate average= 0.00957812
	minimum = 0.004 (at node 10)
	maximum = 0.019 (at node 19)
Injected packet length average = 1
Accepted packet length average = 1
Total in-flight flits = 25 (0 measured)
latency change    = 0.0320285
throughput change = 0.00815661
Warmed up ...Time used is 3000 cycles
Class 0:
Packet latency average = 34.1015
	minimum = 7
	maximum = 72
Network latency average = 34.1015
	minimum = 7
	maximum = 72
Slowest packet = 7620
Flit latency average = 34.5067
	minimum = 7
	maximum = 77
Slowest flit = 7038
Fragmentation average = 0
	minimum = 0
	maximum = 0
Injected packet rate average = 0.0105156
	minimum = 0.005 (at node 56)
	maximum = 0.017 (at node 35)
Accepted packet rate average = 0.0105469
	minimum = 0.003 (at node 45)
	maximum = 0.021 (at node 18)
Injected flit rate average = 0.0105156
	minimum = 0.005 (at node 56)
	maximum = 0.017 (at node 35)
Accepted flit rate average= 0.0105469
	minimum = 0.003 (at node 45)
	maximum = 0.021 (at node 18)
Injected packet length average = 1
Accepted packet length average = 1
Total in-flight flits = 23 (23 measured)
latency change    = 0.00728288
throughput change = 0.0918519
Class 0:
Packet latency average = 34.0773
	minimum = 7
	maximum = 72
Network latency average = 34.0773
	minimum = 7
	maximum = 72
Slowest packet = 7620
Flit latency average = 34.2851
	minimum = 7
	maximum = 77
Slowest flit = 7038
Fragmentation average = 0
	minimum = 0
	maximum = 0
Injected packet rate average = 0.0102656
	minimum = 0.005 (at node 25)
	maximum = 0.014 (at node 1)
Accepted packet rate average = 0.0103047
	minimum = 0.006 (at node 13)
	maximum = 0.016 (at node 18)
Injected flit rate average = 0.0102656
	minimum = 0.005 (at node 25)
	maximum = 0.014 (at node 1)
Accepted flit rate average= 0.0103047
	minimum = 0.006 (at node 13)
	maximum = 0.016 (at node 18)
Injected packet length average = 1
Accepted packet length average = 1
Total in-flight flits = 20 (20 measured)
latency change    = 0.000711873
throughput change = 0.0235027
Class 0:
Packet latency average = 33.7005
	minimum = 7
	maximum = 77
Network latency average = 33.7005
	minimum = 7
	maximum = 77
Slowest packet = 8708
Flit latency average = 33.8453
	minimum = 7
	maximum = 77
Slowest flit = 7038
Fragmentation average = 0
	minimum = 0
	maximum = 0
Injected packet rate average = 0.0101875
	minimum = 0.005 (at node 25)
	maximum = 0.014 (at node 24)
Accepted packet rate average = 0.0101979
	minimum = 0.00666667 (at node 3)
	maximum = 0.014 (at node 10)
Injected flit rate average = 0.0101875
	minimum = 0.005 (at node 25)
	maximum = 0.014 (at node 24)
Accepted flit rate average= 0.0101979
	minimum = 0.00666667 (at node 3)
	maximum = 0.014 (at node 10)
Injected packet length average = 1
Accepted packet length average = 1
Total in-flight flits = 23 (23 measured)
latency change    = 0.0111813
throughput change = 0.0104699
Class 0:
Packet latency average = 33.6222
	minimum = 7
	maximum = 77
Network latency average = 33.6222
	minimum = 7
	maximum = 77
Slowest packet = 8708
Flit latency average = 33.7306
	minimum = 7
	maximum = 77
Slowest flit = 7038
Fragmentation average = 0
	minimum = 0
	maximum = 0
Injected packet rate average = 0.0102383
	minimum = 0.007 (at node 23)
	maximum = 0.0145 (at node 24)
Accepted packet rate average = 0.0102813
	minimum = 0.00775 (at node 56)
	maximum = 0.0145 (at node 18)
Injected flit rate average = 0.0102383
	minimum = 0.007 (at node 23)
	maximum = 0.0145 (at node 24)
Accepted flit rate average= 0.0102813
	minimum = 0.00775 (at node 56)
	maximum = 0.0145 (at node 18)
Injected packet length average = 1
Accepted packet length average = 1
Total in-flight flits = 14 (14 measured)
latency change    = 0.00232866
throughput change = 0.00810537
Draining all recorded packets ...
Draining remaining packets ...
Time taken is 7095 cycles
Class 0:
Packet latency average = 33.4976
	minimum = 7
	maximum = 72
Network latency average = 33.4976
	minimum = 7
	maximum = 72
Slowest packet = 9830
Flit latency average = 33.4976
	minimum = 7
	maximum = 72
Slowest flit = 9830
Fragmentation average = 0
	minimum = 0
	maximum = 0
Injected packet rate average = 0.0100625
	minimum = 0.003 (at node 32)
	maximum = 0.017 (at node 8)
Accepted packet rate average = 0.00964062
	minimum = 0.003 (at node 63)
	maximum = 0.017 (at node 10)
Injected flit rate average = 0.0100625
	minimum = 0.003 (at node 32)
	maximum = 0.017 (at node 8)
Accepted flit rate average= 0.00964062
	minimum = 0.003 (at node 63)
	maximum = 0.017 (at node 10)
Injected packet length average = 1
Accepted packet length average = 1
Total in-flight flits = 27 (0 measured)
latency change    = 1
throughput change = 1
Class 0:
Packet latency average = 33.362
	minimum = 7
	maximum = 77
Network latency average = 33.362
	minimum = 7
	maximum = 77
Slowest packet = 10352
Flit latency average = 33.362
	minimum = 7
	maximum = 77
Slowest flit = 10352
Fragmentation average = 0
	minimum = 0
	maximum = 0
Injected packet rate average = 0.0101563
	minimum = 0.0055 (at node 28)
	maximum = 0.015 (at node 27)
Accepted packet rate average = 0.00999219
	minimum = 0.007 (at node 0)
	maximum = 0.016 (at node 57)
Injected flit rate average = 0.0101563
	minimum = 0.0055 (at node 28)
	maximum = 0.015 (at node 27)
Accepted flit rate average= 0.00999219
	minimum = 0.007 (at node 0)
	maximum = 0.016 (at node 57)
Injected packet length average = 1
Accepted packet length average = 1
Total in-flight flits = 21 (0 measured)
latency change    = 0.00406352
throughput change = 0.0351837
Class 0:
Packet latency average = 33.643
	minimum = 7
	maximum = 72
Network latency average = 33.643
	minimum = 7
	maximum = 72
Slowest packet = 11405
Flit latency average = 33.643
	minimum = 7
	maximum = 72
Slowest flit = 11405
Fragmentation average = 0
	minimum = 0
	maximum = 0
Injected packet rate average = 0.0101563
	minimum = 0.003 (at node 44)
	maximum = 0.018 (at node 8)
Accepted packet rate average = 0.0101094
	minimum = 0.003 (at node 23)
	maximum = 0.016 (at node 45)
Injected flit rate average = 0.0101563
	minimum = 0.003 (at node 44)
	maximum = 0.018 (at node 8)
Accepted flit rate average= 0.0101094
	minimum = 0.003 (at node 23)
	maximum = 0.016 (at node 45)
Injected packet length average = 1
Accepted packet length average = 1
Total in-flight flits = 24 (0 measured)
latency change    = 0.0083514
throughput change = 0.011592
Warmed up ...Time used is 3000 cycles
Class 0:
Packet latency average = 33.5789
	minimum = 7
	maximum = 77
Network latency average = 33.5789
	minimum = 7
	maximum = 77
Slowest packet = 12195
Flit latency average = 33.9499
	minimum = 7
	maximum = 77
Slowest flit = 11605
Fragmentation average = 0
	minimum = 0
	maximum = 0
Injected packet rate average = 0.00998438
	minimum = 0.003 (at node 9)
	maximum = 0.016 (at node 0)
Accepted packet rate average = 0.00998438
	minimum = 0.004 (at node 1)
	maximum = 0.024 (at node 63)
Injected flit rate average = 0.00998438
	minimum = 0.003 (at node 9)
	maximum = 0.016 (at node 0)
Accepted flit rate average= 0.00998438
	minimum = 0.004 (at node 1)
	maximum = 0.024 (at node 63)
Injected packet length average = 1
Accepted packet length average = 1
Total in-flight flits = 24 (24 measured)
latency change    = 0.00190911
throughput change = 0.0125196
Class 0:
Packet latency average = 33.691
	minimum = 7
	maximum = 77
Network latency average = 33.691
	minimum = 7
	maximum = 77
Slowest packet = 12195
Flit latency average = 33.8737
	minimum = 7
	maximum = 77
Slowest flit = 11605
Fragmentation average = 0
	minimum = 0
	maximum = 0
Injected packet rate average = 0.01
	minimum = 0.005 (at node 9)
	maximum = 0.0155 (at node 50)
Accepted packet rate average = 0.0100234
	minimum = 0.005 (at node 15)
	maximum = 0.0165 (at node 63)
Injected flit rate average = 0.01
	minimum = 0.005 (at node 9)
	maximum = 0.0155 (at node 50)
Accepted flit rate average= 0.0100234
	minimum = 0.005 (at node 15)
	maximum = 0.0165 (at node 63)
Injected packet length average = 1
Accepted packet length average = 1
Total in-flight flits = 21 (21 measured)
latency change    = 0.00332916
throughput change = 0.00389712
Class 0:
Packet latency average = 34.0623
	minimum = 7
	maximum = 77
Network latency average = 34.0623
	minimum = 7
	maximum = 77
Slowest packet = 12195
Flit latency average = 34.1799
	minimum = 7
	maximum = 77
Slowest flit = 11605
Fragmentation average = 0
	minimum = 0
	maximum = 0
Injected packet rate average = 0.00998438
	minimum = 0.00633333 (at node 47)
	maximum = 0.0143333 (at node 17)
Accepted packet rate average = 0.00998958
	minimum = 0.006 (at node 15)
	maximum = 0.0136667 (at node 63)
Injected flit rate average = 0.00998438
	minimum = 0.00633333 (at node 47)
	maximum = 0.0143333 (at node 17)
Accepted flit rate average= 0.00998958
	minimum = 0.006 (at node 15)
	maximum = 0.0136667 (at node 63)
Injected packet length average = 1
Accepted packet length average = 1
Total in-flight flits = 23 (23 measured)
latency change    = 0.0108999
throughput change = 0.00338895
Draining all recorded packets ...
Draining remaining packets ...
Time taken is 6099 cycles
Class 0:
Packet latency average = 32.4054
	minimum = 7
	maximum = 77
Network latency average = 32.4054
	minimum = 7
	maximum = 77
Slowest packet = 13923
Flit latency average = 32.4054
	minimum = 7
	maximum = 77
Slowest flit = 13923
Fragmentation average = 0
	minimum = 0
	maximum = 0
Injected packet rate average = 0.0101563
	minimum = 0.004 (at node 10)
	maximum = 0.019 (at node 5)
Accepted packet rate average = 0.00990625
	minimum = 0.005 (at node 6)
	maximum = 0.017 (at node 3)
Injected flit rate average = 0.0101563
	minimum = 0.004 (at node 10)
	maximum = 0.019 (at node 5)
Accepted flit rate average= 0.00990625
	minimum = 0.005 (at node 6)
	maximum = 0.017 (at node 3)
Injected packet length average = 1
Accepted packet length average = 1
Total in-flight flits = 16 (0 measured)
latency change    = 1
throughput change = 1
Class 0:
Packet latency average = 33.1961
	minimum = 7
	maximum = 77
Network latency average = 33.1961
	minimum = 7
	maximum = 77
Slowest packet = 13923
Flit latency average = 33.1961
	minimum = 7
	maximum = 77
Slowest flit = 13923
Fragmentation average = 0
	minimum = 0
	maximum = 0
Injected packet rate average = 0.00990625
	minimum = 0.006 (at node 38)
	maximum = 0.015 (at node 5)
Accepted packet rate average = 0.00971875
	minimum = 0.0055 (at node 53)
	maximum = 0.0165 (at node 29)
Injected flit rate average = 0.00990625
	minimum = 0.006 (at node 38)
	maximum = 0.015 (at node 5)
Accepted flit rate average= 0.00971875
	minimum = 0.0055 (at node 53)
	maximum = 0.0165 (at node 29)
Injected packet length average = 1
Accepted packet length average = 1
Total in-flight flits = 24 (0 measured)
latency change    = 0.0238214
throughput change = 0.0192926
Class 0:
Packet latency average = 33.3791
	minimum = 7
	maximum = 72
Network latency average = 33.3791
	minimum = 7
	maximum = 72
Slowest packet = 14888
Flit latency average = 33.3791
	minimum = 7
	maximum = 72
Slowest flit = 14888
Fragmentation average = 0
	minimum = 0
	maximum = 0
Injected packet rate average = 0.00995313
	minimum = 0.004 (at node 60)
	maximum = 0.018 (at node 40)
Accepted packet rate average = 0.0100156
	minimum = 0.001 (at node 17)
	maximum = 0.018 (at node 30)
Injected flit rate average = 0.00995313
	minimum = 0.004 (at node 60)
	maximum = 0.018 (at node 40)
Accepted flit rate average= 0.0100156
	minimum = 0.001 (at node 17)
	maximum = 0.018 (at node 30)
Injected packet length average = 1
Accepted packet length average = 1
Total in-flight flits = 20 (0 measured)
latency change    = 0.00548109
throughput change = 0.0296412
Warmed up ...Time used is 3000 cycles
Class 0:
Packet latency average = 33.4336
	minimum = 7
	maximum = 72
Network latency average = 33.4336
	minimum = 7
	maximum = 72
Slowest packet = 15500
Flit latency average = 33.5512
	minimum = 7
	maximum = 72
Slowest flit = 15473
Fragmentation average = 0
	minimum = 0
	maximum = 0
Injected packet rate average = 0.00957812
	minimum = 0.003 (at node 47)
	maximum = 0.018 (at node 50)
Accepted packet rate average = 0.00960937
	minimum = 0.003 (at node 12)
	maximum = 0.019 (at node 10)
Injected flit rate average = 0.00957812
	minimum = 0.003 (at node 47)
	maximum = 0.018 (at node 50)
Accepted flit rate average= 0.00960937
	minimum = 0.003 (at node 12)
	maximum = 0.019 (at node 10)
Injected packet length average = 1
Accepted packet length average = 1
Total in-flight flits = 18 (18 measured)
latency change    = 0.00163064
throughput change = 0.0422764
Class 0:
Packet latency average = 33.2863
	minimum = 7
	maximum = 77
Network latency average = 33.2863
	minimum = 7
	maximum = 77
Slowest packet = 16069
Flit latency average = 33.3474
	minimum = 7
	maximum = 77
Slowest flit = 16069
Fragmentation average = 0
	minimum = 0
	maximum = 0
Injected packet rate average = 0.00963281
	minimum = 0.0045 (at node 47)
	maximum = 0.0135 (at node 12)
Accepted packet rate average = 0.009625
	minimum = 0.005 (at node 19)
	maximum = 0.016 (at node 37)
Injected flit rate average = 0.00963281
	minimum = 0.0045 (at node 47)
	maximum = 0.0135 (at node 12)
Accepted flit rate average= 0.009625
	minimum = 0.005 (at node 19)
	maximum = 0.016 (at node 37)
Injected packet length average = 1
Accepted packet length average = 1
Total in-flight flits = 21 (21 measured)
latency change    = 0.00442554
throughput change = 0.00162338
Class 0:
Packet latency average = 33.1846
	minimum = 7
	maximum = 77
Network latency average = 33.1846
	minimum = 7
	maximum = 77
Slowest packet = 16069
Flit latency average = 33.2258
	minimum = 7
	maximum = 77
Slowest flit = 16069
Fragmentation average = 0
	minimum = 0
	maximum = 0
Injected packet rate average = 0.00974479
	minimum = 0.00666667 (at node 47)
	maximum = 0.0133333 (at node 12)
Accepted packet rate average = 0.00978125
	minimum = 0.00666667 (at node 12)
	maximum = 0.015 (at node 37)
Injected flit rate average = 0.00974479
	minimum = 0.00666667 (at node 47)
	maximum = 0.0133333 (at node 12)
Accepted flit rate average= 0.00978125
	minimum = 0.00666667 (at node 12)
	maximum = 0.015 (at node 37)
Injected packet length average = 1
Accepted packet length average = 1
Total in-flight flits = 13 (13 measured)
latency change    = 0.00306457
throughput change = 0.0159744
Draining all recorded packets ...
Draining remaining packets ...
Time taken is 6108 cycles
Class 0:
Packet latency average = 32.91
	minimum = 7
	maximum = 72
Network latency average = 32.91
	minimum = 7
	maximum = 72
Slowest packet = 17447
Flit latency average = 32.91
	minimum = 7
	maximum = 72
Slowest flit = 17447
Fragmentation average = 0
	minimum = 0
	maximum = 0
Injected packet rate average = 0.00960937
	minimum = 0.003 (at node 7)
	maximum = 0.023 (at node 26)
Accepted packet rate average = 0.00920312
	minimum = 0.002 (at node 28)
	maximum = 0.015 (at node 17)
Injected flit rate average = 0.00960937
	minimum = 0.003 (at node 7)
	maximum = 0.023 (at node 26)
Accepted flit rate average= 0.00920312
	minimum = 0.002 (at node 28)
	maximum = 0.015 (at node 17)
Injected packet length average = 1
Accepted packet length average = 1
Total in-flight flits = 26 (0 measured)
latency change    = 1
throughput change = 1
Class 0:
Packet latency average = 32.673
	minimum = 7
	maximum = 72
Network latency average = 32.673
	minimum = 7
	maximum = 72
Slowest packet = 17447
Flit latency average = 32.673
	minimum = 7
	maximum = 72
Slowest flit = 17447
Fragmentation average = 0
	minimum = 0
	maximum = 0
Injected packet rate average = 0.00996875
	minimum = 0.005 (at node 23)
	maximum = 0.018 (at node 26)
Accepted packet rate average = 0.00982031
	minimum = 0.006 (at node 1)
	maximum = 0.0155 (at node 8)
Injected flit rate average = 0.00996875
	minimum = 0.005 (at node 23)
	maximum = 0.018 (at node 26)
Accepted flit rate average= 0.00982031
	minimum = 0.006 (at node 1)
	maximum = 0.0155 (at node 8)
Injected packet length average = 1
Accepted packet length average = 1
Total in-flight flits = 19 (0 measured)
latency change    = 0.00725326
throughput change = 0.0628481
Class 0:
Packet latency average = 33.6252
	minimum = 7
	maximum = 77
Network latency average = 33.6252
	minimum = 7
	maximum = 77
Slowest packet = 18763
Flit latency average = 33.6252
	minimum = 7
	maximum = 77
Slowest flit = 18763
Fragmentation average = 0
	minimum = 0
	maximum = 0
Injected packet rate average = 0.009375
	minimum = 0.004 (at node 27)
	maximum = 0.016 (at node 35)
Accepted packet rate average = 0.00929687
	minimum = 0.003 (at node 36)
	maximum = 0.02 (at node 16)
Injected flit rate average = 0.009375
	minimum = 0.004 (at node 27)
	maximum = 0.016 (at node 35)
Accepted flit rate average= 0.00929687
	minimum = 0.003 (at node 36)
	maximum = 0.02 (at node 16)
Injected packet length average = 1
Accepted packet length average = 1
Total in-flight flits = 24 (0 measured)
latency change    = 0.0283174
throughput change = 0.0563025
Warmed up ...Time used is 3000 cycles
Class 0:
Packet latency average = 32.9179
	minimum = 7
	maximum = 72
Network latency average = 32.9179
	minimum = 7
	maximum = 72
Slowest packet = 19550
Flit latency average = 33.1359
	minimum = 7
	maximum = 72
Slowest flit = 19262
Fragmentation average = 0
	minimum = 0
	maximum = 0
Injected packet rate average = 0.00990625
	minimum = 0.004 (at node 11)
	maximum = 0.017 (at node 21)
Accepted packet rate average = 0.00989063
	minimum = 0.002 (at node 24)
	maximum = 0.018 (at node 59)
Injected flit rate average = 0.00990625
	minimum = 0.004 (at node 11)
	maximum = 0.017 (at node 21)
Accepted flit rate average= 0.00989063
	minimum = 0.002 (at node 24)
	maximum = 0.018 (at node 59)
Injected packet length average = 1
Accepted packet length average = 1
Total in-flight flits = 25 (25 measured)
latency change    = 0.0214872
throughput change = 0.0600316
Class 0:
Packet latency average = 33.3895
	minimum = 7
	maximum = 72
Network latency average = 33.3895
	minimum = 7
	maximum = 72
Slowest packet = 19550
Flit latency average = 33.493
	minimum = 7
	maximum = 72
Slowest flit = 19262
Fragmentation average = 0
	minimum = 0
	maximum = 0
Injected packet rate average = 0.00953125
	minimum = 0.005 (at node 32)
	maximum = 0.015 (at node 46)
Accepted packet rate average = 0.00955469
	minimum = 0.004 (at node 24)
	maximum = 0.0145 (at node 36)
Injected flit rate average = 0.00953125
	minimum = 0.005 (at node 32)
	maximum = 0.015 (at node 46)
Accepted flit rate average= 0.00955469
	minimum = 0.004 (at node 24)
	maximum = 0.0145 (at node 36)
Injected packet length average = 1
Accepted packet length average = 1
Total in-flight flits = 21 (21 measured)
latency change    = 0.014124
throughput change = 0.0351594
Class 0:
Packet latency average = 33.1431
	minimum = 7
	maximum = 77
Network latency average = 33.1431
	minimum = 7
	maximum = 77
Slowest packet = 20836
Flit latency average = 33.213
	minimum = 7
	maximum = 77
Slowest flit = 20836
Fragmentation average = 0
	minimum = 0
	maximum = 0
Injected packet rate average = 0.00985938
	minimum = 0.00533333 (at node 57)
	maximum = 0.015 (at node 46)
Accepted packet rate average = 0.00988021
	minimum = 0.00566667 (at node 18)
	maximum = 0.0146667 (at node 51)
Injected flit rate average = 0.00985938
	minimum = 0.00533333 (at node 57)
	maximum = 0.015 (at node 46)
Accepted flit rate average= 0.00988021
	minimum = 0.00566667 (at node 18)
	maximum = 0.0146667 (at node 51)
Injected packet length average = 1
Accepted packet length average = 1
Total in-flight flits = 20 (20 measured)
latency change    = 0.00743459
throughput change = 0.0329468
Class 0:
Packet latency average = 33.2874
	minimum = 7
	maximum = 77
Network latency average = 33.2874
	minimum = 7
	maximum = 77
Slowest packet = 20836
Flit latency average = 33.3382
	minimum = 7
	maximum = 77
Slowest flit = 20836
Fragmentation average = 0
	minimum = 0
	maximum = 0
Injected packet rate average = 0.00993359
	minimum = 0.006 (at node 45)
	maximum = 0.01425 (at node 46)
Accepted packet rate average = 0.00992188
	minimum = 0.00575 (at node 18)
	maximum = 0.0135 (at node 29)
Injected flit rate average = 0.00993359
	minimum = 0.006 (at node 45)
	maximum = 0.01425 (at node 46)
Accepted flit rate average= 0.00992188
	minimum = 0.00575 (at node 18)
	maximum = 0.0135 (at node 29)
Injected packet length average = 1
Accepted packet length average = 1
Total in-flight flits = 27 (27 measured)
latency change    = 0.00433423
throughput change = 0.00419948
Draining all recorded packets ...
Draining remaining packets ...
Time taken is 7100 cycles
Class 0:
Packet latency average = 33.1617
	minimum = 7
	maximum = 67
Network latency average = 33.1617
	minimum = 7
	maximum = 67
Slowest packet = 21906
Flit latency average = 33.1617
	minimum = 7
	maximum = 67
Slowest flit = 21906
Fragmentation average = 0
	minimum = 0
	maximum = 0
Injected packet rate average = 0.0102813
	minimum = 0.004 (at node 30)
	maximum = 0.022 (at node 15)
Accepted packet rate average = 0.00995313
	minimum = 0.004 (at node 8)
	maximum = 0.017 (at node 2)
Injected flit rate average = 0.0102813
	minimum = 0.004 (at node 30)
	maximum = 0.022 (at node 15)
Accepted flit rate average= 0.00995313
	minimum = 0.004 (at node 8)
	maximum = 0.017 (at node 2)
Injected packet length average = 1
Accepted packet length average = 1
Total in-flight flits = 21 (0 measured)
latency change    = 1
throughput change = 1
Class 0:
Packet latency average = 33.7541
	minimum = 7
	maximum = 72
Network latency average = 33.7541
	minimum = 7
	maximum = 72
Slowest packet = 22492
Flit latency average = 33.7541
	minimum = 7
	maximum = 72
Slowest flit = 22492
Fragmentation average = 0
	minimum = 0
	maximum = 0
Injected packet rate average = 0.0101328
	minimum = 0.004 (at node 30)
	maximum = 0.016 (at node 57)
Accepted packet rate average = 0.00997656
	minimum = 0.0045 (at node 41)
	maximum = 0.016 (at node 63)
Injected flit rate average = 0.0101328
	minimum = 0.004 (at node 30)
	maximum = 0.016 (at node 57)
Accepted flit rate average= 0.00997656
	minimum = 0.0045 (at node 41)
	maximum = 0.016 (at node 63)
Injected packet length average = 1
Accepted packet length average = 1
Total in-flight flits = 20 (0 measured)
latency change    = 0.0175509
throughput change = 0.00234926
Class 0:
Packet latency average = 33.4466
	minimum = 7
	maximum = 72
Network latency average = 33.4466
	minimum = 7
	maximum = 72
Slowest packet = 23187
Flit latency average = 33.4466
	minimum = 7
	maximum = 72
Slowest flit = 23187
Fragmentation average = 0
	minimum = 0
	maximum = 0
Injected packet rate average = 0.0105781
	minimum = 0.002 (at node 19)
	maximum = 0.018 (at node 2)
Accepted packet rate average = 0.0105313
	minimum = 0.003 (at node 30)
	maximum = 0.017 (at node 4)
Injected flit rate average = 0.0105781
	minimum = 0.002 (at node 19)
	maximum = 0.018 (at node 2)
Accepted flit rate average= 0.0105313
	minimum = 0.003 (at node 30)
	maximum = 0.017 (at node 4)
Injected packet length average = 1
Accepted packet length average = 1
Total in-flight flits = 23 (0 measured)
latency change    = 0.00919447
throughput change = 0.0526706
Warmed up ...Time used is 3000 cycles
Class 0:
Packet latency average = 32.3002
	minimum = 7
	maximum = 67
Network latency average = 32.3002
	minimum = 7
	maximum = 67
Slowest packet = 24145
Flit latency average = 32.4432
	minimum = 7
	maximum = 67
Slowest flit = 24145
Fragmentation average = 0
	minimum = 0
	maximum = 0
Injected packet rate average = 0.00957812
	minimum = 0.002 (at node 54)
	maximum = 0.018 (at node 20)
Accepted packet rate average = 0.009625
	minimum = 0.003 (at node 3)
	maximum = 0.016 (at node 2)
Injected flit rate average = 0.00957812
	minimum = 0.002 (at node 54)
	maximum = 0.018 (at node 20)
Accepted flit rate average= 0.009625
	minimum = 0.003 (at node 3)
	maximum = 0.016 (at node 2)
Injected packet length average = 1
Accepted packet length average = 1
Total in-flight flits = 20 (20 measured)
latency change    = 0.0354927
throughput change = 0.0941558
Class 0:
Packet latency average = 32.8006
	minimum = 7
	maximum = 72
Network latency average = 32.8006
	minimum = 7
	maximum = 72
Slowest packet = 24518
Flit latency average = 32.8611
	minimum = 7
	maximum = 72
Slowest flit = 24518
Fragmentation average = 0
	minimum = 0
	maximum = 0
Injected packet rate average = 0.00990625
	minimum = 0.006 (at node 43)
	maximum = 0.016 (at node 26)
Accepted packet rate average = 0.00989844
	minimum = 0.004 (at node 3)
	maximum = 0.0155 (at node 2)
Injected flit rate average = 0.00990625
	minimum = 0.006 (at node 43)
	maximum = 0.016 (at node 26)
Accepted flit rate average= 0.00989844
	minimum = 0.004 (at node 3)
	maximum = 0.0155 (at node 2)
Injected packet length average = 1
Accepted packet length average = 1
Total in-flight flits = 24 (24 measured)
latency change    = 0.0152581
throughput change = 0.0276243
Class 0:
Packet latency average = 32.907
	minimum = 7
	maximum = 77
Network latency average = 32.907
	minimum = 7
	maximum = 77
Slowest packet = 25523
Flit latency average = 32.9452
	minimum = 7
	maximum = 77
Slowest flit = 25523
Fragmentation average = 0
	minimum = 0
	maximum = 0
Injected packet rate average = 0.0100417
	minimum = 0.00566667 (at node 54)
	maximum = 0.015 (at node 26)
Accepted packet rate average = 0.0100833
	minimum = 0.00466667 (at node 16)
	maximum = 0.0146667 (at node 2)
Injected flit rate average = 0.0100417
	minimum = 0.00566667 (at node 54)
	maximum = 0.015 (at node 26)
Accepted flit rate average= 0.0100833
	minimum = 0.00466667 (at node 16)
	maximum = 0.0146667 (at node 2)
Injected packet length average = 1
Accepted packet length average = 1
Total in-flight flits = 15 (15 measured)
latency change    = 0.0032306
throughput change = 0.0183368
Class 0:
Packet latency average = 33.047
	minimum = 7
	maximum = 77
Network latency average = 33.047
	minimum = 7
	maximum = 77
Slowest packet = 25523
Flit latency average = 33.075
	minimum = 7
	maximum = 77
Slowest flit = 25523
Fragmentation average = 0
	minimum = 0
	maximum = 0
Injected packet rate average = 0.00989453
	minimum = 0.0055 (at node 8)
	maximum = 0.0135 (at node 62)
Accepted packet rate average = 0.00989844
	minimum = 0.0055 (at node 16)
	maximum = 0.014 (at node 2)
Injected flit rate average = 0.00989453
	minimum = 0.0055 (at node 8)
	maximum = 0.0135 (at node 62)
Accepted flit rate average= 0.00989844
	minimum = 0.0055 (at node 16)
	maximum = 0.014 (at node 2)
Injected packet length average = 1
Accepted packet length average = 1
Total in-flight flits = 22 (22 measured)
latency change    = 0.00423763
throughput change = 0.0186793
Draining all recorded packets ...
Draining remaining packets ...
Time taken is 7100 cycles
Class 0:
Packet latency average = 32.1618
	minimum = 7
	maximum = 67
Network latency average = 32.1618
	minimum = 7
	maximum = 67
Slowest packet = 26673
Flit latency average = 32.1618
	minimum = 7
	maximum = 67
Slowest flit = 26673
Fragmentation average = 0
	minimum = 0
	maximum = 0
Injected packet rate average = 0.0104219
	minimum = 0.002 (at node 10)
	maximum = 0.018 (at node 37)
Accepted packet rate average = 0.0101406
	minimum = 0.003 (at node 8)
	maximum = 0.017 (at node 9)
Injected flit rate average = 0.0104219
	minimum = 0.002 (at node 10)
	maximum = 0.018 (at node 37)
Accepted flit rate average= 0.0101406
	minimum = 0.003 (at node 8)
	maximum = 0.017 (at node 9)
Injected packet length average = 1
Accepted packet length average = 1
Total in-flight flits = 18 (0 measured)
latency change    = 1
throughput change = 1
Class 0:
Packet latency average = 32.7137
	minimum = 7
	maximum = 77
Network latency average = 32.7137
	minimum = 7
	maximum = 77
Slowest packet = 27642
Flit latency average = 32.7137
	minimum = 7
	maximum = 77
Slowest flit = 27642
Fragmentation average = 0
	minimum = 0
	maximum = 0
Injected packet rate average = 0.0101406
	minimum = 0.006 (at node 0)
	maximum = 0.017 (at node 24)
Accepted packet rate average = 0.0100156
	minimum = 0.006 (at node 3)
	maximum = 0.016 (at node 31)
Injected flit rate average = 0.0101406
	minimum = 0.006 (at node 0)
	maximum = 0.017 (at node 24)
Accepted flit rate average= 0.0100156
	minimum = 0.006 (at node 3)
	maximum = 0.016 (at node 31)
Injected packet length average = 1
Accepted packet length average = 1
Total in-flight flits = 16 (0 measured)
latency change    = 0.0168719
throughput change = 0.0124805
Class 0:
Packet latency average = 33.7969
	minimum = 7
	maximum = 72
Network latency average = 33.7969
	minimum = 7
	maximum = 72
Slowest packet = 27704
Flit latency average = 33.7969
	minimum = 7
	maximum = 72
Slowest flit = 27704
Fragmentation average = 0
	minimum = 0
	maximum = 0
Injected packet rate average = 0.00914062
	minimum = 0.004 (at node 16)
	maximum = 0.018 (at node 0)
Accepted packet rate average = 0.00907812
	minimum = 0.001 (at node 40)
	maximum = 0.015 (at node 33)
Injected flit rate average = 0.00914062
	minimum = 0.004 (at node 16)
	maximum = 0.018 (at node 0)
Accepted flit rate average= 0.00907812
	minimum = 0.001 (at node 40)
	maximum = 0.015 (at node 33)
Injected packet length average = 1
Accepted packet length average = 1
Total in-flight flits = 20 (0 measured)
latency change    = 0.0320495
throughput change = 0.10327
Warmed up ...Time used is 3000 cycles
Class 0:
Packet latency average = 33.699
	minimum = 7
	maximum = 77
Network latency average = 33.699
	minimum = 7
	maximum = 77
Slowest packet = 28711
Flit latency average = 33.8574
	minimum = 7
	maximum = 77
Slowest flit = 28711
Fragmentation average = 0
	minimum = 0
	maximum = 0
Injected packet rate average = 0.01
	minimum = 0.003 (at node 17)
	maximum = 0.018 (at node 14)
Accepted packet rate average = 0.00996875
	minimum = 0.004 (at node 2)
	maximum = 0.017 (at node 25)
Injected flit rate average = 0.01
	minimum = 0.003 (at node 17)
	maximum = 0.018 (at node 14)
Accepted flit rate average= 0.00996875
	minimum = 0.004 (at node 2)
	maximum = 0.017 (at node 25)
Injected packet length average = 1
Accepted packet length average = 1
Total in-flight flits = 22 (22 measured)
latency change    = 0.00290432
throughput change = 0.0893417
Class 0:
Packet latency average = 33.3891
	minimum = 7
	maximum = 77
Network latency average = 33.3891
	minimum = 7
	maximum = 77
Slowest packet = 28711
Flit latency average = 33.4751
	minimum = 7
	maximum = 77
Slowest flit = 28711
Fragmentation average = 0
	minimum = 0
	maximum = 0
Injected packet rate average = 0.00975
	minimum = 0.0045 (at node 17)
	maximum = 0.014 (at node 51)
Accepted packet rate average = 0.00973437
	minimum = 0.005 (at node 50)
	maximum = 0.015 (at node 19)
Injected flit rate average = 0.00975
	minimum = 0.0045 (at node 17)
	maximum = 0.014 (at node 51)
Accepted flit rate average= 0.00973437
	minimum = 0.005 (at node 50)
	maximum = 0.015 (at node 19)
Injected packet length average = 1
Accepted packet length average = 1
Total in-flight flits = 22 (22 measured)
latency change    = 0.00928325
throughput change = 0.024077
Class 0:
Packet latency average = 33.2764
	minimum = 7
	maximum = 77
Network latency average = 33.2764
	minimum = 7
	maximum = 77
Slowest packet = 28711
Flit latency average = 33.3344
	minimum = 7
	maximum = 77
Slowest flit = 28711
Fragmentation average = 0
	minimum = 0
	maximum = 0
Injected packet rate average = 0.00984375
	minimum = 0.00666667 (at node 17)
	maximum = 0.0136667 (at node 40)
Accepted packet rate average = 0.00982813
	minimum = 0.00466667 (at node 15)
	maximum = 0.0146667 (at node 25)
Injected flit rate average = 0.00984375
	minimum = 0.00666667 (at node 17)
	maximum = 0.0136667 (at node 40)
Accepted flit rate average= 0.00982813
	minimum = 0.00466667 (at node 15)
	maximum = 0.0146667 (at node 25)
Injected packet length average = 1
Accepted packet length average = 1
Total in-flight flits = 23 (23 measured)
latency change    = 0.00338651
throughput change = 0.00953895
Class 0:
Packet latency average = 33.3949
	minimum = 7
	maximum = 77
Network latency average = 33.3949
	minimum = 7
	maximum = 77
Slowest packet = 28711
Flit latency average = 33.4379
	minimum = 7
	maximum = 77
Slowest flit = 28711
Fragmentation average = 0
	minimum = 0
	maximum = 0
Injected packet rate average = 0.00978125
	minimum = 0.00725 (at node 11)
	maximum = 0.013 (at node 21)
Accepted packet rate average = 0.00974219
	minimum = 0.00675 (at node 10)
	maximum = 0.0135 (at node 25)
Injected flit rate average = 0.00978125
	minimum = 0.00725 (at node 11)
	maximum = 0.013 (at node 21)
Accepted flit rate average= 0.00974219
	minimum = 0.00675 (at node 10)
	maximum = 0.0135 (at node 25)
Injected packet length average = 1
Accepted packet length average = 1
Total in-flight flits = 30 (30 measured)
latency change    = 0.00354928
throughput change = 0.00882117
Draining all recorded packets ...
Draining remaining packets ...
Time taken is 7112 cycles
Class 0:
Packet latency average = 33.4255
	minimum = 7
	maximum = 77
Network latency average = 33.4255
	minimum = 7
	maximum = 77
Slowest packet = 31261
Flit latency average = 33.4255
	minimum = 7
	maximum = 77
Slowest flit = 31261
Fragmentation average = 0
	minimum = 0
	maximum = 0
Injected packet rate average = 0.00998438
	minimum = 0.005 (at node 34)
	maximum = 0.015 (at node 17)
Accepted packet rate average = 0.00954687
	minimum = 0.003 (at node 9)
	maximum = 0.016 (at node 59)
Injected flit rate average = 0.00998438
	minimum = 0.005 (at node 34)
	maximum = 0.015 (at node 17)
Accepted flit rate average= 0.00954687
	minimum = 0.003 (at node 9)
	maximum = 0.016 (at node 59)
Injected packet length average = 1
Accepted packet length average = 1
Total in-flight flits = 28 (0 measured)
latency change    = 1
throughput change = 1
Class 0:
Packet latency average = 33.0469
	minimum = 7
	maximum = 77
Network latency average = 33.0469
	minimum = 7
	maximum = 77
Slowest packet = 31261
Flit latency average = 33.0469
	minimum = 7
	maximum = 77
Slowest flit = 31261
Fragmentation average = 0
	minimum = 0
	maximum = 0
Injected packet rate average = 0.00982031
	minimum = 0.0045 (at node 25)
	maximum = 0.014 (at node 22)
Accepted packet rate average = 0.00965625
	minimum = 0.0045 (at node 14)
	maximum = 0.014 (at node 1)
Injected flit rate average = 0.00982031
	minimum = 0.0045 (at node 25)
	maximum = 0.014 (at node 22)
Accepted flit rate average= 0.00965625
	minimum = 0.0045 (at node 14)
	maximum = 0.014 (at node 1)
Injected packet length average = 1
Accepted packet length average = 1
Total in-flight flits = 21 (0 measured)
latency change    = 0.0114566
throughput change = 0.0113269
Class 0:
Packet latency average = 32.8594
	minimum = 7
	maximum = 72
Network latency average = 32.8594
	minimum = 7
	maximum = 72
Slowest packet = 32158
Flit latency average = 32.8594
	minimum = 7
	maximum = 72
Slowest flit = 32158
Fragmentation average = 0
	minimum = 0
	maximum = 0
Injected packet rate average = 0.0100938
	minimum = 0.004 (at node 59)
	maximum = 0.018 (at node 11)
Accepted packet rate average = 0.0101094
	minimum = 0.004 (at node 19)
	maximum = 0.018 (at node 53)
Injected flit rate average = 0.0100938
	minimum = 0.004 (at node 59)
	maximum = 0.018 (at node 11)
Accepted flit rate average= 0.0101094
	minimum = 0.004 (at node 19)
	maximum = 0.018 (at node 53)
Injected packet length average = 1
Accepted packet length average = 1
Total in-flight flits = 20 (0 measured)
latency change    = 0.00570841
throughput change = 0.0448223
Warmed up ...Time used is 3000 cycles
Class 0:
Packet latency average = 32.5714
	minimum = 7
	maximum = 72
Network latency average = 32.5714
	minimum = 7
	maximum = 72
Slowest packet = 32815
Flit latency average = 32.8492
	minimum = 7
	maximum = 72
Slowest flit = 32698
Fragmentation average = 0
	minimum = 0
	maximum = 0
Injected packet rate average = 0.0102188
	minimum = 0.003 (at node 8)
	maximum = 0.02 (at node 26)
Accepted packet rate average = 0.0101563
	minimum = 0.003 (at node 58)
	maximum = 0.018 (at node 26)
Injected flit rate average = 0.0102188
	minimum = 0.003 (at node 8)
	maximum = 0.02 (at node 26)
Accepted flit rate average= 0.0101563
	minimum = 0.003 (at node 58)
	maximum = 0.018 (at node 26)
Injected packet length average = 1
Accepted packet length average = 1
Total in-flight flits = 24 (24 measured)
latency change    = 0.00883972
throughput change = 0.00461538
Class 0:
Packet latency average = 33.1848
	minimum = 7
	maximum = 72
Network latency average = 33.1848
	minimum = 7
	maximum = 72
Slowest packet = 32815
Flit latency average = 33.3109
	minimum = 7
	maximum = 72
Slowest flit = 32698
Fragmentation average = 0
	minimum = 0
	maximum = 0
Injected packet rate average = 0.0103984
	minimum = 0.0065 (at node 8)
	maximum = 0.015 (at node 31)
Accepted packet rate average = 0.0104297
	minimum = 0.005 (at node 10)
	maximum = 0.017 (at node 53)
Injected flit rate average = 0.0103984
	minimum = 0.0065 (at node 8)
	maximum = 0.015 (at node 31)
Accepted flit rate average= 0.0104297
	minimum = 0.005 (at node 10)
	maximum = 0.017 (at node 53)
Injected packet length average = 1
Accepted packet length average = 1
Total in-flight flits = 16 (16 measured)
latency change    = 0.0184832
throughput change = 0.0262172
Class 0:
Packet latency average = 33.5115
	minimum = 7
	maximum = 72
Network latency average = 33.5115
	minimum = 7
	maximum = 72
Slowest packet = 32815
Flit latency average = 33.5931
	minimum = 7
	maximum = 72
Slowest flit = 32698
Fragmentation average = 0
	minimum = 0
	maximum = 0
Injected packet rate average = 0.0103438
	minimum = 0.00766667 (at node 8)
	maximum = 0.0143333 (at node 14)
Accepted packet rate average = 0.0103177
	minimum = 0.006 (at node 10)
	maximum = 0.0156667 (at node 46)
Injected flit rate average = 0.0103438
	minimum = 0.00766667 (at node 8)
	maximum = 0.0143333 (at node 14)
Accepted flit rate average= 0.0103177
	minimum = 0.006 (at node 10)
	maximum = 0.0156667 (at node 46)
Injected packet length average = 1
Accepted packet length average = 1
Total in-flight flits = 25 (25 measured)
latency change    = 0.00974839
throughput change = 0.0108531
Draining all recorded packets ...
Draining remaining packets ...
Time taken is 6111 cycles
Class 0:
Packet latency average = 33.4431
	minimum = 7
	maximum = 72
Network latency average = 33.4431
	minimum = 7
	maximum = 72
Slowest packet = 34975
Flit latency average = 33.4431
	minimum = 7
	maximum = 72
Slowest flit = 34975
Fragmentation average = 0
	minimum = 0
	maximum = 0
Injected packet rate average = 0.0104219
	minimum = 0.003 (at node 8)
	maximum = 0.019 (at node 39)
Accepted packet rate average = 0.0100156
	minimum = 0.005 (at node 15)
	maximum = 0.018 (at node 40)
Injected flit rate average = 0.0104219
	minimum = 0.003 (at node 8)
	maximum = 0.019 (at node 39)
Accepted flit rate average= 0.0100156
	minimum = 0.005 (at node 15)
	maximum = 0.018 (at node 40)
Injected packet length average = 1
Accepted packet length average = 1
Total in-flight flits = 26 (0 measured)
latency change    = 1
throughput change = 1
Class 0:
Packet latency average = 33.3313
	minimum = 7
	maximum = 72
Network latency average = 33.3313
	minimum = 7
	maximum = 72
Slowest packet = 34975
Flit latency average = 33.3313
	minimum = 7
	maximum = 72
Slowest flit = 34975
Fragmentation average = 0
	minimum = 0
	maximum = 0
Injected packet rate average = 0.0102578
	minimum = 0.007 (at node 0)
	maximum = 0.0155 (at node 60)
Accepted packet rate average = 0.0100469
	minimum = 0.0065 (at node 10)
	maximum = 0.0145 (at node 46)
Injected flit rate average = 0.0102578
	minimum = 0.007 (at node 0)
	maximum = 0.0155 (at node 60)
Accepted flit rate average= 0.0100469
	minimum = 0.0065 (at node 10)
	maximum = 0.0145 (at node 46)
Injected packet length average = 1
Accepted packet length average = 1
Total in-flight flits = 27 (0 measured)
latency change    = 0.00335415
throughput change = 0.00311042
Class 0:
Packet latency average = 33.5155
	minimum = 7
	maximum = 77
Network latency average = 33.5155
	minimum = 7
	maximum = 77
Slowest packet = 36478
Flit latency average = 33.5155
	minimum = 7
	maximum = 77
Slowest flit = 36478
Fragmentation average = 0
	minimum = 0
	maximum = 0
Injected packet rate average = 0.0105
	minimum = 0.003 (at node 46)
	maximum = 0.02 (at node 59)
Accepted packet rate average = 0.0105781
	minimum = 0.004 (at node 30)
	maximum = 0.02 (at node 27)
Injected flit rate average = 0.0105
	minimum = 0.003 (at node 46)
	maximum = 0.02 (at node 59)
Accepted flit rate average= 0.0105781
	minimum = 0.004 (at node 30)
	maximum = 0.02 (at node 27)
Injected packet length average = 1
Accepted packet length average = 1
Total in-flight flits = 22 (0 measured)
latency change    = 0.00549745
throughput change = 0.0502216
Warmed up ...Time used is 3000 cycles
Class 0:
Packet latency average = 32.2914
	minimum = 7
	maximum = 77
Network latency average = 32.2914
	minimum = 7
	maximum = 77
Slowest packet = 37072
Flit latency average = 32.5367
	minimum = 7
	maximum = 77
Slowest flit = 37072
Fragmentation average = 0
	minimum = 0
	maximum = 0
Injected packet rate average = 0.00975
	minimum = 0.005 (at node 26)
	maximum = 0.017 (at node 14)
Accepted packet rate average = 0.00978125
	minimum = 0.004 (at node 60)
	maximum = 0.019 (at node 62)
Injected flit rate average = 0.00975
	minimum = 0.005 (at node 26)
	maximum = 0.017 (at node 14)
Accepted flit rate average= 0.00978125
	minimum = 0.004 (at node 60)
	maximum = 0.019 (at node 62)
Injected packet length average = 1
Accepted packet length average = 1
Total in-flight flits = 20 (20 measured)
latency change    = 0.0379085
throughput change = 0.0814696
Class 0:
Packet latency average = 32.3214
	minimum = 7
	maximum = 77
Network latency average = 32.3214
	minimum = 7
	maximum = 77
Slowest packet = 37072
Flit latency average = 32.4467
	minimum = 7
	maximum = 77
Slowest flit = 37072
Fragmentation average = 0
	minimum = 0
	maximum = 0
Injected packet rate average = 0.00954687
	minimum = 0.005 (at node 30)
	maximum = 0.014 (at node 6)
Accepted packet rate average = 0.00953125
	minimum = 0.0055 (at node 60)
	maximum = 0.014 (at node 35)
Injected flit rate average = 0.00954687
	minimum = 0.005 (at node 30)
	maximum = 0.014 (at node 6)
Accepted flit rate average= 0.00953125
	minimum = 0.0055 (at node 60)
	maximum = 0.014 (at node 35)
Injected packet length average = 1
Accepted packet length average = 1
Total in-flight flits = 24 (24 measured)
latency change    = 0.000927505
throughput change = 0.0262295
Class 0:
Packet latency average = 32.6787
	minimum = 7
	maximum = 77
Network latency average = 32.6787
	minimum = 7
	maximum = 77
Slowest packet = 37072
Flit latency average = 32.755
	minimum = 7
	maximum = 77
Slowest flit = 37072
Fragmentation average = 0
	minimum = 0
	maximum = 0
Injected packet rate average = 0.00990104
	minimum = 0.00633333 (at node 30)
	maximum = 0.014 (at node 11)
Accepted packet rate average = 0.00990625
	minimum = 0.00566667 (at node 39)
	maximum = 0.015 (at node 35)
Injected flit rate average = 0.00990104
	minimum = 0.00633333 (at node 30)
	maximum = 0.014 (at node 11)
Accepted flit rate average= 0.00990625
	minimum = 0.00566667 (at node 39)
	maximum = 0.015 (at node 35)
Injected packet length average = 1
Accepted packet length average = 1
Total in-flight flits = 21 (21 measured)
latency change    = 0.0109354
throughput change = 0.0378549
Class 0:
Packet latency average = 33.0465
	minimum = 7
	maximum = 77
Network latency average = 33.0465
	minimum = 7
	maximum = 77
Slowest packet = 37072
Flit latency average = 33.1013
	minimum = 7
	maximum = 77
Slowest flit = 37072
Fragmentation average = 0
	minimum = 0
	maximum = 0
Injected packet rate average = 0.00976172
	minimum = 0.00625 (at node 32)
	maximum = 0.01375 (at node 34)
Accepted packet rate average = 0.00975391
	minimum = 0.00675 (at node 61)
	maximum = 0.014 (at node 20)
Injected flit rate average = 0.00976172
	minimum = 0.00625 (at node 32)
	maximum = 0.01375 (at node 34)
Accepted flit rate average= 0.00975391
	minimum = 0.00675 (at node 61)
	maximum = 0.014 (at node 20)
Injected packet length average = 1
Accepted packet length average = 1
Total in-flight flits = 24 (24 measured)
latency change    = 0.011128
throughput change = 0.0156187
Draining all recorded packets ...
Draining remaining packets ...
Time taken is 7117 cycles
Class 0:
Packet latency average = 32.1852
	minimum = 7
	maximum = 72
Network latency average = 32.1852
	minimum = 7
	maximum = 72
Slowest packet = 39268
Flit latency average = 32.1852
	minimum = 7
	maximum = 72
Slowest flit = 39268
Fragmentation average = 0
	minimum = 0
	maximum = 0
Injected packet rate average = 0.0102813
	minimum = 0.004 (at node 15)
	maximum = 0.018 (at node 48)
Accepted packet rate average = 0.00995313
	minimum = 0.003 (at node 16)
	maximum = 0.016 (at node 25)
Injected flit rate average = 0.0102813
	minimum = 0.004 (at node 15)
	maximum = 0.018 (at node 48)
Accepted flit rate average= 0.00995313
	minimum = 0.003 (at node 16)
	maximum = 0.016 (at node 25)
Injected packet length average = 1
Accepted packet length average = 1
Total in-flight flits = 21 (0 measured)
latency change    = 1
throughput change = 1
Class 0:
Packet latency average = 32.3247
	minimum = 7
	maximum = 72
Network latency average = 32.3247
	minimum = 7
	maximum = 72
Slowest packet = 39268
Flit latency average = 32.3247
	minimum = 7
	maximum = 72
Slowest flit = 39268
Fragmentation average = 0
	minimum = 0
	maximum = 0
Injected packet rate average = 0.0102109
	minimum = 0.004 (at node 18)
	maximum = 0.016 (at node 48)
Accepted packet rate average = 0.0100078
	minimum = 0.0045 (at node 16)
	maximum = 0.0155 (at node 44)
Injected flit rate average = 0.0102109
	minimum = 0.004 (at node 18)
	maximum = 0.016 (at node 48)
Accepted flit rate average= 0.0100078
	minimum = 0.0045 (at node 16)
	maximum = 0.0155 (at node 44)
Injected packet length average = 1
Accepted packet length average = 1
Total in-flight flits = 26 (0 measured)
latency change    = 0.00431567
throughput change = 0.00546448
Class 0:
Packet latency average = 33.1266
	minimum = 7
	maximum = 72
Network latency average = 33.1266
	minimum = 7
	maximum = 72
Slowest packet = 40597
Flit latency average = 33.1266
	minimum = 7
	maximum = 72
Slowest flit = 40597
Fragmentation average = 0
	minimum = 0
	maximum = 0
Injected packet rate average = 0.0098125
	minimum = 0.003 (at node 26)
	maximum = 0.017 (at node 18)
Accepted packet rate average = 0.009875
	minimum = 0.004 (at node 29)
	maximum = 0.017 (at node 31)
Injected flit rate average = 0.0098125
	minimum = 0.003 (at node 26)
	maximum = 0.017 (at node 18)
Accepted flit rate average= 0.009875
	minimum = 0.004 (at node 29)
	maximum = 0.017 (at node 31)
Injected packet length average = 1
Accepted packet length average = 1
Total in-flight flits = 22 (0 measured)
latency change    = 0.0242052
throughput change = 0.0134494
Warmed up ...Time used is 3000 cycles
Class 0:
Packet latency average = 32.3589
	minimum = 7
	maximum = 72
Network latency average = 32.3589
	minimum = 7
	maximum = 72
Slowest packet = 41328
Flit latency average = 32.4006
	minimum = 7
	maximum = 72
Slowest flit = 41328
Fragmentation average = 0
	minimum = 0
	maximum = 0
Injected packet rate average = 0.0102188
	minimum = 0.003 (at node 38)
	maximum = 0.018 (at node 8)
Accepted packet rate average = 0.0101406
	minimum = 0.003 (at node 63)
	maximum = 0.019 (at node 18)
Injected flit rate average = 0.0102188
	minimum = 0.003 (at node 38)
	maximum = 0.018 (at node 8)
Accepted flit rate average= 0.0101406
	minimum = 0.003 (at node 63)
	maximum = 0.019 (at node 18)
Injected packet length average = 1
Accepted packet length average = 1
Total in-flight flits = 27 (27 measured)
latency change    = 0.0237255
throughput change = 0.0261941
Class 0:
Packet latency average = 32.8063
	minimum = 7
	maximum = 72
Network latency average = 32.8063
	minimum = 7
	maximum = 72
Slowest packet = 41328
Flit latency average = 32.8194
	minimum = 7
	maximum = 72
Slowest flit = 41328
Fragmentation average = 0
	minimum = 0
	maximum = 0
Injected packet rate average = 0.0102578
	minimum = 0.0035 (at node 38)
	maximum = 0.016 (at node 29)
Accepted packet rate average = 0.0102969
	minimum = 0.003 (at node 63)
	maximum = 0.017 (at node 3)
Injected flit rate average = 0.0102578
	minimum = 0.0035 (at node 38)
	maximum = 0.016 (at node 29)
Accepted flit rate average= 0.0102969
	minimum = 0.003 (at node 63)
	maximum = 0.017 (at node 3)
Injected packet length average = 1
Accepted packet length average = 1
Total in-flight flits = 17 (17 measured)
latency change    = 0.0136399
throughput change = 0.0151745
Class 0:
Packet latency average = 32.7989
	minimum = 7
	maximum = 77
Network latency average = 32.7989
	minimum = 7
	maximum = 77
Slowest packet = 42786
Flit latency average = 32.8078
	minimum = 7
	maximum = 77
Slowest flit = 42786
Fragmentation average = 0
	minimum = 0
	maximum = 0
Injected packet rate average = 0.0101406
	minimum = 0.00433333 (at node 38)
	maximum = 0.0146667 (at node 29)
Accepted packet rate average = 0.0101615
	minimum = 0.00466667 (at node 63)
	maximum = 0.0143333 (at node 3)
Injected flit rate average = 0.0101406
	minimum = 0.00433333 (at node 38)
	maximum = 0.0146667 (at node 29)
Accepted flit rate average= 0.0101615
	minimum = 0.00466667 (at node 63)
	maximum = 0.0143333 (at node 3)
Injected packet length average = 1
Accepted packet length average = 1
Total in-flight flits = 18 (18 measured)
latency change    = 0.00022768
throughput change = 0.0133265
Draining all recorded packets ...
Draining remaining packets ...
Time taken is 6098 cycles
Class 0:
Packet latency average = 33.5102
	minimum = 7
	maximum = 77
Network latency average = 33.5102
	minimum = 7
	maximum = 77
Slowest packet = 43348
Flit latency average = 33.5102
	minimum = 7
	maximum = 77
Slowest flit = 43348
Fragmentation average = 0
	minimum = 0
	maximum = 0
Injected packet rate average = 0.00951562
	minimum = 0.002 (at node 32)
	maximum = 0.019 (at node 5)
Accepted packet rate average = 0.00921875
	minimum = 0.002 (at node 43)
	maximum = 0.016 (at node 22)
Injected flit rate average = 0.00951562
	minimum = 0.002 (at node 32)
	maximum = 0.019 (at node 5)
Accepted flit rate average= 0.00921875
	minimum = 0.002 (at node 43)
	maximum = 0.016 (at node 22)
Injected packet length average = 1
Accepted packet length average = 1
Total in-flight flits = 19 (0 measured)
latency change    = 1
throughput change = 1
Class 0:
Packet latency average = 33.3937
	minimum = 7
	maximum = 77
Network latency average = 33.3937
	minimum = 7
	maximum = 77
Slowest packet = 43348
Flit latency average = 33.3937
	minimum = 7
	maximum = 77
Slowest flit = 43348
Fragmentation average = 0
	minimum = 0
	maximum = 0
Injected packet rate average = 0.00976562
	minimum = 0.0055 (at node 46)
	maximum = 0.015 (at node 52)
Accepted packet rate average = 0.009625
	minimum = 0.006 (at node 2)
	maximum = 0.015 (at node 1)
Injected flit rate average = 0.00976562
	minimum = 0.0055 (at node 46)
	maximum = 0.015 (at node 52)
Accepted flit rate average= 0.009625
	minimum = 0.006 (at node 2)
	maximum = 0.015 (at node 1)
Injected packet length average = 1
Accepted packet length average = 1
Total in-flight flits = 18 (0 measured)
latency change    = 0.00348871
throughput change = 0.0422078
Class 0:
Packet latency average = 34.3198
	minimum = 7
	maximum = 72
Network latency average = 34.3198
	minimum = 7
	maximum = 72
Slowest packet = 44791
Flit latency average = 34.3198
	minimum = 7
	maximum = 72
Slowest flit = 44791
Fragmentation average = 0
	minimum = 0
	maximum = 0
Injected packet rate average = 0.0096875
	minimum = 0.002 (at node 27)
	maximum = 0.016 (at node 8)
Accepted packet rate average = 0.009625
	minimum = 0.002 (at node 44)
	maximum = 0.017 (at node 32)
Injected flit rate average = 0.0096875
	minimum = 0.002 (at node 27)
	maximum = 0.016 (at node 8)
Accepted flit rate average= 0.009625
	minimum = 0.002 (at node 44)
	maximum = 0.017 (at node 32)
Injected packet length average = 1
Accepted packet length average = 1
Total in-flight flits = 22 (0 measured)
latency change    = 0.0269855
throughput change = 0
Warmed up ...Time used is 3000 cycles
Class 0:
Packet latency average = 32.5309
	minimum = 7
	maximum = 72
Network latency average = 32.5309
	minimum = 7
	maximum = 72
Slowest packet = 45532
Flit latency average = 32.9318
	minimum = 7
	maximum = 72
Slowest flit = 45532
Fragmentation average = 0
	minimum = 0
	maximum = 0
Injected packet rate average = 0.00892187
	minimum = 0.002 (at node 13)
	maximum = 0.015 (at node 34)
Accepted packet rate average = 0.0089375
	minimum = 0.002 (at node 58)
	maximum = 0.021 (at node 21)
Injected flit rate average = 0.00892187
	minimum = 0.002 (at node 13)
	maximum = 0.015 (at node 34)
Accepted flit rate average= 0.0089375
	minimum = 0.002 (at node 58)
	maximum = 0.021 (at node 21)
Injected packet length average = 1
Accepted packet length average = 1
Total in-flight flits = 21 (21 measured)
latency change    = 0.0549907
throughput change = 0.0769231
Class 0:
Packet latency average = 32.7882
	minimum = 7
	maximum = 77
Network latency average = 32.7882
	minimum = 7
	maximum = 77
Slowest packet = 45897
Flit latency average = 32.9757
	minimum = 7
	maximum = 77
Slowest flit = 45897
Fragmentation average = 0
	minimum = 0
	maximum = 0
Injected packet rate average = 0.00929687
	minimum = 0.004 (at node 58)
	maximum = 0.014 (at node 5)
Accepted packet rate average = 0.00932031
	minimum = 0.0045 (at node 58)
	maximum = 0.018 (at node 40)
Injected flit rate average = 0.00929687
	minimum = 0.004 (at node 58)
	maximum = 0.014 (at node 5)
Accepted flit rate average= 0.00932031
	minimum = 0.0045 (at node 58)
	maximum = 0.018 (at node 40)
Injected packet length average = 1
Accepted packet length average = 1
Total in-flight flits = 19 (19 measured)
latency change    = 0.00784752
throughput change = 0.0410729
Class 0:
Packet latency average = 32.7582
	minimum = 7
	maximum = 77
Network latency average = 32.7582
	minimum = 7
	maximum = 77
Slowest packet = 45897
Flit latency average = 32.8786
	minimum = 7
	maximum = 77
Slowest flit = 45897
Fragmentation average = 0
	minimum = 0
	maximum = 0
Injected packet rate average = 0.0096875
	minimum = 0.00666667 (at node 13)
	maximum = 0.0133333 (at node 23)
Accepted packet rate average = 0.00969792
	minimum = 0.00466667 (at node 58)
	maximum = 0.0146667 (at node 41)
Injected flit rate average = 0.0096875
	minimum = 0.00666667 (at node 13)
	maximum = 0.0133333 (at node 23)
Accepted flit rate average= 0.00969792
	minimum = 0.00466667 (at node 58)
	maximum = 0.0146667 (at node 41)
Injected packet length average = 1
Accepted packet length average = 1
Total in-flight flits = 20 (20 measured)
latency change    = 0.000917727
throughput change = 0.0389366
Class 0:
Packet latency average = 33.0401
	minimum = 7
	maximum = 77
Network latency average = 33.0401
	minimum = 7
	maximum = 77
Slowest packet = 45897
Flit latency average = 33.1278
	minimum = 7
	maximum = 77
Slowest flit = 45897
Fragmentation average = 0
	minimum = 0
	maximum = 0
Injected packet rate average = 0.00973828
	minimum = 0.0065 (at node 13)
	maximum = 0.01325 (at node 23)
Accepted packet rate average = 0.00972266
	minimum = 0.006 (at node 35)
	maximum = 0.01375 (at node 16)
Injected flit rate average = 0.00973828
	minimum = 0.0065 (at node 13)
	maximum = 0.01325 (at node 23)
Accepted flit rate average= 0.00972266
	minimum = 0.006 (at node 35)
	maximum = 0.01375 (at node 16)
Injected packet length average = 1
Accepted packet length average = 1
Total in-flight flits = 26 (26 measured)
latency change    = 0.0085344
throughput change = 0.00254453
Draining all recorded packets ...
Draining remaining packets ...
Time taken is 7089 cycles
Class 0:
Packet latency average = 32.8227
	minimum = 7
	maximum = 77
Network latency average = 32.8227
	minimum = 7
	maximum = 77
Slowest packet = 48090
Flit latency average = 32.8227
	minimum = 7
	maximum = 77
Slowest flit = 48090
Fragmentation average = 0
	minimum = 0
	maximum = 0
Injected packet rate average = 0.0100938
	minimum = 0.004 (at node 21)
	maximum = 0.019 (at node 32)
Accepted packet rate average = 0.00978125
	minimum = 0.002 (at node 51)
	maximum = 0.017 (at node 18)
Injected flit rate average = 0.0100938
	minimum = 0.004 (at node 21)
	maximum = 0.019 (at node 32)
Accepted flit rate average= 0.00978125
	minimum = 0.002 (at node 51)
	maximum = 0.017 (at node 18)
Injected packet length average = 1
Accepted packet length average = 1
Total in-flight flits = 20 (0 measured)
latency change    = 1
throughput change = 1
Class 0:
Packet latency average = 33.3443
	minimum = 7
	maximum = 77
Network latency average = 33.3443
	minimum = 7
	maximum = 77
Slowest packet = 48090
Flit latency average = 33.3443
	minimum = 7
	maximum = 77
Slowest flit = 48090
Fragmentation average = 0
	minimum = 0
	maximum = 0
Injected packet rate average = 0.00991406
	minimum = 0.006 (at node 40)
	maximum = 0.0175 (at node 41)
Accepted packet rate average = 0.00971094
	minimum = 0.0035 (at node 51)
	maximum = 0.0145 (at node 62)
Injected flit rate average = 0.00991406
	minimum = 0.006 (at node 40)
	maximum = 0.0175 (at node 41)
Accepted flit rate average= 0.00971094
	minimum = 0.0035 (at node 51)
	maximum = 0.0145 (at node 62)
Injected packet length average = 1
Accepted packet length average = 1
Total in-flight flits = 26 (0 measured)
latency change    = 0.0156442
throughput change = 0.00724055
Class 0:
Packet latency average = 33.8889
	minimum = 7
	maximum = 72
Network latency average = 33.8889
	minimum = 7
	maximum = 72
Slowest packet = 48922
Flit latency average = 33.8889
	minimum = 7
	maximum = 72
Slowest flit = 48922
Fragmentation average = 0
	minimum = 0
	maximum = 0
Injected packet rate average = 0.0101406
	minimum = 0.004 (at node 36)
	maximum = 0.016 (at node 46)
Accepted packet rate average = 0.010125
	minimum = 0.002 (at node 53)
	maximum = 0.021 (at node 60)
Injected flit rate average = 0.0101406
	minimum = 0.004 (at node 36)
	maximum = 0.016 (at node 46)
Accepted flit rate average= 0.010125
	minimum = 0.002 (at node 53)
	maximum = 0.021 (at node 60)
Injected packet length average = 1
Accepted packet length average = 1
Total in-flight flits = 27 (0 measured)
latency change    = 0.016069
throughput change = 0.0408951
Warmed up ...Time used is 3000 cycles
Class 0:
Packet latency average = 32.9591
	minimum = 7
	maximum = 77
Network latency average = 32.9591
	minimum = 7
	maximum = 77
Slowest packet = 49581
Flit latency average = 33.1388
	minimum = 7
	maximum = 77
Slowest flit = 49581
Fragmentation average = 0
	minimum = 0
	maximum = 0
Injected packet rate average = 0.0102188
	minimum = 0.004 (at node 62)
	maximum = 0.02 (at node 25)
Accepted packet rate average = 0.0103594
	minimum = 0.002 (at node 54)
	maximum = 0.02 (at node 13)
Injected flit rate average = 0.0102188
	minimum = 0.004 (at node 62)
	maximum = 0.02 (at node 25)
Accepted flit rate average= 0.0103594
	minimum = 0.002 (at node 54)
	maximum = 0.02 (at node 13)
Injected packet length average = 1
Accepted packet length average = 1
Total in-flight flits = 18 (18 measured)
latency change    = 0.0282098
throughput change = 0.0226244
Class 0:
Packet latency average = 32.9796
	minimum = 7
	maximum = 77
Network latency average = 32.9796
	minimum = 7
	maximum = 77
Slowest packet = 49581
Flit latency average = 33.0707
	minimum = 7
	maximum = 77
Slowest flit = 49581
Fragmentation average = 0
	minimum = 0
	maximum = 0
Injected packet rate average = 0.0102031
	minimum = 0.0055 (at node 47)
	maximum = 0.0155 (at node 25)
Accepted packet rate average = 0.0101719
	minimum = 0.0065 (at node 16)
	maximum = 0.0145 (at node 37)
Injected flit rate average = 0.0102031
	minimum = 0.0055 (at node 47)
	maximum = 0.0155 (at node 25)
Accepted flit rate average= 0.0101719
	minimum = 0.0065 (at node 16)
	maximum = 0.0145 (at node 37)
Injected packet length average = 1
Accepted packet length average = 1
Total in-flight flits = 31 (31 measured)
latency change    = 0.000621243
throughput change = 0.0184332
Class 0:
Packet latency average = 33.1932
	minimum = 7
	maximum = 77
Network latency average = 33.1932
	minimum = 7
	maximum = 77
Slowest packet = 49581
Flit latency average = 33.251
	minimum = 7
	maximum = 77
Slowest flit = 49581
Fragmentation average = 0
	minimum = 0
	maximum = 0
Injected packet rate average = 0.0101667
	minimum = 0.00666667 (at node 62)
	maximum = 0.0153333 (at node 63)
Accepted packet rate average = 0.0101667
	minimum = 0.006 (at node 44)
	maximum = 0.0143333 (at node 37)
Injected flit rate average = 0.0101667
	minimum = 0.00666667 (at node 62)
	maximum = 0.0153333 (at node 63)
Accepted flit rate average= 0.0101667
	minimum = 0.006 (at node 44)
	maximum = 0.0143333 (at node 37)
Injected packet length average = 1
Accepted packet length average = 1
Total in-flight flits = 27 (27 measured)
latency change    = 0.00643622
throughput change = 0.000512295
Draining all recorded packets ...
Draining remaining packets ...
Time taken is 6104 cycles
Class 0:
Packet latency average = 32.4488
	minimum = 7
	maximum = 77
Network latency average = 32.4488
	minimum = 7
	maximum = 77
Slowest packet = 52011
Flit latency average = 32.4488
	minimum = 7
	maximum = 77
Slowest flit = 52011
Fragmentation average = 0
	minimum = 0
	maximum = 0
Injected packet rate average = 0.00946875
	minimum = 0.004 (at node 55)
	maximum = 0.017 (at node 23)
Accepted packet rate average = 0.00915625
	minimum = 0.003 (at node 13)
	maximum = 0.015 (at node 29)
Injected flit rate average = 0.00946875
	minimum = 0.004 (at node 55)
	maximum = 0.017 (at node 23)
Accepted flit rate average= 0.00915625
	minimum = 0.003 (at node 13)
	maximum = 0.015 (at node 29)
Injected packet length average = 1
Accepted packet length average = 1
Total in-flight flits = 20 (0 measured)
latency change    = 1
throughput change = 1
Class 0:
Packet latency average = 32.6778
	minimum = 7
	maximum = 77
Network latency average = 32.6778
	minimum = 7
	maximum = 77
Slowest packet = 52011
Flit latency average = 32.6778
	minimum = 7
	maximum = 77
Slowest flit = 52011
Fragmentation average = 0
	minimum = 0
	maximum = 0
Injected packet rate average = 0.00982813
	minimum = 0.006 (at node 61)
	maximum = 0.0145 (at node 2)
Accepted packet rate average = 0.009625
	minimum = 0.005 (at node 13)
	maximum = 0.0145 (at node 20)
Injected flit rate average = 0.00982813
	minimum = 0.006 (at node 61)
	maximum = 0.0145 (at node 2)
Accepted flit rate average= 0.009625
	minimum = 0.005 (at node 13)
	maximum = 0.0145 (at node 20)
Injected packet length average = 1
Accepted packet length average = 1
Total in-flight flits = 26 (0 measured)
latency change    = 0.00700643
throughput change = 0.0487013
Class 0:
Packet latency average = 33.285
	minimum = 7
	maximum = 67
Network latency average = 33.285
	minimum = 7
	maximum = 67
Slowest packet = 52788
Flit latency average = 33.285
	minimum = 7
	maximum = 67
Slowest flit = 52788
Fragmentation average = 0
	minimum = 0
	maximum = 0
Injected packet rate average = 0.00973437
	minimum = 0.004 (at node 14)
	maximum = 0.018 (at node 23)
Accepted packet rate average = 0.00992188
	minimum = 0.002 (at node 54)
	maximum = 0.02 (at node 50)
Injected flit rate average = 0.00973437
	minimum = 0.004 (at node 14)
	maximum = 0.018 (at node 23)
Accepted flit rate average= 0.00992188
	minimum = 0.002 (at node 54)
	maximum = 0.02 (at node 50)
Injected packet length average = 1
Accepted packet length average = 1
Total in-flight flits = 14 (0 measured)
latency change    = 0.0182448
throughput change = 0.0299213
Warmed up ...Time used is 3000 cycles
Class 0:
Packet latency average = 33.6433
	minimum = 7
	maximum = 72
Network latency average = 33.6433
	minimum = 7
	maximum = 72
Slowest packet = 53407
Flit latency average = 33.6059
	minimum = 7
	maximum = 72
Slowest flit = 53407
Fragmentation average = 0
	minimum = 0
	maximum = 0
Injected packet rate average = 0.009625
	minimum = 0.005 (at node 4)
	maximum = 0.017 (at node 44)
Accepted packet rate average = 0.00959375
	minimum = 0.002 (at node 11)
	maximum = 0.018 (at node 0)
Injected flit rate average = 0.009625
	minimum = 0.005 (at node 4)
	maximum = 0.017 (at node 44)
Accepted flit rate average= 0.00959375
	minimum = 0.002 (at node 11)
	maximum = 0.018 (at node 0)
Injected packet length average = 1
Accepted packet length average = 1
Total in-flight flits = 16 (16 measured)
latency change    = 0.0106498
throughput change = 0.034202
Class 0:
Packet latency average = 33.1496
	minimum = 7
	maximum = 72
Network latency average = 33.1496
	minimum = 7
	maximum = 72
Slowest packet = 53407
Flit latency average = 33.1371
	minimum = 7
	maximum = 72
Slowest flit = 53407
Fragmentation average = 0
	minimum = 0
	maximum = 0
Injected packet rate average = 0.0101484
	minimum = 0.006 (at node 24)
	maximum = 0.015 (at node 52)
Accepted packet rate average = 0.0100859
	minimum = 0.0035 (at node 53)
	maximum = 0.0135 (at node 0)
Injected flit rate average = 0.0101484
	minimum = 0.006 (at node 24)
	maximum = 0.015 (at node 52)
Accepted flit rate average= 0.0100859
	minimum = 0.0035 (at node 53)
	maximum = 0.0135 (at node 0)
Injected packet length average = 1
Accepted packet length average = 1
Total in-flight flits = 22 (22 measured)
latency change    = 0.014895
throughput change = 0.0487994
Class 0:
Packet latency average = 33.342
	minimum = 7
	maximum = 77
Network latency average = 33.342
	minimum = 7
	maximum = 77
Slowest packet = 54667
Flit latency average = 33.3323
	minimum = 7
	maximum = 77
Slowest flit = 54667
Fragmentation average = 0
	minimum = 0
	maximum = 0
Injected packet rate average = 0.010151
	minimum = 0.00533333 (at node 12)
	maximum = 0.014 (at node 57)
Accepted packet rate average = 0.0101406
	minimum = 0.00566667 (at node 53)
	maximum = 0.0133333 (at node 3)
Injected flit rate average = 0.010151
	minimum = 0.00533333 (at node 12)
	maximum = 0.014 (at node 57)
Accepted flit rate average= 0.0101406
	minimum = 0.00566667 (at node 53)
	maximum = 0.0133333 (at node 3)
Injected packet length average = 1
Accepted packet length average = 1
Total in-flight flits = 16 (16 measured)
latency change    = 0.00577009
throughput change = 0.00539291
Draining all recorded packets ...
Draining remaining packets ...
Time taken is 6096 cycles
Class 0:
Packet latency average = 32.8943
	minimum = 7
	maximum = 72
Network latency average = 32.8943
	minimum = 7
	maximum = 72
Slowest packet = 55476
Flit latency average = 32.8943
	minimum = 7
	maximum = 72
Slowest flit = 55476
Fragmentation average = 0
	minimum = 0
	maximum = 0
Injected packet rate average = 0.00928125
	minimum = 0.004 (at node 53)
	maximum = 0.014 (at node 8)
Accepted packet rate average = 0.00901562
	minimum = 0.001 (at node 2)
	maximum = 0.017 (at node 36)
Injected flit rate average = 0.00928125
	minimum = 0.004 (at node 53)
	maximum = 0.014 (at node 8)
Accepted flit rate average= 0.00901562
	minimum = 0.001 (at node 2)
	maximum = 0.017 (at node 36)
Injected packet length average = 1
Accepted packet length average = 1
Total in-flight flits = 17 (0 measured)
latency change    = 1
throughput change = 1
Class 0:
Packet latency average = 33.4
	minimum = 7
	maximum = 72
Network latency average = 33.4
	minimum = 7
	maximum = 72
Slowest packet = 55476
Flit latency average = 33.4
	minimum = 7
	maximum = 72
Slowest flit = 55476
Fragmentation average = 0
	minimum = 0
	maximum = 0
Injected packet rate average = 0.00963281
	minimum = 0.006 (at node 19)
	maximum = 0.017 (at node 26)
Accepted packet rate average = 0.009375
	minimum = 0.0045 (at node 39)
	maximum = 0.0165 (at node 36)
Injected flit rate average = 0.00963281
	minimum = 0.006 (at node 19)
	maximum = 0.017 (at node 26)
Accepted flit rate average= 0.009375
	minimum = 0.0045 (at node 39)
	maximum = 0.0165 (at node 36)
Injected packet length average = 1
Accepted packet length average = 1
Total in-flight flits = 33 (0 measured)
latency change    = 0.0151413
throughput change = 0.0383333
Class 0:
Packet latency average = 32.5187
	minimum = 7
	maximum = 72
Network latency average = 32.5187
	minimum = 7
	maximum = 72
Slowest packet = 56540
Flit latency average = 32.5187
	minimum = 7
	maximum = 72
Slowest flit = 56540
Fragmentation average = 0
	minimum = 0
	maximum = 0
Injected packet rate average = 0.00990625
	minimum = 0.003 (at node 58)
	maximum = 0.02 (at node 17)
Accepted packet rate average = 0.01
	minimum = 0.004 (at node 21)
	maximum = 0.02 (at node 61)
Injected flit rate average = 0.00990625
	minimum = 0.003 (at node 58)
	maximum = 0.02 (at node 17)
Accepted flit rate average= 0.01
	minimum = 0.004 (at node 21)
	maximum = 0.02 (at node 61)
Injected packet length average = 1
Accepted packet length average = 1
Total in-flight flits = 27 (0 measured)
latency change    = 0.0270998
throughput change = 0.0625
Warmed up ...Time used is 3000 cycles
Class 0:
Packet latency average = 33.1993
	minimum = 7
	maximum = 77
Network latency average = 33.1993
	minimum = 7
	maximum = 77
Slowest packet = 57451
Flit latency average = 33.2973
	minimum = 7
	maximum = 77
Slowest flit = 57451
Fragmentation average = 0
	minimum = 0
	maximum = 0
Injected packet rate average = 0.00985938
	minimum = 0.003 (at node 59)
	maximum = 0.017 (at node 1)
Accepted packet rate average = 0.00998438
	minimum = 0.004 (at node 17)
	maximum = 0.018 (at node 25)
Injected flit rate average = 0.00985938
	minimum = 0.003 (at node 59)
	maximum = 0.017 (at node 1)
Accepted flit rate average= 0.00998438
	minimum = 0.004 (at node 17)
	maximum = 0.018 (at node 25)
Injected packet length average = 1
Accepted packet length average = 1
Total in-flight flits = 19 (19 measured)
latency change    = 0.0205003
throughput change = 0.00156495
Class 0:
Packet latency average = 32.98
	minimum = 7
	maximum = 77
Network latency average = 32.98
	minimum = 7
	maximum = 77
Slowest packet = 57451
Flit latency average = 33.0337
	minimum = 7
	maximum = 77
Slowest flit = 57451
Fragmentation average = 0
	minimum = 0
	maximum = 0
Injected packet rate average = 0.00996875
	minimum = 0.006 (at node 10)
	maximum = 0.0145 (at node 19)
Accepted packet rate average = 0.00996875
	minimum = 0.0045 (at node 17)
	maximum = 0.0205 (at node 25)
Injected flit rate average = 0.00996875
	minimum = 0.006 (at node 10)
	maximum = 0.0145 (at node 19)
Accepted flit rate average= 0.00996875
	minimum = 0.0045 (at node 17)
	maximum = 0.0205 (at node 25)
[...]
Injected flit rate average = 0.00976562
	minimum = 0.004 (at node 13)
	maximum = 0.015 (at node 20)
Accepted flit rate average= 0.00965625
	minimum = 0.002 (at node 5)
	maximum = 0.018 (at node 63)
Injected packet length average = 1
Accepted packet length average = 1
Total in-flight flits = 25 (25 measured)
latency change    = 0.0177217
throughput change = 0.0372168
Class 0:
Packet latency average = 33.1464
	minimum = 7
	maximum = 77
Network latency average = 33.1464
	minimum = 7
	maximum = 77
Slowest packet = 406879
Flit latency average = 33.1459
	minimum = 7
	maximum = 77
Slowest flit = 406879
Fragmentation average = 0
	minimum = 0
	maximum = 0
Injected packet rate average = 0.0100469
	minimum = 0.0045 (at node 13)
	maximum = 0.014 (at node 45)
Accepted packet rate average = 0.0100156
	minimum = 0.006 (at node 12)
	maximum = 0.016 (at node 55)
Injected flit rate average = 0.0100469
	minimum = 0.0045 (at node 13)
	maximum = 0.014 (at node 45)
Accepted flit rate average= 0.0100156
	minimum = 0.006 (at node 12)
	maximum = 0.016 (at node 55)
Injected packet length average = 1
Accepted packet length average = 1
Total in-flight flits = 22 (22 measured)
latency change    = 0.00257361
throughput change = 0.0358814
Class 0:
Packet latency average = 33.2994
	minimum = 7
	maximum = 77
Network latency average = 33.2994
	minimum = 7
	maximum = 77
Slowest packet = 406879
Flit latency average = 33.2976
	minimum = 7
	maximum = 77
Slowest flit = 406879
Fragmentation average = 0
	minimum = 0
	maximum = 0
Injected packet rate average = 0.0101198
	minimum = 0.00633333 (at node 13)
	maximum = 0.0133333 (at node 41)
Accepted packet rate average = 0.0101146
	minimum = 0.005 (at node 51)
	maximum = 0.0143333 (at node 55)
Injected flit rate average = 0.0101198
	minimum = 0.00633333 (at node 13)
	maximum = 0.0133333 (at node 41)
Accepted flit rate average= 0.0101146
	minimum = 0.005 (at node 51)
	maximum = 0.0143333 (at node 55)
Injected packet length average = 1
Accepted packet length average = 1
Total in-flight flits = 19 (19 measured)
latency change    = 0.00459515
throughput change = 0.00978373
Draining all recorded packets ...
Draining remaining packets ...
Time taken is 6105 cycles
Class 0:
Packet latency average = 32.582
	minimum = 7
	maximum = 72
Network latency average = 32.582
	minimum = 7
	maximum = 72
Slowest packet = 408403
Flit latency average = 32.582
	minimum = 7
	maximum = 72
Slowest flit = 408403
Fragmentation average = 0
	minimum = 0
	maximum = 0
Injected packet rate average = 0.00995313
	minimum = 0.002 (at node 45)
	maximum = 0.018 (at node 52)
Accepted packet rate average = 0.00953125
	minimum = 0.002 (at node 15)
	maximum = 0.018 (at node 42)
Injected flit rate average = 0.00995313
	minimum = 0.002 (at node 45)
	maximum = 0.018 (at node 52)
Accepted flit rate average= 0.00953125
	minimum = 0.002 (at node 15)
	maximum = 0.018 (at node 42)
Injected packet length average = 1
Accepted packet length average = 1
Total in-flight flits = 27 (0 measured)
latency change    = 1
throughput change = 1
Class 0:
Packet latency average = 32.8658
	minimum = 7
	maximum = 77
Network latency average = 32.8658
	minimum = 7
	maximum = 77
Slowest packet = 409192
Flit latency average = 32.8658
	minimum = 7
	maximum = 77
Slowest flit = 409192
Fragmentation average = 0
	minimum = 0
	maximum = 0
Injected packet rate average = 0.00988281
	minimum = 0.0045 (at node 27)
	maximum = 0.016 (at node 24)
Accepted packet rate average = 0.00971875
	minimum = 0.0045 (at node 16)
	maximum = 0.017 (at node 61)
Injected flit rate average = 0.00988281
	minimum = 0.0045 (at node 27)
	maximum = 0.016 (at node 24)
Accepted flit rate average= 0.00971875
	minimum = 0.0045 (at node 16)
	maximum = 0.017 (at node 61)
Injected packet length average = 1
Accepted packet length average = 1
Total in-flight flits = 21 (0 measured)
latency change    = 0.00863478
throughput change = 0.0192926
Class 0:
Packet latency average = 33.8415
	minimum = 7
	maximum = 72
Network latency average = 33.8415
	minimum = 7
	maximum = 72
Slowest packet = 409619
Flit latency average = 33.8415
	minimum = 7
	maximum = 72
Slowest flit = 409619
Fragmentation average = 0
	minimum = 0
	maximum = 0
Injected packet rate average = 0.0101406
	minimum = 0.004 (at node 44)
	maximum = 0.018 (at node 5)
Accepted packet rate average = 0.0101563
	minimum = 0.005 (at node 4)
	maximum = 0.018 (at node 63)
Injected flit rate average = 0.0101406
	minimum = 0.004 (at node 44)
	maximum = 0.018 (at node 5)
Accepted flit rate average= 0.0101563
	minimum = 0.005 (at node 4)
	maximum = 0.018 (at node 63)
Injected packet length average = 1
Accepted packet length average = 1
Total in-flight flits = 20 (0 measured)
latency change    = 0.0288339
throughput change = 0.0430769
Warmed up ...Time used is 3000 cycles
Class 0:
Packet latency average = 33.5447
	minimum = 7
	maximum = 72
Network latency average = 33.5447
	minimum = 7
	maximum = 72
Slowest packet = 410642
Flit latency average = 33.7184
	minimum = 7
	maximum = 72
Slowest flit = 410642
Fragmentation average = 0
	minimum = 0
	maximum = 0
Injected packet rate average = 0.0103281
	minimum = 0.004 (at node 4)
	maximum = 0.021 (at node 15)
Accepted packet rate average = 0.0102656
	minimum = 0.002 (at node 25)
	maximum = 0.019 (at node 31)
Injected flit rate average = 0.0103281
	minimum = 0.004 (at node 4)
	maximum = 0.021 (at node 15)
Accepted flit rate average= 0.0102656
	minimum = 0.002 (at node 25)
	maximum = 0.019 (at node 31)
Injected packet length average = 1
Accepted packet length average = 1
Total in-flight flits = 24 (24 measured)
latency change    = 0.00884781
throughput change = 0.0106545
Class 0:
Packet latency average = 33.3466
	minimum = 7
	maximum = 72
Network latency average = 33.3466
	minimum = 7
	maximum = 72
Slowest packet = 410642
Flit latency average = 33.4374
	minimum = 7
	maximum = 72
Slowest flit = 410642
Fragmentation average = 0
	minimum = 0
	maximum = 0
Injected packet rate average = 0.0101641
	minimum = 0.0055 (at node 11)
	maximum = 0.0145 (at node 8)
Accepted packet rate average = 0.0101641
	minimum = 0.0045 (at node 17)
	maximum = 0.015 (at node 23)
Injected flit rate average = 0.0101641
	minimum = 0.0055 (at node 11)
	maximum = 0.0145 (at node 8)
Accepted flit rate average= 0.0101641
	minimum = 0.0045 (at node 17)
	maximum = 0.015 (at node 23)
Injected packet length average = 1
Accepted packet length average = 1
Total in-flight flits = 20 (20 measured)
latency change    = 0.00594174
throughput change = 0.00999231
Class 0:
Packet latency average = 32.9635
	minimum = 7
	maximum = 72
Network latency average = 32.9635
	minimum = 7
	maximum = 72
Slowest packet = 410642
Flit latency average = 33.0303
	minimum = 7
	maximum = 72
Slowest flit = 410642
Fragmentation average = 0
	minimum = 0
	maximum = 0
Injected packet rate average = 0.00979688
	minimum = 0.006 (at node 11)
	maximum = 0.0133333 (at node 42)
Accepted packet rate average = 0.00979688
	minimum = 0.006 (at node 51)
	maximum = 0.014 (at node 33)
Injected flit rate average = 0.00979688
	minimum = 0.006 (at node 11)
	maximum = 0.0133333 (at node 42)
Accepted flit rate average= 0.00979688
	minimum = 0.006 (at node 51)
	maximum = 0.014 (at node 33)
Injected packet length average = 1
Accepted packet length average = 1
Total in-flight flits = 20 (20 measured)
latency change    = 0.0116233
throughput change = 0.0374801
Draining all recorded packets ...
Draining remaining packets ...
Time taken is 6104 cycles
Class 0:
Packet latency average = 33.1993
	minimum = 7
	maximum = 77
Network latency average = 33.1993
	minimum = 7
	maximum = 77
Slowest packet = 412555
Flit latency average = 33.1993
	minimum = 7
	maximum = 77
Slowest flit = 412555
Fragmentation average = 0
	minimum = 0
	maximum = 0
Injected packet rate average = 0.00975
	minimum = 0.004 (at node 33)
	maximum = 0.019 (at node 48)
Accepted packet rate average = 0.00948437
	minimum = 0.004 (at node 11)
	maximum = 0.015 (at node 8)
Injected flit rate average = 0.00975
	minimum = 0.004 (at node 33)
	maximum = 0.019 (at node 48)
Accepted flit rate average= 0.00948437
	minimum = 0.004 (at node 11)
	maximum = 0.015 (at node 8)
Injected packet length average = 1
Accepted packet length average = 1
Total in-flight flits = 17 (0 measured)
latency change    = 1
throughput change = 1
Class 0:
Packet latency average = 33.6266
	minimum = 7
	maximum = 77
Network latency average = 33.6266
	minimum = 7
	maximum = 77
Slowest packet = 412555
Flit latency average = 33.6266
	minimum = 7
	maximum = 77
Slowest flit = 412555
Fragmentation average = 0
	minimum = 0
	maximum = 0
Injected packet rate average = 0.00945312
	minimum = 0.0045 (at node 51)
	maximum = 0.0145 (at node 43)
Accepted packet rate average = 0.00928906
	minimum = 0.0055 (at node 17)
	maximum = 0.0145 (at node 46)
Injected flit rate average = 0.00945312
	minimum = 0.0045 (at node 51)
	maximum = 0.0145 (at node 43)
Accepted flit rate average= 0.00928906
	minimum = 0.0055 (at node 17)
	maximum = 0.0145 (at node 46)
Injected packet length average = 1
Accepted packet length average = 1
Total in-flight flits = 21 (0 measured)
latency change    = 0.0127053
throughput change = 0.0210261
Class 0:
Packet latency average = 34.2132
	minimum = 7
	maximum = 73
Network latency average = 34.2132
	minimum = 7
	maximum = 73
Slowest packet = 413770
Flit latency average = 34.2132
	minimum = 7
	maximum = 73
Slowest flit = 413770
Fragmentation average = 0
	minimum = 0
	maximum = 0
Injected packet rate average = 0.0099375
	minimum = 0.002 (at node 6)
	maximum = 0.018 (at node 0)
Accepted packet rate average = 0.00996875
	minimum = 0.004 (at node 40)
	maximum = 0.016 (at node 24)
Injected flit rate average = 0.0099375
	minimum = 0.002 (at node 6)
	maximum = 0.018 (at node 0)
Accepted flit rate average= 0.00996875
	minimum = 0.004 (at node 40)
	maximum = 0.016 (at node 24)
Injected packet length average = 1
Accepted packet length average = 1
Total in-flight flits = 19 (0 measured)
latency change    = 0.0171451
throughput change = 0.0681818
Warmed up ...Time used is 3000 cycles
Class 0:
Packet latency average = 33.8831
	minimum = 7
	maximum = 72
Network latency average = 33.8831
	minimum = 7
	maximum = 72
Slowest packet = 414029
Flit latency average = 34.0276
	minimum = 7
	maximum = 72
Slowest flit = 414029
Fragmentation average = 0
	minimum = 0
	maximum = 0
Injected packet rate average = 0.0102031
	minimum = 0.002 (at node 15)
	maximum = 0.017 (at node 8)
Accepted packet rate average = 0.0101875
	minimum = 0.004 (at node 35)
	maximum = 0.017 (at node 14)
Injected flit rate average = 0.0102031
	minimum = 0.002 (at node 15)
	maximum = 0.017 (at node 8)
Accepted flit rate average= 0.0101875
	minimum = 0.004 (at node 35)
	maximum = 0.017 (at node 14)
Injected packet length average = 1
Accepted packet length average = 1
Total in-flight flits = 20 (20 measured)
latency change    = 0.00974143
throughput change = 0.0214724
Class 0:
Packet latency average = 33.6092
	minimum = 7
	maximum = 72
Network latency average = 33.6092
	minimum = 7
	maximum = 72
Slowest packet = 414029
Flit latency average = 33.684
	minimum = 7
	maximum = 72
Slowest flit = 414029
Fragmentation average = 0
	minimum = 0
	maximum = 0
Injected packet rate average = 0.0103672
	minimum = 0.005 (at node 21)
	maximum = 0.015 (at node 7)
Accepted packet rate average = 0.0103828
	minimum = 0.0055 (at node 55)
	maximum = 0.015 (at node 14)
Injected flit rate average = 0.0103672
	minimum = 0.005 (at node 21)
	maximum = 0.015 (at node 7)
Accepted flit rate average= 0.0103828
	minimum = 0.0055 (at node 55)
	maximum = 0.015 (at node 14)
Injected packet length average = 1
Accepted packet length average = 1
Total in-flight flits = 17 (17 measured)
latency change    = 0.00815064
throughput change = 0.0188111
Class 0:
Packet latency average = 33.4477
	minimum = 7
	maximum = 77
Network latency average = 33.4477
	minimum = 7
	maximum = 77
Slowest packet = 415611
Flit latency average = 33.5003
	minimum = 7
	maximum = 77
Slowest flit = 415611
Fragmentation average = 0
	minimum = 0
	maximum = 0
Injected packet rate average = 0.0101771
	minimum = 0.006 (at node 21)
	maximum = 0.0146667 (at node 47)
Accepted packet rate average = 0.010151
	minimum = 0.00733333 (at node 6)
	maximum = 0.0133333 (at node 58)
Injected flit rate average = 0.0101771
	minimum = 0.006 (at node 21)
	maximum = 0.0146667 (at node 47)
Accepted flit rate average= 0.010151
	minimum = 0.00733333 (at node 6)
	maximum = 0.0133333 (at node 58)
Injected packet length average = 1
Accepted packet length average = 1
Total in-flight flits = 24 (24 measured)
latency change    = 0.0048282
throughput change = 0.0228322
Draining all recorded packets ...
Draining remaining packets ...
Time taken is 6086 cycles
Class 0:
Packet latency average = 32.9285
	minimum = 7
	maximum = 77
Network latency average = 32.9285
	minimum = 7
	maximum = 77
Slowest packet = 416082
Flit latency average = 32.9285
	minimum = 7
	maximum = 77
Slowest flit = 416082
Fragmentation average = 0
	minimum = 0
	maximum = 0
Injected packet rate average = 0.01025
	minimum = 0.001 (at node 8)
	maximum = 0.02 (at node 9)
Accepted packet rate average = 0.0100469
	minimum = 0.004 (at node 15)
	maximum = 0.018 (at node 19)
Injected flit rate average = 0.01025
	minimum = 0.001 (at node 8)
	maximum = 0.02 (at node 9)
Accepted flit rate average= 0.0100469
	minimum = 0.004 (at node 15)
	maximum = 0.018 (at node 19)
Injected packet length average = 1
Accepted packet length average = 1
Total in-flight flits = 13 (0 measured)
latency change    = 1
throughput change = 1
Class 0:
Packet latency average = 33.1317
	minimum = 7
	maximum = 77
Network latency average = 33.1317
	minimum = 7
	maximum = 77
Slowest packet = 416082
Flit latency average = 33.1317
	minimum = 7
	maximum = 77
Slowest flit = 416082
Fragmentation average = 0
	minimum = 0
	maximum = 0
Injected packet rate average = 0.0102188
	minimum = 0.005 (at node 63)
	maximum = 0.019 (at node 0)
Accepted packet rate average = 0.0100234
	minimum = 0.006 (at node 15)
	maximum = 0.0145 (at node 14)
Injected flit rate average = 0.0102188
	minimum = 0.005 (at node 63)
	maximum = 0.019 (at node 0)
Accepted flit rate average= 0.0100234
	minimum = 0.006 (at node 15)
	maximum = 0.0145 (at node 14)
Injected packet length average = 1
Accepted packet length average = 1
Total in-flight flits = 25 (0 measured)
latency change    = 0.00613497
throughput change = 0.00233827
Class 0:
Packet latency average = 33.1789
	minimum = 7
	maximum = 77
Network latency average = 33.1789
	minimum = 7
	maximum = 77
Slowest packet = 417519
Flit latency average = 33.1789
	minimum = 7
	maximum = 77
Slowest flit = 417519
Fragmentation average = 0
	minimum = 0
	maximum = 0
Injected packet rate average = 0.0108594
	minimum = 0.005 (at node 0)
	maximum = 0.017 (at node 33)
Accepted packet rate average = 0.0108281
	minimum = 0.006 (at node 17)
	maximum = 0.016 (at node 28)
Injected flit rate average = 0.0108594
	minimum = 0.005 (at node 0)
	maximum = 0.017 (at node 33)
Accepted flit rate average= 0.0108281
	minimum = 0.006 (at node 17)
	maximum = 0.016 (at node 28)
Injected packet length average = 1
Accepted packet length average = 1
Total in-flight flits = 27 (0 measured)
latency change    = 0.00142288
throughput change = 0.0743146
Warmed up ...Time used is 3000 cycles
Class 0:
Packet latency average = 32.5373
	minimum = 7
	maximum = 72
Network latency average = 32.5373
	minimum = 7
	maximum = 72
Slowest packet = 418286
Flit latency average = 32.7365
	minimum = 7
	maximum = 72
Slowest flit = 418286
Fragmentation average = 0
	minimum = 0
	maximum = 0
Injected packet rate average = 0.00984375
	minimum = 0.002 (at node 20)
	maximum = 0.017 (at node 35)
Accepted packet rate average = 0.00984375
	minimum = 0.004 (at node 56)
	maximum = 0.018 (at node 25)
Injected flit rate average = 0.00984375
	minimum = 0.002 (at node 20)
	maximum = 0.017 (at node 35)
Accepted flit rate average= 0.00984375
	minimum = 0.004 (at node 56)
	maximum = 0.018 (at node 25)
Injected packet length average = 1
Accepted packet length average = 1
Total in-flight flits = 27 (27 measured)
latency change    = 0.0197195
throughput change = 0.1
Class 0:
Packet latency average = 33.485
	minimum = 7
	maximum = 72
Network latency average = 33.485
	minimum = 7
	maximum = 72
Slowest packet = 418286
Flit latency average = 33.5604
	minimum = 7
	maximum = 72
Slowest flit = 418286
Fragmentation average = 0
	minimum = 0
	maximum = 0
Injected packet rate average = 0.0103047
	minimum = 0.0055 (at node 20)
	maximum = 0.016 (at node 47)
Accepted packet rate average = 0.0103438
	minimum = 0.0065 (at node 36)
	maximum = 0.017 (at node 32)
Injected flit rate average = 0.0103047
	minimum = 0.0055 (at node 20)
	maximum = 0.016 (at node 47)
Accepted flit rate average= 0.0103438
	minimum = 0.0065 (at node 36)
	maximum = 0.017 (at node 32)
Injected packet length average = 1
Accepted packet length average = 1
Total in-flight flits = 22 (22 measured)
latency change    = 0.0283008
throughput change = 0.0483384
Class 0:
Packet latency average = 33.1513
	minimum = 7
	maximum = 77
Network latency average = 33.1513
	minimum = 7
	maximum = 77
Slowest packet = 419317
Flit latency average = 33.2086
	minimum = 7
	maximum = 77
Slowest flit = 419317
Fragmentation average = 0
	minimum = 0
	maximum = 0
Injected packet rate average = 0.00986979
	minimum = 0.006 (at node 20)
	maximum = 0.014 (at node 47)
Accepted packet rate average = 0.00988542
	minimum = 0.00633333 (at node 36)
	maximum = 0.0133333 (at node 32)
Injected flit rate average = 0.00986979
	minimum = 0.006 (at node 20)
	maximum = 0.014 (at node 47)
Accepted flit rate average= 0.00988542
	minimum = 0.00633333 (at node 36)
	maximum = 0.0133333 (at node 32)
Injected packet length average = 1
Accepted packet length average = 1
Total in-flight flits = 24 (24 measured)
latency change    = 0.0100663
throughput change = 0.0463646
Class 0:
Packet latency average = 33.2413
	minimum = 7
	maximum = 77
Network latency average = 33.2413
	minimum = 7
	maximum = 77
Slowest packet = 419317
Flit latency average = 33.2831
	minimum = 7
	maximum = 77
Slowest flit = 419317
Fragmentation average = 0
	minimum = 0
	maximum = 0
Injected packet rate average = 0.00990234
	minimum = 0.007 (at node 20)
	maximum = 0.01325 (at node 47)
Accepted packet rate average = 0.00993359
	minimum = 0.0065 (at node 41)
	maximum = 0.0135 (at node 43)
Injected flit rate average = 0.00990234
	minimum = 0.007 (at node 20)
	maximum = 0.01325 (at node 47)
Accepted flit rate average= 0.00993359
	minimum = 0.0065 (at node 41)
	maximum = 0.0135 (at node 43)
Injected packet length average = 1
Accepted packet length average = 1
Total in-flight flits = 19 (19 measured)
latency change    = 0.00270748
throughput change = 0.00484991
Draining all recorded packets ...
Draining remaining packets ...
Time taken is 7076 cycles
====== Overall Traffic Statistics ======
====== Traffic class 0 ======
Packet latency average = 33.2952 (100 samples)
	minimum = 7 (100 samples)
	maximum = 76.4 (100 samples)
Network latency average = 33.2952 (100 samples)
	minimum = 7 (100 samples)
	maximum = 76.4 (100 samples)
Flit latency average = 33.3446 (100 samples)
	minimum = 7 (100 samples)
	maximum = 76.4 (100 samples)
Fragmentation average = 0 (100 samples)
	minimum = 0 (100 samples)
	maximum = 0 (100 samples)
Injected packet rate average = 0.0100331 (100 samples)
	minimum = 0.0062535 (100 samples)
	maximum = 0.0142807 (100 samples)
Accepted packet rate average = 0.0100342 (100 samples)
	minimum = 0.006211 (100 samples)
	maximum = 0.0143822 (100 samples)
Injected flit rate average = 0.0100331 (100 samples)
	minimum = 0.0062535 (100 samples)
	maximum = 0.0142807 (100 samples)
Accepted flit rate average = 0.0100342 (100 samples)
	minimum = 0.006211 (100 samples)
	maximum = 0.0143822 (100 samples)
Injected packet size average = 1 (100 samples)
Accepted packet size average = 1 (100 samples)
Hops average = 6.25505 (100 samples)
Total run time 47.9634
