BEGIN Configuration File: /tmp/tmpemuj5mim.cfg
topology = mesh;
k = 8; n = 2;
routing_function = gnn_port_score_route_8x8_v4;
num_vcs = 4; vc_buf_size = 4;
wait_for_tail_credit = 1;
vc_allocator = islip; sw_allocator = islip;
alloc_iters = 1;
credit_delay = 2; routing_delay = 1;
vc_alloc_delay = 1; sw_alloc_delay = 1;
input_speedup = 2; output_speedup = 1; internal_speedup = 1.0;
traffic = transpose;
packet_size = 1; sim_type = latency;
injection_rate = 0.01;
warmup_periods = 3; sample_period = 1000; sim_count = 100;
seed = 4;

END Configuration File: /tmp/tmpemuj5mim.cfg
Class 0:
Packet latency average = 34.5528
	minimum = 7
	maximum = 91
Network latency average = 34.5528
	minimum = 7
	maximum = 91
Slowest packet = 474
Flit latency average = 34.5528
	minimum = 7
	maximum = 91
Slowest flit = 474
Fragmentation average = 0
	minimum = 0
	maximum = 0
Injected packet rate average = 0.00971875
	minimum = 0.004 (at node 8)
	maximum = 0.018 (at node 34)
Accepted packet rate average = 0.00932812
	minimum = 0.003 (at node 1)
	maximum = 0.018 (at node 20)
Injected flit rate average = 0.00971875
	minimum = 0.004 (at node 8)
	maximum = 0.018 (at node 34)
Accepted flit rate average= 0.00932812
	minimum = 0.003 (at node 1)
	maximum = 0.018 (at node 20)
Injected packet length average = 1
Accepted packet length average = 1
Total in-flight flits = 25 (0 measured)
latency change    = 1
throughput change = 1
Class 0:
Packet latency average = 34.0878
	minimum = 7
	maximum = 91
Network latency average = 34.0878
	minimum = 7
	maximum = 91
Slowest packet = 474
Flit latency average = 34.0878
	minimum = 7
	maximum = 91
Slowest flit = 474
Fragmentation average = 0
	minimum = 0
	maximum = 0
Injected packet rate average = 0.0102344
	minimum = 0.0055 (at node 41)
	maximum = 0.019 (at node 61)
Accepted packet rate average = 0.0100547
	minimum = 0.0055 (at node 13)
	maximum = 0.019 (at node 47)
Injected flit rate average = 0.0102344
	minimum = 0.0055 (at node 41)
	maximum = 0.019 (at node 61)
Accepted flit rate average= 0.0100547
	minimum = 0.0055 (at node 13)
	maximum = 0.019 (at node 47)
Injected packet length average = 1
Accepted packet length average = 1
Total in-flight flits = 23 (0 measured)
latency change    = 0.0136402
throughput change = 0.0722611
Class 0:
Packet latency average = 33.8762
	minimum = 7
	maximum = 83
Network latency average = 33.8762
	minimum = 7
	maximum = 83
Slowest packet = 1745
Flit latency average = 33.8762
	minimum = 7
	maximum = 83
Slowest flit = 1745
Fragmentation average = 0
	minimum = 0
	maximum = 0
Injected packet rate average = 0.00935937
	minimum = 0.003 (at node 17)
	maximum = 0.017 (at node 21)
Accepted packet rate average = 0.00946875
	minimum = 0.003 (at node 10)
	maximum = 0.018 (at node 39)
Injected flit rate average = 0.00935937
	minimum = 0.003 (at node 17)
	maximum = 0.017 (at node 21)
Accepted flit rate average= 0.00946875
	minimum = 0.003 (at node 10)
	maximum = 0.018 (at node 39)
Injected packet length average = 1
Accepted packet length average = 1
Total in-flight flits = 16 (0 measured)
latency change    = 0.00624519
throughput change = 0.0618812
Warmed up ...Time used is 3000 cycles
Class 0:
Packet latency average = 33.9219
	minimum = 7
	maximum = 85
Network latency average = 33.9219
	minimum = 7
	maximum = 85
Slowest packet = 2055
Flit latency average = 34.0858
	minimum = 7
	maximum = 85
Slowest flit = 2055
Fragmentation average = 0
	minimum = 0
	maximum = 0
Injected packet rate average = 0.00976562
	minimum = 0.003 (at node 12)
	maximum = 0.019 (at node 15)
Accepted packet rate average = 0.00965625
	minimum = 0.002 (at node 33)
	maximum = 0.019 (at node 57)
Injected flit rate average = 0.00976562
	minimum = 0.003 (at node 12)
	maximum = 0.019 (at node 15)
Accepted flit rate average= 0.00965625
	minimum = 0.002 (at node 33)
	maximum = 0.019 (at node 57)
Injected packet length average = 1
Accepted packet length average = 1
Total in-flight flits = 23 (23 measured)
latency change    = 0.0013469
throughput change = 0.0194175
Class 0:
Packet latency average = 33.7463
	minimum = 7
	maximum = 86
Network latency average = 33.7463
	minimum = 7
	maximum = 86
Slowest packet = 2751
Flit latency average = 33.8265
	minimum = 7
	maximum = 86
Slowest flit = 2751
Fragmentation average = 0
	minimum = 0
	maximum = 0
Injected packet rate average = 0.0101797
	minimum = 0.006 (at node 13)
	maximum = 0.0165 (at node 15)
Accepted packet rate average = 0.0101328
	minimum = 0.006 (at node 23)
	maximum = 0.0165 (at node 38)
Injected flit rate average = 0.0101797
	minimum = 0.006 (at node 13)
	maximum = 0.0165 (at node 15)
Accepted flit rate average= 0.0101328
	minimum = 0.006 (at node 23)
	maximum = 0.0165 (at node 38)
Injected packet length average = 1
Accepted packet length average = 1
Total in-flight flits = 22 (22 measured)
latency change    = 0.00520457
throughput change = 0.0470316
Class 0:
Packet latency average = 33.3826
	minimum = 7
	maximum = 86
Network latency average = 33.3826
	minimum = 7
	maximum = 86
Slowest packet = 2751
Flit latency average = 33.4393
	minimum = 7
	maximum = 86
Slowest flit = 2751
Fragmentation average = 0
	minimum = 0
	maximum = 0
Injected packet rate average = 0.0101563
	minimum = 0.00666667 (at node 54)
	maximum = 0.0163333 (at node 15)
Accepted packet rate average = 0.0100885
	minimum = 0.00666667 (at node 54)
	maximum = 0.0156667 (at node 19)
Injected flit rate average = 0.0101563
	minimum = 0.00666667 (at node 54)
	maximum = 0.0163333 (at node 15)
Accepted flit rate average= 0.0100885
	minimum = 0.00666667 (at node 54)
	maximum = 0.0156667 (at node 19)
Injected packet length average = 1
Accepted packet length average = 1
Total in-flight flits = 29 (29 measured)
latency change    = 0.0108943
throughput change = 0.00438823
Draining all recorded packets ...
Draining remaining packets ...
Time taken is 6136 cycles
Class 0:
Packet latency average = 32.4606
	minimum = 7
	maximum = 81
Network latency average = 32.4606
	minimum = 7
	maximum = 81
Slowest packet = 4458
Flit latency average = 32.4606
	minimum = 7
	maximum = 81
Slowest flit = 4458
Fragmentation average = 0
	minimum = 0
	maximum = 0
Injected packet rate average = 0.0102188
	minimum = 0.003 (at node 3)
	maximum = 0.018 (at node 46)
Accepted packet rate average = 0.00990625
	minimum = 0.003 (at node 24)
	maximum = 0.017 (at node 25)
Injected flit rate average = 0.0102188
	minimum = 0.003 (at node 3)
	maximum = 0.018 (at node 46)
Accepted flit rate average= 0.00990625
	minimum = 0.003 (at node 24)
	maximum = 0.017 (at node 25)
Injected packet length average = 1
Accepted packet length average = 1
Total in-flight flits = 20 (0 measured)
latency change    = 1
throughput change = 1
Class 0:
Packet latency average = 32.6538
	minimum = 7
	maximum = 86
Network latency average = 32.6538
	minimum = 7
	maximum = 86
Slowest packet = 4877
Flit latency average = 32.6538
	minimum = 7
	maximum = 86
Slowest flit = 4877
Fragmentation average = 0
	minimum = 0
	maximum = 0
Injected packet rate average = 0.010125
	minimum = 0.006 (at node 3)
	maximum = 0.0155 (at node 39)
Accepted packet rate average = 0.00990625
	minimum = 0.0055 (at node 24)
	maximum = 0.015 (at node 60)
Injected flit rate average = 0.010125
	minimum = 0.006 (at node 3)
	maximum = 0.0155 (at node 39)
Accepted flit rate average= 0.00990625
	minimum = 0.0055 (at node 24)
	maximum = 0.015 (at node 60)
Injected packet length average = 1
Accepted packet length average = 1
Total in-flight flits = 28 (0 measured)
latency change    = 0.00591716
throughput change = 0
Class 0:
Packet latency average = 33.4288
	minimum = 7
	maximum = 85
Network latency average = 33.4288
	minimum = 7
	maximum = 85
Slowest packet = 5227
Flit latency average = 33.4288
	minimum = 7
	maximum = 85
Slowest flit = 5227
Fragmentation average = 0
	minimum = 0
	maximum = 0
Injected packet rate average = 0.0107812
	minimum = 0.001 (at node 37)
	maximum = 0.019 (at node 38)
Accepted packet rate average = 0.0108594
	minimum = 0.001 (at node 44)
	maximum = 0.02 (at node 52)
Injected flit rate average = 0.0107812
	minimum = 0.001 (at node 37)
	maximum = 0.019 (at node 38)
Accepted flit rate average= 0.0108594
	minimum = 0.001 (at node 44)
	maximum = 0.02 (at node 52)
Injected packet length average = 1
Accepted packet length average = 1
Total in-flight flits = 23 (0 measured)
latency change    = 0.0231834
throughput change = 0.0877698
Warmed up ...Time used is 3000 cycles
Class 0:
Packet latency average = 33.0238
	minimum = 7
	maximum = 82
Network latency average = 33.0238
	minimum = 7
	maximum = 82
Slowest packet = 6030
Flit latency average = 33.5874
	minimum = 7
	maximum = 82
Slowest flit = 6030
Fragmentation average = 0
	minimum = 0
	maximum = 0
Injected packet rate average = 0.0100313
	minimum = 0.002 (at node 17)
	maximum = 0.017 (at node 61)
Accepted packet rate average = 0.0101875
	minimum = 0.002 (at node 10)
	maximum = 0.016 (at node 25)
Injected flit rate average = 0.0100313
	minimum = 0.002 (at node 17)
	maximum = 0.017 (at node 61)
Accepted flit rate average= 0.0101875
	minimum = 0.002 (at node 10)
	maximum = 0.016 (at node 25)
Injected packet length average = 1
Accepted packet length average = 1
Total in-flight flits = 13 (13 measured)
latency change    = 0.0122617
throughput change = 0.0659509
Class 0:
Packet latency average = 33.8488
	minimum = 7
	maximum = 82
Network latency average = 33.8488
	minimum = 7
	maximum = 82
Slowest packet = 6030
Flit latency average = 34.109
	minimum = 7
	maximum = 82
Slowest flit = 6030
Fragmentation average = 0
	minimum = 0
	maximum = 0
Injected packet rate average = 0.0104297
	minimum = 0.005 (at node 17)
	maximum = 0.015 (at node 41)
Accepted packet rate average = 0.0104609
	minimum = 0.005 (at node 10)
	maximum = 0.016 (at node 13)
Injected flit rate average = 0.0104297
	minimum = 0.005 (at node 17)
	maximum = 0.015 (at node 41)
Accepted flit rate average= 0.0104609
	minimum = 0.005 (at node 10)
	maximum = 0.016 (at node 13)
Injected packet length average = 1
Accepted packet length average = 1
Total in-flight flits = 19 (19 measured)
latency change    = 0.0243712
throughput change = 0.0261389
Class 0:
Packet latency average = 33.8599
	minimum = 7
	maximum = 82
Network latency average = 33.8599
	minimum = 7
	maximum = 82
Slowest packet = 6030
Flit latency average = 34.0391
	minimum = 7
	maximum = 82
Slowest flit = 6030
Fragmentation average = 0
	minimum = 0
	maximum = 0
Injected packet rate average = 0.0100625
	minimum = 0.00566667 (at node 54)
	maximum = 0.014 (at node 13)
Accepted packet rate average = 0.0101198
	minimum = 0.00566667 (at node 54)
	maximum = 0.014 (at node 13)
Injected flit rate average = 0.0100625
	minimum = 0.00566667 (at node 54)
	maximum = 0.014 (at node 13)
Accepted flit rate average= 0.0101198
	minimum = 0.00566667 (at node 54)
	maximum = 0.014 (at node 13)
Injected packet length average = 1
Accepted packet length average = 1
Total in-flight flits = 12 (12 measured)
latency change    = 0.000328165
throughput change = 0.0337108
Class 0:
Packet latency average = 33.6251
	minimum = 7
	maximum = 83
Network latency average = 33.6251
	minimum = 7
	maximum = 83
Slowest packet = 8177
Flit latency average = 33.7616
	minimum = 7
	maximum = 83
Slowest flit = 8177
Fragmentation average = 0
	minimum = 0
	maximum = 0
Injected packet rate average = 0.0101133
	minimum = 0.00575 (at node 54)
	maximum = 0.0135 (at node 61)
Accepted packet rate average = 0.010125
	minimum = 0.00575 (at node 54)
	maximum = 0.0135 (at node 47)
Injected flit rate average = 0.0101133
	minimum = 0.00575 (at node 54)
	maximum = 0.0135 (at node 61)
Accepted flit rate average= 0.010125
	minimum = 0.00575 (at node 54)
	maximum = 0.0135 (at node 47)
Injected packet length average = 1
Accepted packet length average = 1
Total in-flight flits = 20 (20 measured)
latency change    = 0.00698138
throughput change = 0.000514403
Draining all recorded packets ...
Draining remaining packets ...
Time taken is 7107 cycles
Class 0:
Packet latency average = 32.9181
	minimum = 7
	maximum = 84
Network latency average = 32.9181
	minimum = 7
	maximum = 84
Slowest packet = 8649
Flit latency average = 32.9181
	minimum = 7
	maximum = 84
Slowest flit = 8649
Fragmentation average = 0
	minimum = 0
	maximum = 0
Injected packet rate average = 0.00915625
	minimum = 0.003 (at node 32)
	maximum = 0.017 (at node 12)
Accepted packet rate average = 0.00878125
	minimum = 0.002 (at node 4)
	maximum = 0.017 (at node 46)
Injected flit rate average = 0.00915625
	minimum = 0.003 (at node 32)
	maximum = 0.017 (at node 12)
Accepted flit rate average= 0.00878125
	minimum = 0.002 (at node 4)
	maximum = 0.017 (at node 46)
Injected packet length average = 1
Accepted packet length average = 1
Total in-flight flits = 24 (0 measured)
latency change    = 1
throughput change = 1
Class 0:
Packet latency average = 33.6036
	minimum = 7
	maximum = 84
Network latency average = 33.6036
	minimum = 7
	maximum = 84
Slowest packet = 8649
Flit latency average = 33.6036
	minimum = 7
	maximum = 84
Slowest flit = 8649
Fragmentation average = 0
	minimum = 0
	maximum = 0
Injected packet rate average = 0.00932812
	minimum = 0.0035 (at node 32)
	maximum = 0.0155 (at node 53)
Accepted packet rate average = 0.00920312
	minimum = 0.0035 (at node 4)
	maximum = 0.0155 (at node 46)
Injected flit rate average = 0.00932812
	minimum = 0.0035 (at node 32)
	maximum = 0.0155 (at node 53)
Accepted flit rate average= 0.00920312
	minimum = 0.0035 (at node 4)
	maximum = 0.0155 (at node 46)
Injected packet length average = 1
Accepted packet length average = 1
Total in-flight flits = 16 (0 measured)
latency change    = 0.0203971
throughput change = 0.0458404
Class 0:
Packet latency average = 33.2683
	minimum = 7
	maximum = 84
Network latency average = 33.2683
	minimum = 7
	maximum = 84
Slowest packet = 9885
Flit latency average = 33.2683
	minimum = 7
	maximum = 84
Slowest flit = 9885
Fragmentation average = 0
	minimum = 0
	maximum = 0
Injected packet rate average = 0.0105
	minimum = 0.005 (at node 6)
	maximum = 0.02 (at node 22)
Accepted packet rate average = 0.0104844
	minimum = 0.005 (at node 9)
	maximum = 0.021 (at node 50)
Injected flit rate average = 0.0105
	minimum = 0.005 (at node 6)
	maximum = 0.02 (at node 22)
Accepted flit rate average= 0.0104844
	minimum = 0.005 (at node 9)
	maximum = 0.021 (at node 50)
Injected packet length average = 1
Accepted packet length average = 1
Total in-flight flits = 17 (0 measured)
latency change    = 0.0100789
throughput change = 0.122206
Warmed up ...Time used is 3000 cycles
Class 0:
Packet latency average = 32.7094
	minimum = 7
	maximum = 84
Network latency average = 32.7094
	minimum = 7
	maximum = 84
Slowest packet = 10809
Flit latency average = 33.1169
	minimum = 7
	maximum = 84
Slowest flit = 10809
Fragmentation average = 0
	minimum = 0
	maximum = 0
Injected packet rate average = 0.00995313
	minimum = 0.003 (at node 60)
	maximum = 0.019 (at node 39)
Accepted packet rate average = 0.00989063
	minimum = 0.003 (at node 39)
	maximum = 0.019 (at node 60)
Injected flit rate average = 0.00995313
	minimum = 0.003 (at node 60)
	maximum = 0.019 (at node 39)
Accepted flit rate average= 0.00989063
	minimum = 0.003 (at node 39)
	maximum = 0.019 (at node 60)
Injected packet length average = 1
Accepted packet length average = 1
Total in-flight flits = 21 (21 measured)
latency change    = 0.017085
throughput change = 0.0600316
Class 0:
Packet latency average = 33.1396
	minimum = 7
	maximum = 84
Network latency average = 33.1396
	minimum = 7
	maximum = 84
Slowest packet = 10809
Flit latency average = 33.3392
	minimum = 7
	maximum = 84
Slowest flit = 10809
Fragmentation average = 0
	minimum = 0
	maximum = 0
Injected packet rate average = 0.00985938
	minimum = 0.0035 (at node 60)
	maximum = 0.0145 (at node 39)
Accepted packet rate average = 0.0098125
	minimum = 0.004 (at node 39)
	maximum = 0.0145 (at node 60)
Injected flit rate average = 0.00985938
	minimum = 0.0035 (at node 60)
	maximum = 0.0145 (at node 39)
Accepted flit rate average= 0.0098125
	minimum = 0.004 (at node 39)
	maximum = 0.0145 (at node 60)
Injected packet length average = 1
Accepted packet length average = 1
Total in-flight flits = 23 (23 measured)
latency change    = 0.0129818
throughput change = 0.00796178
Class 0:
Packet latency average = 33.4148
	minimum = 7
	maximum = 84
Network latency average = 33.4148
	minimum = 7
	maximum = 84
Slowest packet = 10809
Flit latency average = 33.545
	minimum = 7
	maximum = 84
Slowest flit = 10809
Fragmentation average = 0
	minimum = 0
	maximum = 0
Injected packet rate average = 0.00988542
	minimum = 0.00666667 (at node 32)
	maximum = 0.0136667 (at node 33)
Accepted packet rate average = 0.00984375
	minimum = 0.00666667 (at node 4)
	maximum = 0.0133333 (at node 12)
Injected flit rate average = 0.00988542
	minimum = 0.00666667 (at node 32)
	maximum = 0.0136667 (at node 33)
Accepted flit rate average= 0.00984375
	minimum = 0.00666667 (at node 4)
	maximum = 0.0133333 (at node 12)
Injected packet length average = 1
Accepted packet length average = 1
Total in-flight flits = 25 (25 measured)
latency change    = 0.00823627
throughput change = 0.0031746
Class 0:
Packet latency average = 33.2132
	minimum = 7
	maximum = 86
Network latency average = 33.2132
	minimum = 7
	maximum = 86
Slowest packet = 12830
Flit latency average = 33.3114
	minimum = 7
	maximum = 86
Slowest flit = 12830
Fragmentation average = 0
	minimum = 0
	maximum = 0
Injected packet rate average = 0.00991016
	minimum = 0.007 (at node 38)
	maximum = 0.0135 (at node 39)
Accepted packet rate average = 0.00992188
	minimum = 0.007 (at node 45)
	maximum = 0.01325 (at node 60)
Injected flit rate average = 0.00991016
	minimum = 0.007 (at node 38)
	maximum = 0.0135 (at node 39)
Accepted flit rate average= 0.00992188
	minimum = 0.007 (at node 45)
	maximum = 0.01325 (at node 60)
Injected packet length average = 1
Accepted packet length average = 1
Total in-flight flits = 14 (14 measured)
latency change    = 0.00607
throughput change = 0.00787402
Draining all recorded packets ...
Draining remaining packets ...
Time taken is 7122 cycles
Class 0:
Packet latency average = 33.9952
	minimum = 7
	maximum = 78
Network latency average = 33.9952
	minimum = 7
	maximum = 78
Slowest packet = 13344
Flit latency average = 33.9952
	minimum = 7
	maximum = 78
Slowest flit = 13344
Fragmentation average = 0
	minimum = 0
	maximum = 0
Injected packet rate average = 0.0100156
	minimum = 0.004 (at node 52)
	maximum = 0.015 (at node 16)
Accepted packet rate average = 0.00973437
	minimum = 0.004 (at node 6)
	maximum = 0.015 (at node 2)
Injected flit rate average = 0.0100156
	minimum = 0.004 (at node 52)
	maximum = 0.015 (at node 16)
Accepted flit rate average= 0.00973437
	minimum = 0.004 (at node 6)
	maximum = 0.015 (at node 2)
Injected packet length average = 1
Accepted packet length average = 1
Total in-flight flits = 18 (0 measured)
latency change    = 1
throughput change = 1
Class 0:
Packet latency average = 34.0668
	minimum = 7
	maximum = 84
Network latency average = 34.0668
	minimum = 7
	maximum = 84
Slowest packet = 14001
Flit latency average = 34.0668
	minimum = 7
	maximum = 84
Slowest flit = 14001
Fragmentation average = 0
	minimum = 0
	maximum = 0
Injected packet rate average = 0.0103047
	minimum = 0.0055 (at node 22)
	maximum = 0.0155 (at node 51)
Accepted packet rate average = 0.0101719
	minimum = 0.0055 (at node 44)
	maximum = 0.0155 (at node 30)
Injected flit rate average = 0.0103047
	minimum = 0.0055 (at node 22)
	maximum = 0.0155 (at node 51)
Accepted flit rate average= 0.0101719
	minimum = 0.0055 (at node 44)
	maximum = 0.0155 (at node 30)
Injected packet length average = 1
Accepted packet length average = 1
Total in-flight flits = 17 (0 measured)
latency change    = 0.0021028
throughput change = 0.0430108
Class 0:
Packet latency average = 31.4677
	minimum = 7
	maximum = 78
Network latency average = 31.4677
	minimum = 7
	maximum = 78
Slowest packet = 14401
Flit latency average = 31.4677
	minimum = 7
	maximum = 78
Slowest flit = 14401
Fragmentation average = 0
	minimum = 0
	maximum = 0
Injected packet rate average = 0.0100938
	minimum = 0.004 (at node 13)
	maximum = 0.017 (at node 20)
Accepted packet rate average = 0.00992188
	minimum = 0.003 (at node 41)
	maximum = 0.018 (at node 63)
Injected flit rate average = 0.0100938
	minimum = 0.004 (at node 13)
	maximum = 0.017 (at node 20)
Accepted flit rate average= 0.00992188
	minimum = 0.003 (at node 41)
	maximum = 0.018 (at node 63)
Injected packet length average = 1
Accepted packet length average = 1
Total in-flight flits = 28 (0 measured)
latency change    = 0.0825959
throughput change = 0.0251969
Warmed up ...Time used is 3000 cycles
Class 0:
Packet latency average = 32.8775
	minimum = 7
	maximum = 85
Network latency average = 32.8775
	minimum = 7
	maximum = 85
Slowest packet = 15132
Flit latency average = 33.4968
	minimum = 7
	maximum = 85
Slowest flit = 15132
Fragmentation average = 0
	minimum = 0
	maximum = 0
Injected packet rate average = 0.009625
	minimum = 0.004 (at node 28)
	maximum = 0.016 (at node 5)
Accepted packet rate average = 0.00975
	minimum = 0.004 (at node 12)
	maximum = 0.016 (at node 19)
Injected flit rate average = 0.009625
	minimum = 0.004 (at node 28)
	maximum = 0.016 (at node 5)
Accepted flit rate average= 0.00975
	minimum = 0.004 (at node 12)
	maximum = 0.016 (at node 19)
Injected packet length average = 1
Accepted packet length average = 1
Total in-flight flits = 20 (20 measured)
latency change    = 0.0428804
throughput change = 0.0176282
Class 0:
Packet latency average = 33.0459
	minimum = 7
	maximum = 85
Network latency average = 33.0459
	minimum = 7
	maximum = 85
Slowest packet = 15132
Flit latency average = 33.352
	minimum = 7
	maximum = 85
Slowest flit = 15132
Fragmentation average = 0
	minimum = 0
	maximum = 0
Injected packet rate average = 0.0096875
	minimum = 0.0055 (at node 25)
	maximum = 0.014 (at node 32)
Accepted packet rate average = 0.00974219
	minimum = 0.0055 (at node 11)
	maximum = 0.014 (at node 4)
Injected flit rate average = 0.0096875
	minimum = 0.0055 (at node 25)
	maximum = 0.014 (at node 32)
Accepted flit rate average= 0.00974219
	minimum = 0.0055 (at node 11)
	maximum = 0.014 (at node 4)
Injected packet length average = 1
Accepted packet length average = 1
Total in-flight flits = 21 (21 measured)
latency change    = 0.00509662
throughput change = 0.000801925
Class 0:
Packet latency average = 33.1394
	minimum = 7
	maximum = 85
Network latency average = 33.1394
	minimum = 7
	maximum = 85
Slowest packet = 15132
Flit latency average = 33.3411
	minimum = 7
	maximum = 85
Slowest flit = 15132
Fragmentation average = 0
	minimum = 0
	maximum = 0
Injected packet rate average = 0.00971875
	minimum = 0.00533333 (at node 25)
	maximum = 0.0143333 (at node 32)
Accepted packet rate average = 0.00978646
	minimum = 0.00533333 (at node 11)
	maximum = 0.0143333 (at node 4)
Injected flit rate average = 0.00971875
	minimum = 0.00533333 (at node 25)
	maximum = 0.0143333 (at node 32)
Accepted flit rate average= 0.00978646
	minimum = 0.00533333 (at node 11)
	maximum = 0.0143333 (at node 4)
Injected packet length average = 1
Accepted packet length average = 1
Total in-flight flits = 15 (15 measured)
latency change    = 0.00281975
throughput change = 0.00452368
Draining all recorded packets ...
Draining remaining packets ...
Time taken is 6118 cycles
Class 0:
Packet latency average = 35.0971
	minimum = 7
	maximum = 82
Network latency average = 35.0971
	minimum = 7
	maximum = 82
Slowest packet = 16951
Flit latency average = 35.0971
	minimum = 7
	maximum = 82
Slowest flit = 16951
Fragmentation average = 0
	minimum = 0
	maximum = 0
Injected packet rate average = 0.0100156
	minimum = 0.005 (at node 2)
	maximum = 0.017 (at node 44)
Accepted packet rate average = 0.00965625
	minimum = 0.005 (at node 2)
	maximum = 0.016 (at node 28)
Injected flit rate average = 0.0100156
	minimum = 0.005 (at node 2)
	maximum = 0.017 (at node 44)
Accepted flit rate average= 0.00965625
	minimum = 0.005 (at node 2)
	maximum = 0.016 (at node 28)
Injected packet length average = 1
Accepted packet length average = 1
Total in-flight flits = 23 (0 measured)
latency change    = 1
throughput change = 1
Class 0:
Packet latency average = 34.3349
	minimum = 7
	maximum = 84
Network latency average = 34.3349
	minimum = 7
	maximum = 84
Slowest packet = 17531
Flit latency average = 34.3349
	minimum = 7
	maximum = 84
Slowest flit = 17531
Fragmentation average = 0
	minimum = 0
	maximum = 0
Injected packet rate average = 0.009875
	minimum = 0.0035 (at node 36)
	maximum = 0.015 (at node 44)
Accepted packet rate average = 0.00967969
	minimum = 0.0035 (at node 36)
	maximum = 0.015 (at node 37)
Injected flit rate average = 0.009875
	minimum = 0.0035 (at node 36)
	maximum = 0.015 (at node 44)
Accepted flit rate average= 0.00967969
	minimum = 0.0035 (at node 36)
	maximum = 0.015 (at node 37)
Injected packet length average = 1
Accepted packet length average = 1
Total in-flight flits = 25 (0 measured)
latency change    = 0.0221972
throughput change = 0.00242131
Class 0:
Packet latency average = 32.8957
	minimum = 7
	maximum = 86
Network latency average = 32.8957
	minimum = 7
	maximum = 86
Slowest packet = 18601
Flit latency average = 32.8957
	minimum = 7
	maximum = 86
Slowest flit = 18601
Fragmentation average = 0
	minimum = 0
	maximum = 0
Injected packet rate average = 0.0105938
	minimum = 0.003 (at node 47)
	maximum = 0.017 (at node 59)
Accepted packet rate average = 0.0106406
	minimum = 0.003 (at node 6)
	maximum = 0.017 (at node 44)
Injected flit rate average = 0.0105938
	minimum = 0.003 (at node 47)
	maximum = 0.017 (at node 59)
Accepted flit rate average= 0.0106406
	minimum = 0.003 (at node 6)
	maximum = 0.017 (at node 44)
Injected packet length average = 1
Accepted packet length average = 1
Total in-flight flits = 22 (0 measured)
latency change    = 0.0437505
throughput change = 0.0903084
Warmed up ...Time used is 3000 cycles
Class 0:
Packet latency average = 34.0171
	minimum = 7
	maximum = 82
Network latency average = 34.0171
	minimum = 7
	maximum = 82
Slowest packet = 19369
Flit latency average = 34.4518
	minimum = 7
	maximum = 82
Slowest flit = 19369
Fragmentation average = 0
	minimum = 0
	maximum = 0
Injected packet rate average = 0.0103125
	minimum = 0.004 (at node 36)
	maximum = 0.016 (at node 2)
Accepted packet rate average = 0.010375
	minimum = 0.004 (at node 36)
	maximum = 0.016 (at node 11)
Injected flit rate average = 0.0103125
	minimum = 0.004 (at node 36)
	maximum = 0.016 (at node 2)
Accepted flit rate average= 0.010375
	minimum = 0.004 (at node 36)
	maximum = 0.016 (at node 11)
Injected packet length average = 1
Accepted packet length average = 1
Total in-flight flits = 18 (18 measured)
latency change    = 0.0329655
throughput change = 0.0256024
Class 0:
Packet latency average = 34.11
	minimum = 7
	maximum = 82
Network latency average = 34.11
	minimum = 7
	maximum = 82
Slowest packet = 19369
Flit latency average = 34.3346
	minimum = 7
	maximum = 82
Slowest flit = 19369
Fragmentation average = 0
	minimum = 0
	maximum = 0
Injected packet rate average = 0.00992188
	minimum = 0.005 (at node 4)
	maximum = 0.015 (at node 2)
Accepted packet rate average = 0.00996875
	minimum = 0.005 (at node 32)
	maximum = 0.015 (at node 16)
Injected flit rate average = 0.00992188
	minimum = 0.005 (at node 4)
	maximum = 0.015 (at node 2)
Accepted flit rate average= 0.00996875
	minimum = 0.005 (at node 32)
	maximum = 0.015 (at node 16)
Injected packet length average = 1
Accepted packet length average = 1
Total in-flight flits = 16 (16 measured)
latency change    = 0.00272394
throughput change = 0.0407524
Class 0:
Packet latency average = 33.9793
	minimum = 7
	maximum = 82
Network latency average = 33.9793
	minimum = 7
	maximum = 82
Slowest packet = 19369
Flit latency average = 34.1311
	minimum = 7
	maximum = 82
Slowest flit = 19369
Fragmentation average = 0
	minimum = 0
	maximum = 0
Injected packet rate average = 0.00991667
	minimum = 0.00566667 (at node 4)
	maximum = 0.0146667 (at node 62)
Accepted packet rate average = 0.00993229
	minimum = 0.00566667 (at node 26)
	maximum = 0.0146667 (at node 55)
Injected flit rate average = 0.00991667
	minimum = 0.00566667 (at node 4)
	maximum = 0.0146667 (at node 62)
Accepted flit rate average= 0.00993229
	minimum = 0.00566667 (at node 26)
	maximum = 0.0146667 (at node 55)
Injected packet length average = 1
Accepted packet length average = 1
Total in-flight flits = 19 (19 measured)
latency change    = 0.00384756
throughput change = 0.00367069
Draining all recorded packets ...
Draining remaining packets ...
Time taken is 6114 cycles
Class 0:
Packet latency average = 32.6432
	minimum = 7
	maximum = 81
Network latency average = 32.6432
	minimum = 7
	maximum = 81
Slowest packet = 21240
Flit latency average = 32.6432
	minimum = 7
	maximum = 81
Slowest flit = 21240
Fragmentation average = 0
	minimum = 0
	maximum = 0
Injected packet rate average = 0.00945312
	minimum = 0.003 (at node 59)
	maximum = 0.017 (at node 4)
Accepted packet rate average = 0.00910937
	minimum = 0.002 (at node 31)
	maximum = 0.016 (at node 32)
Injected flit rate average = 0.00945312
	minimum = 0.003 (at node 59)
	maximum = 0.017 (at node 4)
Accepted flit rate average= 0.00910937
	minimum = 0.002 (at node 31)
	maximum = 0.016 (at node 32)
Injected packet length average = 1
Accepted packet length average = 1
Total in-flight flits = 22 (0 measured)
latency change    = 1
throughput change = 1
Class 0:
Packet latency average = 33.0846
	minimum = 7
	maximum = 84
Network latency average = 33.0846
	minimum = 7
	maximum = 84
Slowest packet = 21301
Flit latency average = 33.0846
	minimum = 7
	maximum = 84
Slowest flit = 21301
Fragmentation average = 0
	minimum = 0
	maximum = 0
Injected packet rate average = 0.00964062
	minimum = 0.005 (at node 49)
	maximum = 0.0135 (at node 10)
Accepted packet rate average = 0.00951562
	minimum = 0.005 (at node 14)
	maximum = 0.0135 (at node 17)
Injected flit rate average = 0.00964062
	minimum = 0.005 (at node 49)
	maximum = 0.0135 (at node 10)
Accepted flit rate average= 0.00951562
	minimum = 0.005 (at node 14)
	maximum = 0.0135 (at node 17)
Injected packet length average = 1
Accepted packet length average = 1
Total in-flight flits = 16 (0 measured)
latency change    = 0.0133398
throughput change = 0.0426929
Class 0:
Packet latency average = 34.414
	minimum = 7
	maximum = 79
Network latency average = 34.414
	minimum = 7
	maximum = 79
Slowest packet = 22057
Flit latency average = 34.414
	minimum = 7
	maximum = 79
Slowest flit = 22057
Fragmentation average = 0
	minimum = 0
	maximum = 0
Injected packet rate average = 0.010375
	minimum = 0.005 (at node 9)
	maximum = 0.02 (at node 3)
Accepted packet rate average = 0.0102656
	minimum = 0.005 (at node 9)
	maximum = 0.02 (at node 24)
Injected flit rate average = 0.010375
	minimum = 0.005 (at node 9)
	maximum = 0.02 (at node 3)
Accepted flit rate average= 0.0102656
	minimum = 0.005 (at node 9)
	maximum = 0.02 (at node 24)
Injected packet length average = 1
Accepted packet length average = 1
Total in-flight flits = 23 (0 measured)
latency change    = 0.0386307
throughput change = 0.0730594
Warmed up ...Time used is 3000 cycles
Class 0:
Packet latency average = 33.762
	minimum = 7
	maximum = 83
Network latency average = 33.762
	minimum = 7
	maximum = 83
Slowest packet = 23079
Flit latency average = 34.3575
	minimum = 7
	maximum = 83
Slowest flit = 23079
Fragmentation average = 0
	minimum = 0
	maximum = 0
Injected packet rate average = 0.0100781
	minimum = 0.005 (at node 9)
	maximum = 0.016 (at node 34)
Accepted packet rate average = 0.0101406
	minimum = 0.005 (at node 9)
	maximum = 0.018 (at node 7)
Injected flit rate average = 0.0100781
	minimum = 0.005 (at node 9)
	maximum = 0.016 (at node 34)
Accepted flit rate average= 0.0101406
	minimum = 0.005 (at node 9)
	maximum = 0.018 (at node 7)
Injected packet length average = 1
Accepted packet length average = 1
Total in-flight flits = 19 (19 measured)
latency change    = 0.0193123
throughput change = 0.0123267
Class 0:
Packet latency average = 33.3401
	minimum = 7
	maximum = 83
Network latency average = 33.3401
	minimum = 7
	maximum = 83
Slowest packet = 23079
Flit latency average = 33.6423
	minimum = 7
	maximum = 83
Slowest flit = 23079
Fragmentation average = 0
	minimum = 0
	maximum = 0
Injected packet rate average = 0.0102109
	minimum = 0.0065 (at node 9)
	maximum = 0.0145 (at node 18)
Accepted packet rate average = 0.0102422
	minimum = 0.006 (at node 22)
	maximum = 0.0145 (at node 18)
Injected flit rate average = 0.0102109
	minimum = 0.0065 (at node 9)
	maximum = 0.0145 (at node 18)
Accepted flit rate average= 0.0102422
	minimum = 0.006 (at node 22)
	maximum = 0.0145 (at node 18)
Injected packet length average = 1
Accepted packet length average = 1
Total in-flight flits = 19 (19 measured)
latency change    = 0.012655
throughput change = 0.00991609
Class 0:
Packet latency average = 33.092
	minimum = 7
	maximum = 87
Network latency average = 33.092
	minimum = 7
	maximum = 87
Slowest packet = 23926
Flit latency average = 33.2949
	minimum = 7
	maximum = 87
Slowest flit = 23926
Fragmentation average = 0
	minimum = 0
	maximum = 0
Injected packet rate average = 0.0102813
	minimum = 0.007 (at node 25)
	maximum = 0.0156667 (at node 18)
Accepted packet rate average = 0.0103125
	minimum = 0.00666667 (at node 11)
	maximum = 0.0156667 (at node 18)
Injected flit rate average = 0.0102813
	minimum = 0.007 (at node 25)
	maximum = 0.0156667 (at node 18)
Accepted flit rate average= 0.0103125
	minimum = 0.00666667 (at node 11)
	maximum = 0.0156667 (at node 18)
Injected packet length average = 1
Accepted packet length average = 1
Total in-flight flits = 17 (17 measured)
latency change    = 0.00749682
throughput change = 0.00681818
Draining all recorded packets ...
Draining remaining packets ...
Time taken is 6132 cycles
Class 0:
Packet latency average = 33.7005
	minimum = 7
	maximum = 83
Network latency average = 33.7005
	minimum = 7
	maximum = 83
Slowest packet = 24912
Flit latency average = 33.7005
	minimum = 7
	maximum = 83
Slowest flit = 24912
Fragmentation average = 0
	minimum = 0
	maximum = 0
Injected packet rate average = 0.0100313
	minimum = 0.002 (at node 45)
	maximum = 0.021 (at node 58)
Accepted packet rate average = 0.00970312
	minimum = 0.002 (at node 45)
	maximum = 0.02 (at node 23)
Injected flit rate average = 0.0100313
	minimum = 0.002 (at node 45)
	maximum = 0.021 (at node 58)
Accepted flit rate average= 0.00970312
	minimum = 0.002 (at node 45)
	maximum = 0.02 (at node 23)
Injected packet length average = 1
Accepted packet length average = 1
Total in-flight flits = 21 (0 measured)
latency change    = 1
throughput change = 1
Class 0:
Packet latency average = 33.7382
	minimum = 7
	maximum = 87
Network latency average = 33.7382
	minimum = 7
	maximum = 87
Slowest packet = 25612
Flit latency average = 33.7382
	minimum = 7
	maximum = 87
Slowest flit = 25612
Fragmentation average = 0
	minimum = 0
	maximum = 0
Injected packet rate average = 0.0102031
	minimum = 0.0035 (at node 45)
	maximum = 0.0165 (at node 58)
Accepted packet rate average = 0.00996875
	minimum = 0.0035 (at node 45)
	maximum = 0.0165 (at node 23)
Injected flit rate average = 0.0102031
	minimum = 0.0035 (at node 45)
	maximum = 0.0165 (at node 58)
Accepted flit rate average= 0.00996875
	minimum = 0.0035 (at node 45)
	maximum = 0.0165 (at node 23)
Injected packet length average = 1
Accepted packet length average = 1
Total in-flight flits = 30 (0 measured)
latency change    = 0.00111925
throughput change = 0.0266458
Class 0:
Packet latency average = 34.8801
	minimum = 7
	maximum = 81
Network latency average = 34.8801
	minimum = 7
	maximum = 81
Slowest packet = 26140
Flit latency average = 34.8801
	minimum = 7
	maximum = 81
Slowest flit = 26140
Fragmentation average = 0
	minimum = 0
	maximum = 0
Injected packet rate average = 0.0104219
	minimum = 0.003 (at node 42)
	maximum = 0.022 (at node 59)
Accepted packet rate average = 0.0104219
	minimum = 0.004 (at node 21)
	maximum = 0.024 (at node 31)
Injected flit rate average = 0.0104219
	minimum = 0.003 (at node 42)
	maximum = 0.022 (at node 59)
Accepted flit rate average= 0.0104219
	minimum = 0.004 (at node 21)
	maximum = 0.024 (at node 31)
Injected packet length average = 1
Accepted packet length average = 1
Total in-flight flits = 30 (0 measured)
latency change    = 0.0327355
throughput change = 0.0434783
Warmed up ...Time used is 3000 cycles
Class 0:
Packet latency average = 33.2786
	minimum = 7
	maximum = 83
Network latency average = 33.2786
	minimum = 7
	maximum = 83
Slowest packet = 26729
Flit latency average = 33.49
	minimum = 7
	maximum = 83
Slowest flit = 26729
Fragmentation average = 0
	minimum = 0
	maximum = 0
Injected packet rate average = 0.00996875
	minimum = 0.005 (at node 0)
	maximum = 0.017 (at node 2)
Accepted packet rate average = 0.0101719
	minimum = 0.004 (at node 30)
	maximum = 0.02 (at node 16)
Injected flit rate average = 0.00996875
	minimum = 0.005 (at node 0)
	maximum = 0.017 (at node 2)
Accepted flit rate average= 0.0101719
	minimum = 0.004 (at node 30)
	maximum = 0.02 (at node 16)
Injected packet length average = 1
Accepted packet length average = 1
Total in-flight flits = 17 (17 measured)
latency change    = 0.0481234
throughput change = 0.0245776
Class 0:
Packet latency average = 33.5527
	minimum = 7
	maximum = 83
Network latency average = 33.5527
	minimum = 7
	maximum = 83
Slowest packet = 26729
Flit latency average = 33.653
	minimum = 7
	maximum = 83
Slowest flit = 26729
Fragmentation average = 0
	minimum = 0
	maximum = 0
Injected packet rate average = 0.0100391
	minimum = 0.0055 (at node 59)
	maximum = 0.016 (at node 19)
Accepted packet rate average = 0.0100859
	minimum = 0.0055 (at node 55)
	maximum = 0.0165 (at node 26)
Injected flit rate average = 0.0100391
	minimum = 0.0055 (at node 59)
	maximum = 0.016 (at node 19)
Accepted flit rate average= 0.0100859
	minimum = 0.0055 (at node 55)
	maximum = 0.0165 (at node 26)
Injected packet length average = 1
Accepted packet length average = 1
Total in-flight flits = 24 (24 measured)
latency change    = 0.00817081
throughput change = 0.00852053
Class 0:
Packet latency average = 33.744
	minimum = 7
	maximum = 83
Network latency average = 33.744
	minimum = 7
	maximum = 83
Slowest packet = 26729
Flit latency average = 33.8073
	minimum = 7
	maximum = 83
Slowest flit = 26729
Fragmentation average = 0
	minimum = 0
	maximum = 0
Injected packet rate average = 0.0101094
	minimum = 0.00633333 (at node 0)
	maximum = 0.0143333 (at node 2)
Accepted packet rate average = 0.0101875
	minimum = 0.00666667 (at node 0)
	maximum = 0.0153333 (at node 16)
Injected flit rate average = 0.0101094
	minimum = 0.00633333 (at node 0)
	maximum = 0.0143333 (at node 2)
Accepted flit rate average= 0.0101875
	minimum = 0.00666667 (at node 0)
	maximum = 0.0153333 (at node 16)
Injected packet length average = 1
Accepted packet length average = 1
Total in-flight flits = 15 (15 measured)
latency change    = 0.00566895
throughput change = 0.00996933
Draining all recorded packets ...
Draining remaining packets ...
Time taken is 6138 cycles
Class 0:
Packet latency average = 32.9442
	minimum = 7
	maximum = 90
Network latency average = 32.9442
	minimum = 7
	maximum = 90
Slowest packet = 28910
Flit latency average = 32.9442
	minimum = 7
	maximum = 90
Slowest flit = 28910
Fragmentation average = 0
	minimum = 0
	maximum = 0
Injected packet rate average = 0.0101406
	minimum = 0.005 (at node 14)
	maximum = 0.02 (at node 10)
Accepted packet rate average = 0.00979688
	minimum = 0.004 (at node 2)
	maximum = 0.019 (at node 17)
Injected flit rate average = 0.0101406
	minimum = 0.005 (at node 14)
	maximum = 0.02 (at node 10)
Accepted flit rate average= 0.00979688
	minimum = 0.004 (at node 2)
	maximum = 0.019 (at node 17)
Injected packet length average = 1
Accepted packet length average = 1
Total in-flight flits = 22 (0 measured)
latency change    = 1
throughput change = 1
Class 0:
Packet latency average = 33.1574
	minimum = 7
	maximum = 90
Network latency average = 33.1574
	minimum = 7
	maximum = 90
Slowest packet = 28910
Flit latency average = 33.1574
	minimum = 7
	maximum = 90
Slowest flit = 28910
Fragmentation average = 0
	minimum = 0
	maximum = 0
Injected packet rate average = 0.00998438
	minimum = 0.006 (at node 29)
	maximum = 0.016 (at node 10)
Accepted packet rate average = 0.00982813
	minimum = 0.006 (at node 37)
	maximum = 0.016 (at node 17)
Injected flit rate average = 0.00998438
	minimum = 0.006 (at node 29)
	maximum = 0.016 (at node 10)
Accepted flit rate average= 0.00982813
	minimum = 0.006 (at node 37)
	maximum = 0.016 (at node 17)
Injected packet length average = 1
Accepted packet length average = 1
Total in-flight flits = 20 (0 measured)
latency change    = 0.00643036
throughput change = 0.00317965
Class 0:
Packet latency average = 32.1925
	minimum = 7
	maximum = 82
Network latency average = 32.1925
	minimum = 7
	maximum = 82
Slowest packet = 30374
Flit latency average = 32.1925
	minimum = 7
	maximum = 82
Slowest flit = 30374
Fragmentation average = 0
	minimum = 0
	maximum = 0
Injected packet rate average = 0.0105625
	minimum = 0.005 (at node 28)
	maximum = 0.022 (at node 25)
Accepted packet rate average = 0.0104688
	minimum = 0.005 (at node 23)
	maximum = 0.023 (at node 11)
Injected flit rate average = 0.0105625
	minimum = 0.005 (at node 28)
	maximum = 0.022 (at node 25)
Accepted flit rate average= 0.0104688
	minimum = 0.005 (at node 23)
	maximum = 0.023 (at node 11)
Injected packet length average = 1
Accepted packet length average = 1
Total in-flight flits = 26 (0 measured)
latency change    = 0.0299714
throughput change = 0.061194
Warmed up ...Time used is 3000 cycles
Class 0:
Packet latency average = 34.4134
	minimum = 7
	maximum = 78
Network latency average = 34.4134
	minimum = 7
	maximum = 78
Slowest packet = 30929
Flit latency average = 34.8092
	minimum = 7
	maximum = 78
Slowest flit = 30929
Fragmentation average = 0
	minimum = 0
	maximum = 0
Injected packet rate average = 0.0102656
	minimum = 0.003 (at node 47)
	maximum = 0.019 (at node 31)
Accepted packet rate average = 0.0102344
	minimum = 0.003 (at node 17)
	maximum = 0.017 (at node 59)
Injected flit rate average = 0.0102656
	minimum = 0.003 (at node 47)
	maximum = 0.019 (at node 31)
Accepted flit rate average= 0.0102344
	minimum = 0.003 (at node 17)
	maximum = 0.017 (at node 59)
Injected packet length average = 1
Accepted packet length average = 1
Total in-flight flits = 28 (28 measured)
latency change    = 0.0645336
throughput change = 0.0229008
Class 0:
Packet latency average = 34.1736
	minimum = 7
	maximum = 102
Network latency average = 34.1736
	minimum = 7
	maximum = 102
Slowest packet = 31541
Flit latency average = 34.3754
	minimum = 7
	maximum = 102
Slowest flit = 31541
Fragmentation average = 0
	minimum = 0
	maximum = 0
Injected packet rate average = 0.0102188
	minimum = 0.0045 (at node 47)
	maximum = 0.0155 (at node 33)
Accepted packet rate average = 0.0102813
	minimum = 0.0045 (at node 61)
	maximum = 0.016 (at node 12)
Injected flit rate average = 0.0102188
	minimum = 0.0045 (at node 47)
	maximum = 0.0155 (at node 33)
Accepted flit rate average= 0.0102813
	minimum = 0.0045 (at node 61)
	maximum = 0.016 (at node 12)
Injected packet length average = 1
Accepted packet length average = 1
Total in-flight flits = 18 (18 measured)
latency change    = 0.0070145
throughput change = 0.00455927
Class 0:
Packet latency average = 33.6901
	minimum = 7
	maximum = 102
Network latency average = 33.6901
	minimum = 7
	maximum = 102
Slowest packet = 31541
Flit latency average = 33.8297
	minimum = 7
	maximum = 102
Slowest flit = 31541
Fragmentation average = 0
	minimum = 0
	maximum = 0
Injected packet rate average = 0.0103281
	minimum = 0.006 (at node 47)
	maximum = 0.015 (at node 31)
Accepted packet rate average = 0.0103698
	minimum = 0.006 (at node 61)
	maximum = 0.0146667 (at node 59)
Injected flit rate average = 0.0103281
	minimum = 0.006 (at node 47)
	maximum = 0.015 (at node 31)
Accepted flit rate average= 0.0103698
	minimum = 0.006 (at node 61)
	maximum = 0.0146667 (at node 59)
Injected packet length average = 1
Accepted packet length average = 1
Total in-flight flits = 18 (18 measured)
latency change    = 0.0143534
throughput change = 0.00853842
Class 0:
Packet latency average = 33.6033
	minimum = 7
	maximum = 102
Network latency average = 33.6033
	minimum = 7
	maximum = 102
Slowest packet = 31541
Flit latency average = 33.7108
	minimum = 7
	maximum = 102
Slowest flit = 31541
Fragmentation average = 0
	minimum = 0
	maximum = 0
Injected packet rate average = 0.0101328
	minimum = 0.007 (at node 35)
	maximum = 0.0135 (at node 18)
Accepted packet rate average = 0.0101836
	minimum = 0.007 (at node 28)
	maximum = 0.0135 (at node 18)
Injected flit rate average = 0.0101328
	minimum = 0.007 (at node 35)
	maximum = 0.0135 (at node 18)
Accepted flit rate average= 0.0101836
	minimum = 0.007 (at node 28)
	maximum = 0.0135 (at node 18)
Injected packet length average = 1
Accepted packet length average = 1
Total in-flight flits = 13 (13 measured)
latency change    = 0.00258373
throughput change = 0.0182841
Draining all recorded packets ...
Draining remaining packets ...
Time taken is 7128 cycles
Class 0:
Packet latency average = 33.4111
	minimum = 7
	maximum = 85
Network latency average = 33.4111
	minimum = 7
	maximum = 85
Slowest packet = 33334
Flit latency average = 33.4111
	minimum = 7
	maximum = 85
Slowest flit = 33334
Fragmentation average = 0
	minimum = 0
	maximum = 0
Injected packet rate average = 0.010125
	minimum = 0.002 (at node 3)
	maximum = 0.019 (at node 54)
Accepted packet rate average = 0.00984375
	minimum = 0.002 (at node 24)
	maximum = 0.019 (at node 54)
Injected flit rate average = 0.010125
	minimum = 0.002 (at node 3)
	maximum = 0.019 (at node 54)
Accepted flit rate average= 0.00984375
	minimum = 0.002 (at node 24)
	maximum = 0.019 (at node 54)
Injected packet length average = 1
Accepted packet length average = 1
Total in-flight flits = 18 (0 measured)
latency change    = 1
throughput change = 1
Class 0:
Packet latency average = 33.4054
	minimum = 7
	maximum = 85
Network latency average = 33.4054
	minimum = 7
	maximum = 85
Slowest packet = 33334
Flit latency average = 33.4054
	minimum = 7
	maximum = 85
Slowest flit = 33334
Fragmentation average = 0
	minimum = 0
	maximum = 0
Injected packet rate average = 0.0100234
	minimum = 0.005 (at node 62)
	maximum = 0.015 (at node 5)
Accepted packet rate average = 0.00986719
	minimum = 0.005 (at node 55)
	maximum = 0.015 (at node 40)
Injected flit rate average = 0.0100234
	minimum = 0.005 (at node 62)
	maximum = 0.015 (at node 5)
Accepted flit rate average= 0.00986719
	minimum = 0.005 (at node 55)
	maximum = 0.015 (at node 40)
Injected packet length average = 1
Accepted packet length average = 1
Total in-flight flits = 20 (0 measured)
latency change    = 0.000171443
throughput change = 0.0023753
Class 0:
Packet latency average = 32.9844
	minimum = 7
	maximum = 82
Network latency average = 32.9844
	minimum = 7
	maximum = 82
Slowest packet = 34471
Flit latency average = 32.9844
	minimum = 7
	maximum = 82
Slowest flit = 34471
Fragmentation average = 0
	minimum = 0
	maximum = 0
Injected packet rate average = 0.0100781
	minimum = 0.004 (at node 51)
	maximum = 0.018 (at node 2)
Accepted packet rate average = 0.0100156
	minimum = 0.004 (at node 30)
	maximum = 0.017 (at node 46)
Injected flit rate average = 0.0100781
	minimum = 0.004 (at node 51)
	maximum = 0.018 (at node 2)
Accepted flit rate average= 0.0100156
	minimum = 0.004 (at node 30)
	maximum = 0.017 (at node 46)
Injected packet length average = 1
Accepted packet length average = 1
Total in-flight flits = 24 (0 measured)
latency change    = 0.0127631
throughput change = 0.0148206
Warmed up ...Time used is 3000 cycles
Class 0:
Packet latency average = 32.2438
	minimum = 7
	maximum = 79
Network latency average = 32.2438
	minimum = 7
	maximum = 79
Slowest packet = 35439
Flit latency average = 32.622
	minimum = 7
	maximum = 79
Slowest flit = 35439
Fragmentation average = 0
	minimum = 0
	maximum = 0
Injected packet rate average = 0.010375
	minimum = 0.004 (at node 17)
	maximum = 0.018 (at node 58)
Accepted packet rate average = 0.0105
	minimum = 0.004 (at node 45)
	maximum = 0.019 (at node 23)
Injected flit rate average = 0.010375
	minimum = 0.004 (at node 17)
	maximum = 0.018 (at node 58)
Accepted flit rate average= 0.0105
	minimum = 0.004 (at node 45)
	maximum = 0.019 (at node 23)
Injected packet length average = 1
Accepted packet length average = 1
Total in-flight flits = 16 (16 measured)
latency change    = 0.0229679
throughput change = 0.046131
Class 0:
Packet latency average = 32.8715
	minimum = 7
	maximum = 79
Network latency average = 32.8715
	minimum = 7
	maximum = 79
Slowest packet = 35439
Flit latency average = 33.0511
	minimum = 7
	maximum = 79
Slowest flit = 35439
Fragmentation average = 0
	minimum = 0
	maximum = 0
Injected packet rate average = 0.0104141
	minimum = 0.005 (at node 45)
	maximum = 0.016 (at node 47)
Accepted packet rate average = 0.0103984
	minimum = 0.005 (at node 45)
	maximum = 0.016 (at node 61)
Injected flit rate average = 0.0104141
	minimum = 0.005 (at node 45)
	maximum = 0.016 (at node 47)
Accepted flit rate average= 0.0103984
	minimum = 0.005 (at node 45)
	maximum = 0.016 (at node 61)
Injected packet length average = 1
Accepted packet length average = 1
Total in-flight flits = 26 (26 measured)
latency change    = 0.0190936
throughput change = 0.00976709
Class 0:
Packet latency average = 33.0456
	minimum = 7
	maximum = 83
Network latency average = 33.0456
	minimum = 7
	maximum = 83
Slowest packet = 36389
Flit latency average = 33.1646
	minimum = 7
	maximum = 83
Slowest flit = 36389
Fragmentation average = 0
	minimum = 0
	maximum = 0
Injected packet rate average = 0.0102656
	minimum = 0.007 (at node 33)
	maximum = 0.0163333 (at node 21)
Accepted packet rate average = 0.0102865
	minimum = 0.00666667 (at node 12)
	maximum = 0.0163333 (at node 42)
Injected flit rate average = 0.0102656
	minimum = 0.007 (at node 33)
	maximum = 0.0163333 (at node 21)
Accepted flit rate average= 0.0102865
	minimum = 0.00666667 (at node 12)
	maximum = 0.0163333 (at node 42)
Injected packet length average = 1
Accepted packet length average = 1
Total in-flight flits = 20 (20 measured)
latency change    = 0.00527018
throughput change = 0.0108861
Draining all recorded packets ...
Draining remaining packets ...
Time taken is 6148 cycles
Class 0:
Packet latency average = 34.2335
	minimum = 7
	maximum = 86
Network latency average = 34.2335
	minimum = 7
	maximum = 86
Slowest packet = 37235
Flit latency average = 34.2335
	minimum = 7
	maximum = 86
Slowest flit = 37235
Fragmentation average = 0
	minimum = 0
	maximum = 0
Injected packet rate average = 0.00959375
	minimum = 0.002 (at node 25)
	maximum = 0.02 (at node 39)
Accepted packet rate average = 0.00923437
	minimum = 0.002 (at node 11)
	maximum = 0.02 (at node 60)
Injected flit rate average = 0.00959375
	minimum = 0.002 (at node 25)
	maximum = 0.02 (at node 39)
Accepted flit rate average= 0.00923437
	minimum = 0.002 (at node 11)
	maximum = 0.02 (at node 60)
Injected packet length average = 1
Accepted packet length average = 1
Total in-flight flits = 23 (0 measured)
latency change    = 1
throughput change = 1
Class 0:
Packet latency average = 33.323
	minimum = 7
	maximum = 86
Network latency average = 33.323
	minimum = 7
	maximum = 86
Slowest packet = 37235
Flit latency average = 33.323
	minimum = 7
	maximum = 86
Slowest flit = 37235
Fragmentation average = 0
	minimum = 0
	maximum = 0
Injected packet rate average = 0.00969531
	minimum = 0.005 (at node 25)
	maximum = 0.0155 (at node 59)
Accepted packet rate average = 0.00960156
	minimum = 0.005 (at node 11)
	maximum = 0.0155 (at node 31)
Injected flit rate average = 0.00969531
	minimum = 0.005 (at node 25)
	maximum = 0.0155 (at node 59)
Accepted flit rate average= 0.00960156
	minimum = 0.005 (at node 11)
	maximum = 0.0155 (at node 31)
Injected packet length average = 1
Accepted packet length average = 1
Total in-flight flits = 12 (0 measured)
latency change    = 0.0273227
throughput change = 0.0382425
Class 0:
Packet latency average = 32.6464
	minimum = 7
	maximum = 84
Network latency average = 32.6464
	minimum = 7
	maximum = 84
Slowest packet = 38441
Flit latency average = 32.6464
	minimum = 7
	maximum = 84
Slowest flit = 38441
Fragmentation average = 0
	minimum = 0
	maximum = 0
Injected packet rate average = 0.009875
	minimum = 0.005 (at node 26)
	maximum = 0.018 (at node 2)
Accepted packet rate average = 0.00976562
	minimum = 0.004 (at node 13)
	maximum = 0.018 (at node 16)
Injected flit rate average = 0.009875
	minimum = 0.005 (at node 26)
	maximum = 0.018 (at node 2)
Accepted flit rate average= 0.00976562
	minimum = 0.004 (at node 13)
	maximum = 0.018 (at node 16)
Injected packet length average = 1
Accepted packet length average = 1
Total in-flight flits = 19 (0 measured)
latency change    = 0.0207259
throughput change = 0.0168
Warmed up ...Time used is 3000 cycles
Class 0:
Packet latency average = 33.3599
	minimum = 7
	maximum = 77
Network latency average = 33.3599
	minimum = 7
	maximum = 77
Slowest packet = 38991
Flit latency average = 33.4582
	minimum = 7
	maximum = 77
Slowest flit = 38991
Fragmentation average = 0
	minimum = 0
	maximum = 0
Injected packet rate average = 0.00971875
	minimum = 0.002 (at node 36)
	maximum = 0.017 (at node 51)
Accepted packet rate average = 0.00971875
	minimum = 0.002 (at node 36)
	maximum = 0.017 (at node 22)
Injected flit rate average = 0.00971875
	minimum = 0.002 (at node 36)
	maximum = 0.017 (at node 51)
Accepted flit rate average= 0.00971875
	minimum = 0.002 (at node 36)
	maximum = 0.017 (at node 22)
Injected packet length average = 1
Accepted packet length average = 1
Total in-flight flits = 19 (19 measured)
latency change    = 0.021387
throughput change = 0.00482315
Class 0:
Packet latency average = 34.3715
	minimum = 7
	maximum = 81
Network latency average = 34.3715
	minimum = 7
	maximum = 81
Slowest packet = 39603
Flit latency average = 34.4055
	minimum = 7
	maximum = 81
Slowest flit = 39603
Fragmentation average = 0
	minimum = 0
	maximum = 0
Injected packet rate average = 0.00958594
	minimum = 0.0055 (at node 28)
	maximum = 0.014 (at node 27)
Accepted packet rate average = 0.00963281
	minimum = 0.0055 (at node 53)
	maximum = 0.0135 (at node 27)
Injected flit rate average = 0.00958594
	minimum = 0.0055 (at node 28)
	maximum = 0.014 (at node 27)
Accepted flit rate average= 0.00963281
	minimum = 0.0055 (at node 53)
	maximum = 0.0135 (at node 27)
Injected packet length average = 1
Accepted packet length average = 1
Total in-flight flits = 13 (13 measured)
latency change    = 0.0294323
throughput change = 0.00892133
Class 0:
Packet latency average = 33.3417
	minimum = 7
	maximum = 84
Network latency average = 33.3417
	minimum = 7
	maximum = 84
Slowest packet = 40310
Flit latency average = 33.3743
	minimum = 7
	maximum = 84
Slowest flit = 40310
Fragmentation average = 0
	minimum = 0
	maximum = 0
Injected packet rate average = 0.00985938
	minimum = 0.006 (at node 40)
	maximum = 0.0146667 (at node 27)
Accepted packet rate average = 0.00983854
	minimum = 0.006 (at node 5)
	maximum = 0.0146667 (at node 27)
Injected flit rate average = 0.00985938
	minimum = 0.006 (at node 40)
	maximum = 0.0146667 (at node 27)
Accepted flit rate average= 0.00983854
	minimum = 0.006 (at node 5)
	maximum = 0.0146667 (at node 27)
Injected packet length average = 1
Accepted packet length average = 1
Total in-flight flits = 23 (23 measured)
latency change    = 0.0308859
throughput change = 0.0209105
Draining all recorded packets ...
Draining remaining packets ...
Time taken is 6145 cycles
Class 0:
Packet latency average = 32.6819
	minimum = 7
	maximum = 79
Network latency average = 32.6819
	minimum = 7
	maximum = 79
Slowest packet = 41043
Flit latency average = 32.6819
	minimum = 7
	maximum = 79
Slowest flit = 41043
Fragmentation average = 0
	minimum = 0
	maximum = 0
Injected packet rate average = 0.00995313
	minimum = 0.004 (at node 41)
	maximum = 0.017 (at node 5)
Accepted packet rate average = 0.00957812
	minimum = 0.004 (at node 13)
	maximum = 0.016 (at node 40)
Injected flit rate average = 0.00995313
	minimum = 0.004 (at node 41)
	maximum = 0.017 (at node 5)
Accepted flit rate average= 0.00957812
	minimum = 0.004 (at node 13)
	maximum = 0.016 (at node 40)
Injected packet length average = 1
Accepted packet length average = 1
Total in-flight flits = 24 (0 measured)
latency change    = 1
throughput change = 1
Class 0:
Packet latency average = 32.7873
	minimum = 7
	maximum = 79
Network latency average = 32.7873
	minimum = 7
	maximum = 79
Slowest packet = 41043
Flit latency average = 32.7873
	minimum = 7
	maximum = 79
Slowest flit = 41043
Fragmentation average = 0
	minimum = 0
	maximum = 0
Injected packet rate average = 0.0101641
	minimum = 0.0065 (at node 10)
	maximum = 0.015 (at node 31)
Accepted packet rate average = 0.00999219
	minimum = 0.0065 (at node 17)
	maximum = 0.015 (at node 53)
Injected flit rate average = 0.0101641
	minimum = 0.0065 (at node 10)
	maximum = 0.015 (at node 31)
Accepted flit rate average= 0.00999219
	minimum = 0.0065 (at node 17)
	maximum = 0.015 (at node 53)
Injected packet length average = 1
Accepted packet length average = 1
Total in-flight flits = 22 (0 measured)
latency change    = 0.00321592
throughput change = 0.0414386
Class 0:
Packet latency average = 33.9544
	minimum = 7
	maximum = 86
Network latency average = 33.9544
	minimum = 7
	maximum = 86
Slowest packet = 42504
Flit latency average = 33.9544
	minimum = 7
	maximum = 86
Slowest flit = 42504
Fragmentation average = 0
	minimum = 0
	maximum = 0
Injected packet rate average = 0.0102188
	minimum = 0.005 (at node 58)
	maximum = 0.019 (at node 0)
Accepted packet rate average = 0.0102813
	minimum = 0.005 (at node 23)
	maximum = 0.02 (at node 0)
Injected flit rate average = 0.0102188
	minimum = 0.005 (at node 58)
	maximum = 0.019 (at node 0)
Accepted flit rate average= 0.0102813
	minimum = 0.005 (at node 23)
	maximum = 0.02 (at node 0)
Injected packet length average = 1
Accepted packet length average = 1
Total in-flight flits = 18 (0 measured)
latency change    = 0.0343718
throughput change = 0.0281155
Warmed up ...Time used is 3000 cycles
Class 0:
Packet latency average = 32.4538
	minimum = 7
	maximum = 85
Network latency average = 32.4538
	minimum = 7
	maximum = 85
Slowest packet = 43142
Flit latency average = 32.6768
	minimum = 7
	maximum = 85
Slowest flit = 43142
Fragmentation average = 0
	minimum = 0
	maximum = 0
Injected packet rate average = 0.00926562
	minimum = 0.004 (at node 8)
	maximum = 0.017 (at node 39)
Accepted packet rate average = 0.00923437
	minimum = 0.004 (at node 6)
	maximum = 0.017 (at node 17)
Injected flit rate average = 0.00926562
	minimum = 0.004 (at node 8)
	maximum = 0.017 (at node 39)
Accepted flit rate average= 0.00923437
	minimum = 0.004 (at node 6)
	maximum = 0.017 (at node 17)
Injected packet length average = 1
Accepted packet length average = 1
Total in-flight flits = 20 (20 measured)
latency change    = 0.0462398
throughput change = 0.113367
Class 0:
Packet latency average = 32.5795
	minimum = 7
	maximum = 85
Network latency average = 32.5795
	minimum = 7
	maximum = 85
Slowest packet = 43142
Flit latency average = 32.6832
	minimum = 7
	maximum = 85
Slowest flit = 43142
Fragmentation average = 0
	minimum = 0
	maximum = 0
Injected packet rate average = 0.00984375
	minimum = 0.0055 (at node 48)
	maximum = 0.016 (at node 39)
Accepted packet rate average = 0.00976562
	minimum = 0.0055 (at node 6)
	maximum = 0.016 (at node 60)
Injected flit rate average = 0.00984375
	minimum = 0.0055 (at node 48)
	maximum = 0.016 (at node 39)
Accepted flit rate average= 0.00976562
	minimum = 0.0055 (at node 6)
	maximum = 0.016 (at node 60)
Injected packet length average = 1
Accepted packet length average = 1
Total in-flight flits = 28 (28 measured)
latency change    = 0.00386111
throughput change = 0.0544
Class 0:
Packet latency average = 32.8385
	minimum = 7
	maximum = 85
Network latency average = 32.8385
	minimum = 7
	maximum = 85
Slowest packet = 43142
Flit latency average = 32.9051
	minimum = 7
	maximum = 85
Slowest flit = 43142
Fragmentation average = 0
	minimum = 0
	maximum = 0
Injected packet rate average = 0.00979688
	minimum = 0.00633333 (at node 5)
	maximum = 0.0136667 (at node 9)
Accepted packet rate average = 0.00977083
	minimum = 0.00666667 (at node 6)
	maximum = 0.0136667 (at node 9)
Injected flit rate average = 0.00979688
	minimum = 0.00633333 (at node 5)
	maximum = 0.0136667 (at node 9)
Accepted flit rate average= 0.00977083
	minimum = 0.00666667 (at node 6)
	maximum = 0.0136667 (at node 9)
Injected packet length average = 1
Accepted packet length average = 1
Total in-flight flits = 23 (23 measured)
latency change    = 0.00788679
throughput change = 0.000533049
Class 0:
Packet latency average = 32.9549
	minimum = 7
	maximum = 85
Network latency average = 32.9549
	minimum = 7
	maximum = 85
Slowest packet = 43142
Flit latency average = 33.0036
	minimum = 7
	maximum = 85
Slowest flit = 43142
Fragmentation average = 0
	minimum = 0
	maximum = 0
Injected packet rate average = 0.00987891
	minimum = 0.0075 (at node 5)
	maximum = 0.0135 (at node 10)
Accepted packet rate average = 0.00986719
	minimum = 0.00725 (at node 19)
	maximum = 0.01375 (at node 17)
Injected flit rate average = 0.00987891
	minimum = 0.0075 (at node 5)
	maximum = 0.0135 (at node 10)
Accepted flit rate average= 0.00986719
	minimum = 0.00725 (at node 19)
	maximum = 0.01375 (at node 17)
Injected packet length average = 1
Accepted packet length average = 1
Total in-flight flits = 21 (21 measured)
latency change    = 0.00353234
throughput change = 0.00976511
Class 0:
Packet latency average = 33.0564
	minimum = 7
	maximum = 85
Network latency average = 33.0564
	minimum = 7
	maximum = 85
Slowest packet = 43142
Flit latency average = 33.0941
	minimum = 7
	maximum = 85
Slowest flit = 43142
Fragmentation average = 0
	minimum = 0
	maximum = 0
Injected packet rate average = 0.0100313
	minimum = 0.0076 (at node 42)
	maximum = 0.0136 (at node 10)
Accepted packet rate average = 0.010025
	minimum = 0.0076 (at node 21)
	maximum = 0.0138 (at node 17)
Injected flit rate average = 0.0100313
	minimum = 0.0076 (at node 42)
	maximum = 0.0136 (at node 10)
Accepted flit rate average= 0.010025
	minimum = 0.0076 (at node 21)
	maximum = 0.0138 (at node 17)
Injected packet length average = 1
Accepted packet length average = 1
Total in-flight flits = 20 (20 measured)
latency change    = 0.00306997
throughput change = 0.0157419
Draining all recorded packets ...
Draining remaining packets ...
Time taken is 8148 cycles
Class 0:
Packet latency average = 32.6449
	minimum = 7
	maximum = 88
Network latency average = 32.6449
	minimum = 7
	maximum = 88
Slowest packet = 46448
Flit latency average = 32.6449
	minimum = 7
	maximum = 88
Slowest flit = 46448
Fragmentation average = 0
	minimum = 0
	maximum = 0
Injected packet rate average = 0.0101719
	minimum = 0.004 (at node 33)
	maximum = 0.023 (at node 10)
Accepted packet rate average = 0.0098125
	minimum = 0.004 (at node 12)
	maximum = 0.023 (at node 17)
Injected flit rate average = 0.0101719
	minimum = 0.004 (at node 33)
	maximum = 0.023 (at node 10)
Accepted flit rate average= 0.0098125
	minimum = 0.004 (at node 12)
	maximum = 0.023 (at node 17)
Injected packet length average = 1
Accepted packet length average = 1
Total in-flight flits = 23 (0 measured)
latency change    = 1
throughput change = 1
Class 0:
Packet latency average = 33.2005
	minimum = 7
	maximum = 88
Network latency average = 33.2005
	minimum = 7
	maximum = 88
Slowest packet = 46448
Flit latency average = 33.2005
	minimum = 7
	maximum = 88
Slowest flit = 46448
Fragmentation average = 0
	minimum = 0
	maximum = 0
Injected packet rate average = 0.00992188
	minimum = 0.0035 (at node 8)
	maximum = 0.0175 (at node 10)
Accepted packet rate average = 0.00974219
	minimum = 0.0035 (at node 1)
	maximum = 0.0175 (at node 17)
Injected flit rate average = 0.00992188
	minimum = 0.0035 (at node 8)
	maximum = 0.0175 (at node 10)
Accepted flit rate average= 0.00974219
	minimum = 0.0035 (at node 1)
	maximum = 0.0175 (at node 17)
Injected packet length average = 1
Accepted packet length average = 1
Total in-flight flits = 23 (0 measured)
latency change    = 0.016734
throughput change = 0.00721732
Class 0:
Packet latency average = 33.9197
	minimum = 7
	maximum = 81
Network latency average = 33.9197
	minimum = 7
	maximum = 81
Slowest packet = 47386
Flit latency average = 33.9197
	minimum = 7
	maximum = 81
Slowest flit = 47386
Fragmentation average = 0
	minimum = 0
	maximum = 0
Injected packet rate average = 0.00973437
	minimum = 0.001 (at node 34)
	maximum = 0.021 (at node 14)
Accepted packet rate average = 0.00973437
	minimum = 0 (at node 20)
	maximum = 0.02 (at node 49)
Injected flit rate average = 0.00973437
	minimum = 0.001 (at node 34)
	maximum = 0.021 (at node 14)
Accepted flit rate average= 0.00973437
	minimum = 0 (at node 20)
	maximum = 0.02 (at node 49)
Injected packet length average = 1
Accepted packet length average = 1
Total in-flight flits = 23 (0 measured)
latency change    = 0.0212048
throughput change = 0.000802568
Warmed up ...Time used is 3000 cycles
Class 0:
Packet latency average = 34.2252
	minimum = 7
	maximum = 84
Network latency average = 34.2252
	minimum = 7
	maximum = 84
Slowest packet = 48091
Flit latency average = 34.6155
	minimum = 7
	maximum = 84
Slowest flit = 48091
Fragmentation average = 0
	minimum = 0
	maximum = 0
Injected packet rate average = 0.0102031
	minimum = 0.004 (at node 37)
	maximum = 0.02 (at node 4)
Accepted packet rate average = 0.0102813
	minimum = 0.004 (at node 44)
	maximum = 0.019 (at node 32)
Injected flit rate average = 0.0102031
	minimum = 0.004 (at node 37)
	maximum = 0.02 (at node 4)
Accepted flit rate average= 0.0102813
	minimum = 0.004 (at node 44)
	maximum = 0.019 (at node 32)
Injected packet length average = 1
Accepted packet length average = 1
Total in-flight flits = 18 (18 measured)
latency change    = 0.00892482
throughput change = 0.0531915
Class 0:
Packet latency average = 33.1287
	minimum = 7
	maximum = 84
Network latency average = 33.1287
	minimum = 7
	maximum = 84
Slowest packet = 48091
Flit latency average = 33.3385
	minimum = 7
	maximum = 84
Slowest flit = 48091
Fragmentation average = 0
	minimum = 0
	maximum = 0
Injected packet rate average = 0.0104453
	minimum = 0.005 (at node 37)
	maximum = 0.015 (at node 40)
Accepted packet rate average = 0.0105
	minimum = 0.005 (at node 44)
	maximum = 0.0145 (at node 5)
Injected flit rate average = 0.0104453
	minimum = 0.005 (at node 37)
	maximum = 0.015 (at node 40)
Accepted flit rate average= 0.0105
	minimum = 0.005 (at node 44)
	maximum = 0.0145 (at node 5)
Injected packet length average = 1
Accepted packet length average = 1
Total in-flight flits = 16 (16 measured)
latency change    = 0.0330984
throughput change = 0.0208333
Class 0:
Packet latency average = 33.444
	minimum = 7
	maximum = 85
Network latency average = 33.444
	minimum = 7
	maximum = 85
Slowest packet = 49917
Flit latency average = 33.5823
	minimum = 7
	maximum = 85
Slowest flit = 49917
Fragmentation average = 0
	minimum = 0
	maximum = 0
Injected packet rate average = 0.0102917
	minimum = 0.00666667 (at node 37)
	maximum = 0.0156667 (at node 19)
Accepted packet rate average = 0.010349
	minimum = 0.00666667 (at node 44)
	maximum = 0.0156667 (at node 26)
Injected flit rate average = 0.0102917
	minimum = 0.00666667 (at node 37)
	maximum = 0.0156667 (at node 19)
Accepted flit rate average= 0.010349
	minimum = 0.00666667 (at node 44)
	maximum = 0.0156667 (at node 26)
Injected packet length average = 1
Accepted packet length average = 1
Total in-flight flits = 12 (12 measured)
latency change    = 0.00942775
throughput change = 0.0145949
Class 0:
Packet latency average = 33.7239
	minimum = 7
	maximum = 98
Network latency average = 33.7239
	minimum = 7
	maximum = 98
Slowest packet = 50341
Flit latency average = 33.8259
	minimum = 7
	maximum = 98
Slowest flit = 50341
Fragmentation average = 0
	minimum = 0
	maximum = 0
Injected packet rate average = 0.0102734
	minimum = 0.007 (at node 37)
	maximum = 0.01475 (at node 40)
Accepted packet rate average = 0.0102773
	minimum = 0.007 (at node 44)
	maximum = 0.01475 (at node 5)
Injected flit rate average = 0.0102734
	minimum = 0.007 (at node 37)
	maximum = 0.01475 (at node 40)
Accepted flit rate average= 0.0102773
	minimum = 0.007 (at node 44)
	maximum = 0.01475 (at node 5)
Injected packet length average = 1
Accepted packet length average = 1
Total in-flight flits = 22 (22 measured)
latency change    = 0.00830077
throughput change = 0.0069682
Draining all recorded packets ...
Draining remaining packets ...
Time taken is 7145 cycles
Class 0:
Packet latency average = 33.0502
	minimum = 7
	maximum = 87
Network latency average = 33.0502
	minimum = 7
	maximum = 87
Slowest packet = 50749
Flit latency average = 33.0502
	minimum = 7
	maximum = 87
Slowest flit = 50749
Fragmentation average = 0
	minimum = 0
	maximum = 0
Injected packet rate average = 0.01
	minimum = 0.003 (at node 56)
	maximum = 0.019 (at node 1)
Accepted packet rate average = 0.00964062
	minimum = 0.003 (at node 7)
	maximum = 0.019 (at node 8)
Injected flit rate average = 0.01
	minimum = 0.003 (at node 56)
	maximum = 0.019 (at node 1)
Accepted flit rate average= 0.00964062
	minimum = 0.003 (at node 7)
	maximum = 0.019 (at node 8)
Injected packet length average = 1
Accepted packet length average = 1
Total in-flight flits = 23 (0 measured)
latency change    = 1
throughput change = 1
Class 0:
Packet latency average = 33.4746
	minimum = 7
	maximum = 87
Network latency average = 33.4746
	minimum = 7
	maximum = 87
Slowest packet = 50749
Flit latency average = 33.4746
	minimum = 7
	maximum = 87
Slowest flit = 50749
Fragmentation average = 0
	minimum = 0
	maximum = 0
Injected packet rate average = 0.0102422
	minimum = 0.006 (at node 47)
	maximum = 0.015 (at node 7)
Accepted packet rate average = 0.00999219
	minimum = 0.006 (at node 49)
	maximum = 0.014 (at node 8)
Injected flit rate average = 0.0102422
	minimum = 0.006 (at node 47)
	maximum = 0.015 (at node 7)
Accepted flit rate average= 0.00999219
	minimum = 0.006 (at node 49)
	maximum = 0.014 (at node 8)
Injected packet length average = 1
Accepted packet length average = 1
Total in-flight flits = 32 (0 measured)
latency change    = 0.0126767
throughput change = 0.0351837
Class 0:
Packet latency average = 34.9203
	minimum = 7
	maximum = 84
Network latency average = 34.9203
	minimum = 7
	maximum = 84
Slowest packet = 52110
Flit latency average = 34.9203
	minimum = 7
	maximum = 84
Slowest flit = 52110
Fragmentation average = 0
	minimum = 0
	maximum = 0
Injected packet rate average = 0.0102031
	minimum = 0.005 (at node 25)
	maximum = 0.016 (at node 48)
Accepted packet rate average = 0.0103906
	minimum = 0.005 (at node 11)
	maximum = 0.016 (at node 6)
Injected flit rate average = 0.0102031
	minimum = 0.005 (at node 25)
	maximum = 0.016 (at node 48)
Accepted flit rate average= 0.0103906
	minimum = 0.005 (at node 11)
	maximum = 0.016 (at node 6)
Injected packet length average = 1
Accepted packet length average = 1
Total in-flight flits = 20 (0 measured)
latency change    = 0.0414003
throughput change = 0.0383459
Warmed up ...Time used is 3000 cycles
Class 0:
Packet latency average = 32.6884
	minimum = 7
	maximum = 78
Network latency average = 32.6884
	minimum = 7
	maximum = 78
Slowest packet = 52680
Flit latency average = 33.2351
	minimum = 7
	maximum = 78
Slowest flit = 52680
Fragmentation average = 0
	minimum = 0
	maximum = 0
Injected packet rate average = 0.00935937
	minimum = 0.004 (at node 14)
	maximum = 0.015 (at node 18)
Accepted packet rate average = 0.0094375
	minimum = 0.002 (at node 49)
	maximum = 0.015 (at node 18)
Injected flit rate average = 0.00935937
	minimum = 0.004 (at node 14)
	maximum = 0.015 (at node 18)
Accepted flit rate average= 0.0094375
	minimum = 0.002 (at node 49)
	maximum = 0.015 (at node 18)
Injected packet length average = 1
Accepted packet length average = 1
Total in-flight flits = 15 (15 measured)
latency change    = 0.0682795
throughput change = 0.100993
Class 0:
Packet latency average = 33.5502
	minimum = 7
	maximum = 87
Network latency average = 33.5502
	minimum = 7
	maximum = 87
Slowest packet = 53515
Flit latency average = 33.7998
	minimum = 7
	maximum = 87
Slowest flit = 53515
Fragmentation average = 0
	minimum = 0
	maximum = 0
Injected packet rate average = 0.00982813
	minimum = 0.0055 (at node 45)
	maximum = 0.016 (at node 48)
Accepted packet rate average = 0.00979688
	minimum = 0.005 (at node 45)
	maximum = 0.015 (at node 6)
Injected flit rate average = 0.00982813
	minimum = 0.0055 (at node 45)
	maximum = 0.016 (at node 48)
Accepted flit rate average= 0.00979688
	minimum = 0.005 (at node 45)
	maximum = 0.015 (at node 6)
Injected packet length average = 1
Accepted packet length average = 1
Total in-flight flits = 24 (24 measured)
latency change    = 0.0256894
throughput change = 0.0366826
Class 0:
Packet latency average = 33.8371
	minimum = 7
	maximum = 87
Network latency average = 33.8371
	minimum = 7
	maximum = 87
Slowest packet = 53515
Flit latency average = 33.9984
	minimum = 7
	maximum = 87
Slowest flit = 53515
Fragmentation average = 0
	minimum = 0
	maximum = 0
Injected packet rate average = 0.00998958
	minimum = 0.00566667 (at node 24)
	maximum = 0.0133333 (at node 56)
Accepted packet rate average = 0.00992188
	minimum = 0.006 (at node 3)
	maximum = 0.0133333 (at node 7)
Injected flit rate average = 0.00998958
	minimum = 0.00566667 (at node 24)
	maximum = 0.0133333 (at node 56)
Accepted flit rate average= 0.00992188
	minimum = 0.006 (at node 3)
	maximum = 0.0133333 (at node 7)
Injected packet length average = 1
Accepted packet length average = 1
Total in-flight flits = 33 (33 measured)
latency change    = 0.00847862
throughput change = 0.0125984
Class 0:
Packet latency average = 33.5965
	minimum = 7
	maximum = 92
Network latency average = 33.5965
	minimum = 7
	maximum = 92
Slowest packet = 54950
Flit latency average = 33.7185
	minimum = 7
	maximum = 92
Slowest flit = 54950
Fragmentation average = 0
	minimum = 0
	maximum = 0
Injected packet rate average = 0.00998047
	minimum = 0.00675 (at node 24)
	maximum = 0.0125 (at node 60)
Accepted packet rate average = 0.00999219
	minimum = 0.00675 (at node 3)
	maximum = 0.0125 (at node 39)
Injected flit rate average = 0.00998047
	minimum = 0.00675 (at node 24)
	maximum = 0.0125 (at node 60)
Accepted flit rate average= 0.00999219
	minimum = 0.00675 (at node 3)
	maximum = 0.0125 (at node 39)
Injected packet length average = 1
Accepted packet length average = 1
Total in-flight flits = 17 (17 measured)
latency change    = 0.00716153
throughput change = 0.00703675
Draining all recorded packets ...
Draining remaining packets ...
Time taken is 7118 cycles
Class 0:
Packet latency average = 33.7828
	minimum = 7
	maximum = 86
Network latency average = 33.7828
	minimum = 7
	maximum = 86
Slowest packet = 55570
Flit latency average = 33.7828
	minimum = 7
	maximum = 86
Slowest flit = 55570
Fragmentation average = 0
	minimum = 0
	maximum = 0
Injected packet rate average = 0.00979688
	minimum = 0.004 (at node 33)
	maximum = 0.022 (at node 21)
Accepted packet rate average = 0.00942187
	minimum = 0.004 (at node 6)
	maximum = 0.02 (at node 42)
Injected flit rate average = 0.00979688
	minimum = 0.004 (at node 33)
	maximum = 0.022 (at node 21)
Accepted flit rate average= 0.00942187
	minimum = 0.004 (at node 6)
	maximum = 0.02 (at node 42)
Injected packet length average = 1
Accepted packet length average = 1
Total in-flight flits = 24 (0 measured)
latency change    = 1
throughput change = 1
Class 0:
Packet latency average = 34.1573
	minimum = 7
	maximum = 86
Network latency average = 34.1573
	minimum = 7
	maximum = 86
Slowest packet = 55570
Flit latency average = 34.1573
	minimum = 7
	maximum = 86
Slowest flit = 55570
Fragmentation average = 0
	minimum = 0
	maximum = 0
Injected packet rate average = 0.0100234
	minimum = 0.004 (at node 25)
	maximum = 0.016 (at node 21)
Accepted packet rate average = 0.00988281
	minimum = 0.004 (at node 11)
	maximum = 0.016 (at node 42)
Injected flit rate average = 0.0100234
	minimum = 0.004 (at node 25)
	maximum = 0.016 (at node 21)
Accepted flit rate average= 0.00988281
	minimum = 0.004 (at node 11)
	maximum = 0.016 (at node 42)
Injected packet length average = 1
Accepted packet length average = 1
Total in-flight flits = 18 (0 measured)
latency change    = 0.0109657
throughput change = 0.0466403
Class 0:
Packet latency average = 33.0661
	minimum = 7
	maximum = 81
Network latency average = 33.0661
	minimum = 7
	maximum = 81
Slowest packet = 56899
Flit latency average = 33.0661
	minimum = 7
	maximum = 81
Slowest flit = 56899
Fragmentation average = 0
	minimum = 0
	maximum = 0
Injected packet rate average = 0.00998438
	minimum = 0.003 (at node 57)
	maximum = 0.02 (at node 36)
Accepted packet rate average = 0.00992188
	minimum = 0.002 (at node 15)
	maximum = 0.02 (at node 36)
Injected flit rate average = 0.00998438
	minimum = 0.003 (at node 57)
	maximum = 0.02 (at node 36)
Accepted flit rate average= 0.00992188
	minimum = 0.002 (at node 15)
	maximum = 0.02 (at node 36)
Injected packet length average = 1
Accepted packet length average = 1
Total in-flight flits = 22 (0 measured)
latency change    = 0.0329996
throughput change = 0.00393701
Warmed up ...Time used is 3000 cycles
Class 0:
Packet latency average = 34.4522
	minimum = 7
	maximum = 95
Network latency average = 34.4522
	minimum = 7
	maximum = 95
Slowest packet = 57335
Flit latency average = 34.8781
	minimum = 7
	maximum = 95
Slowest flit = 57335
Fragmentation average = 0
	minimum = 0
	maximum = 0
Injected packet rate average = 0.010625
	minimum = 0.004 (at node 45)
	maximum = 0.02 (at node 32)
Accepted packet rate average = 0.0106406
	minimum = 0.004 (at node 7)
	maximum = 0.02 (at node 4)
Injected flit rate average = 0.010625
	minimum = 0.004 (at node 45)
	maximum = 0.02 (at node 32)
Accepted flit rate average= 0.0106406
	minimum = 0.004 (at node 7)
	maximum = 0.02 (at node 4)
Injected packet length average = 1
Accepted packet length average = 1
Total in-flight flits = 21 (21 measured)
latency change    = 0.0402314
throughput change = 0.0675477
Class 0:
Packet latency average = 33.5707
	minimum = 7
	maximum = 95
Network latency average = 33.5707
	minimum = 7
	maximum = 95
Slowest packet = 57335
Flit latency average = 33.8056
	minimum = 7
	maximum = 95
Slowest flit = 57335
Fragmentation average = 0
	minimum = 0
	maximum = 0
Injected packet rate average = 0.0102813
	minimum = 0.0055 (at node 45)
	maximum = 0.015 (at node 32)
Accepted packet rate average = 0.0102891
	minimum = 0.0055 (at node 7)
	maximum = 0.015 (at node 4)
Injected flit rate average = 0.0102813
	minimum = 0.0055 (at node 45)
	maximum = 0.015 (at node 32)
Accepted flit rate average= 0.0102891
	minimum = 0.0055 (at node 7)
	maximum = 0.015 (at node 4)
Injected packet length average = 1
Accepted packet length average = 1
Total in-flight flits = 21 (21 measured)
latency change    = 0.0262594
throughput change = 0.0341686
Class 0:
Packet latency average = 33.8597
	minimum = 7
	maximum = 95
Network latency average = 33.8597
	minimum = 7
	maximum = 95
Slowest packet = 57335
Flit latency average = 34.0171
	minimum = 7
	maximum = 95
Slowest flit = 57335
Fragmentation average = 0
	minimum = 0
	maximum = 0
Injected packet rate average = 0.0100313
	minimum = 0.006 (at node 45)
	maximum = 0.0156667 (at node 16)
Accepted packet rate average = 0.010026
	minimum = 0.006 (at node 45)
	maximum = 0.0153333 (at node 2)
Injected flit rate average = 0.0100313
	minimum = 0.006 (at node 45)
	maximum = 0.0156667 (at node 16)
Accepted flit rate average= 0.010026
	minimum = 0.006 (at node 45)
[...]
Accepted flit rate average= 0.00979688
	minimum = 0.0055 (at node 11)
	maximum = 0.015 (at node 41)
Injected packet length average = 1
Accepted packet length average = 1
Total in-flight flits = 24 (24 measured)
latency change    = 0.00804792
throughput change = 0.0494418
Class 0:
Packet latency average = 33.8397
	minimum = 7
	maximum = 87
Network latency average = 33.8397
	minimum = 7
	maximum = 87
Slowest packet = 408696
Flit latency average = 33.9228
	minimum = 7
	maximum = 87
Slowest flit = 408696
Fragmentation average = 0
	minimum = 0
	maximum = 0
Injected packet rate average = 0.00985938
	minimum = 0.00633333 (at node 9)
	maximum = 0.0143333 (at node 52)
Accepted packet rate average = 0.00985417
	minimum = 0.00633333 (at node 9)
	maximum = 0.0143333 (at node 38)
Injected flit rate average = 0.00985938
	minimum = 0.00633333 (at node 9)
	maximum = 0.0143333 (at node 52)
Accepted flit rate average= 0.00985417
	minimum = 0.00633333 (at node 9)
	maximum = 0.0143333 (at node 38)
Injected packet length average = 1
Accepted packet length average = 1
Total in-flight flits = 22 (22 measured)
latency change    = 0.00339614
throughput change = 0.00581395
Draining all recorded packets ...
Draining remaining packets ...
Time taken is 6133 cycles
Class 0:
Packet latency average = 33.8702
	minimum = 7
	maximum = 84
Network latency average = 33.8702
	minimum = 7
	maximum = 84
Slowest packet = 410725
Flit latency average = 33.8702
	minimum = 7
	maximum = 84
Slowest flit = 410725
Fragmentation average = 0
	minimum = 0
	maximum = 0
Injected packet rate average = 0.009375
	minimum = 0.003 (at node 9)
	maximum = 0.022 (at node 50)
Accepted packet rate average = 0.00903125
	minimum = 0.003 (at node 9)
	maximum = 0.022 (at node 22)
Injected flit rate average = 0.009375
	minimum = 0.003 (at node 9)
	maximum = 0.022 (at node 50)
Accepted flit rate average= 0.00903125
	minimum = 0.003 (at node 9)
	maximum = 0.022 (at node 22)
Injected packet length average = 1
Accepted packet length average = 1
Total in-flight flits = 22 (0 measured)
latency change    = 1
throughput change = 1
Class 0:
Packet latency average = 33.5191
	minimum = 7
	maximum = 85
Network latency average = 33.5191
	minimum = 7
	maximum = 85
Slowest packet = 411589
Flit latency average = 33.5191
	minimum = 7
	maximum = 85
Slowest flit = 411589
Fragmentation average = 0
	minimum = 0
	maximum = 0
Injected packet rate average = 0.00955469
	minimum = 0.004 (at node 0)
	maximum = 0.0155 (at node 50)
Accepted packet rate average = 0.00940625
	minimum = 0.004 (at node 0)
	maximum = 0.015 (at node 22)
Injected flit rate average = 0.00955469
	minimum = 0.004 (at node 0)
	maximum = 0.0155 (at node 50)
Accepted flit rate average= 0.00940625
	minimum = 0.004 (at node 0)
	maximum = 0.015 (at node 22)
Injected packet length average = 1
Accepted packet length average = 1
Total in-flight flits = 19 (0 measured)
latency change    = 0.0104758
throughput change = 0.0398671
Class 0:
Packet latency average = 34.309
	minimum = 7
	maximum = 96
Network latency average = 34.309
	minimum = 7
	maximum = 96
Slowest packet = 411766
Flit latency average = 34.309
	minimum = 7
	maximum = 96
Slowest flit = 411766
Fragmentation average = 0
	minimum = 0
	maximum = 0
Injected packet rate average = 0.0104844
	minimum = 0.005 (at node 2)
	maximum = 0.018 (at node 10)
Accepted packet rate average = 0.0104688
	minimum = 0.005 (at node 4)
	maximum = 0.018 (at node 49)
Injected flit rate average = 0.0104844
	minimum = 0.005 (at node 2)
	maximum = 0.018 (at node 10)
Accepted flit rate average= 0.0104688
	minimum = 0.005 (at node 4)
	maximum = 0.018 (at node 49)
Injected packet length average = 1
Accepted packet length average = 1
Total in-flight flits = 20 (0 measured)
latency change    = 0.0230218
throughput change = 0.101493
Warmed up ...Time used is 3000 cycles
Class 0:
Packet latency average = 33.6353
	minimum = 7
	maximum = 95
Network latency average = 33.6353
	minimum = 7
	maximum = 95
Slowest packet = 412841
Flit latency average = 33.8259
	minimum = 7
	maximum = 95
Slowest flit = 412841
Fragmentation average = 0
	minimum = 0
	maximum = 0
Injected packet rate average = 0.00975
	minimum = 0.004 (at node 4)
	maximum = 0.017 (at node 3)
Accepted packet rate average = 0.00978125
	minimum = 0.004 (at node 61)
	maximum = 0.017 (at node 24)
Injected flit rate average = 0.00975
	minimum = 0.004 (at node 4)
	maximum = 0.017 (at node 3)
Accepted flit rate average= 0.00978125
	minimum = 0.004 (at node 61)
	maximum = 0.017 (at node 24)
Injected packet length average = 1
Accepted packet length average = 1
Total in-flight flits = 18 (18 measured)
latency change    = 0.0200278
throughput change = 0.0702875
Class 0:
Packet latency average = 33.332
	minimum = 7
	maximum = 95
Network latency average = 33.332
	minimum = 7
	maximum = 95
Slowest packet = 412841
Flit latency average = 33.43
	minimum = 7
	maximum = 95
Slowest flit = 412841
Fragmentation average = 0
	minimum = 0
	maximum = 0
Injected packet rate average = 0.00994531
	minimum = 0.006 (at node 33)
	maximum = 0.0165 (at node 3)
Accepted packet rate average = 0.00999219
	minimum = 0.006 (at node 12)
	maximum = 0.0165 (at node 24)
Injected flit rate average = 0.00994531
	minimum = 0.006 (at node 33)
	maximum = 0.0165 (at node 3)
Accepted flit rate average= 0.00999219
	minimum = 0.006 (at node 12)
	maximum = 0.0165 (at node 24)
Injected packet length average = 1
Accepted packet length average = 1
Total in-flight flits = 14 (14 measured)
latency change    = 0.00909948
throughput change = 0.0211102
Class 0:
Packet latency average = 33.282
	minimum = 7
	maximum = 95
Network latency average = 33.282
	minimum = 7
	maximum = 95
Slowest packet = 412841
Flit latency average = 33.3489
	minimum = 7
	maximum = 95
Slowest flit = 412841
Fragmentation average = 0
	minimum = 0
	maximum = 0
Injected packet rate average = 0.00983854
	minimum = 0.00566667 (at node 33)
	maximum = 0.0143333 (at node 10)
Accepted packet rate average = 0.00983854
	minimum = 0.00566667 (at node 12)
	maximum = 0.0146667 (at node 17)
Injected flit rate average = 0.00983854
	minimum = 0.00566667 (at node 33)
	maximum = 0.0143333 (at node 10)
Accepted flit rate average= 0.00983854
	minimum = 0.00566667 (at node 12)
	maximum = 0.0146667 (at node 17)
Injected packet length average = 1
Accepted packet length average = 1
Total in-flight flits = 20 (20 measured)
latency change    = 0.00150353
throughput change = 0.0156167
Class 0:
Packet latency average = 33.17
	minimum = 7
	maximum = 95
Network latency average = 33.17
	minimum = 7
	maximum = 95
Slowest packet = 412841
Flit latency average = 33.2215
	minimum = 7
	maximum = 95
Slowest flit = 412841
Fragmentation average = 0
	minimum = 0
	maximum = 0
Injected packet rate average = 0.00978516
	minimum = 0.00675 (at node 47)
	maximum = 0.01375 (at node 10)
Accepted packet rate average = 0.00975391
	minimum = 0.00675 (at node 61)
	maximum = 0.014 (at node 17)
Injected flit rate average = 0.00978516
	minimum = 0.00675 (at node 47)
	maximum = 0.01375 (at node 10)
Accepted flit rate average= 0.00975391
	minimum = 0.00675 (at node 61)
	maximum = 0.014 (at node 17)
Injected packet length average = 1
Accepted packet length average = 1
Total in-flight flits = 28 (28 measured)
latency change    = 0.00337671
throughput change = 0.00867708
Draining all recorded packets ...
Draining remaining packets ...
Time taken is 7137 cycles
Class 0:
Packet latency average = 33.314
	minimum = 7
	maximum = 90
Network latency average = 33.314
	minimum = 7
	maximum = 90
Slowest packet = 415034
Flit latency average = 33.314
	minimum = 7
	maximum = 90
Slowest flit = 415034
Fragmentation average = 0
	minimum = 0
	maximum = 0
Injected packet rate average = 0.0102656
	minimum = 0.003 (at node 13)
	maximum = 0.022 (at node 55)
Accepted packet rate average = 0.00995313
	minimum = 0.003 (at node 41)
	maximum = 0.022 (at node 62)
Injected flit rate average = 0.0102656
	minimum = 0.003 (at node 13)
	maximum = 0.022 (at node 55)
Accepted flit rate average= 0.00995313
	minimum = 0.003 (at node 41)
	maximum = 0.022 (at node 62)
Injected packet length average = 1
Accepted packet length average = 1
Total in-flight flits = 20 (0 measured)
latency change    = 1
throughput change = 1
Class 0:
Packet latency average = 33.5976
	minimum = 7
	maximum = 90
Network latency average = 33.5976
	minimum = 7
	maximum = 90
Slowest packet = 415034
Flit latency average = 33.5976
	minimum = 7
	maximum = 90
Slowest flit = 415034
Fragmentation average = 0
	minimum = 0
	maximum = 0
Injected packet rate average = 0.00979688
	minimum = 0.0045 (at node 29)
	maximum = 0.017 (at node 55)
Accepted packet rate average = 0.00964844
	minimum = 0.0045 (at node 41)
	maximum = 0.017 (at node 62)
Injected flit rate average = 0.00979688
	minimum = 0.0045 (at node 29)
	maximum = 0.017 (at node 55)
Accepted flit rate average= 0.00964844
	minimum = 0.0045 (at node 41)
	maximum = 0.017 (at node 62)
Injected packet length average = 1
Accepted packet length average = 1
Total in-flight flits = 19 (0 measured)
latency change    = 0.00844106
throughput change = 0.0315789
Class 0:
Packet latency average = 33.4955
	minimum = 7
	maximum = 86
Network latency average = 33.4955
	minimum = 7
	maximum = 86
Slowest packet = 416199
Flit latency average = 33.4955
	minimum = 7
	maximum = 86
Slowest flit = 416199
Fragmentation average = 0
	minimum = 0
	maximum = 0
Injected packet rate average = 0.0105469
	minimum = 0.003 (at node 0)
	maximum = 0.018 (at node 46)
Accepted packet rate average = 0.0104063
	minimum = 0.003 (at node 0)
	maximum = 0.018 (at node 53)
Injected flit rate average = 0.0105469
	minimum = 0.003 (at node 0)
	maximum = 0.018 (at node 46)
Accepted flit rate average= 0.0104063
	minimum = 0.003 (at node 0)
	maximum = 0.018 (at node 53)
Injected packet length average = 1
Accepted packet length average = 1
Total in-flight flits = 28 (0 measured)
latency change    = 0.00304744
throughput change = 0.0728228
Warmed up ...Time used is 3000 cycles
Class 0:
Packet latency average = 32.4084
	minimum = 7
	maximum = 84
Network latency average = 32.4084
	minimum = 7
	maximum = 84
Slowest packet = 417398
Flit latency average = 33.1592
	minimum = 7
	maximum = 84
Slowest flit = 416853
Fragmentation average = 0
	minimum = 0
	maximum = 0
Injected packet rate average = 0.0103438
	minimum = 0.004 (at node 58)
	maximum = 0.023 (at node 27)
Accepted packet rate average = 0.0105
	minimum = 0.005 (at node 8)
	maximum = 0.023 (at node 27)
Injected flit rate average = 0.0103438
	minimum = 0.004 (at node 58)
	maximum = 0.023 (at node 27)
Accepted flit rate average= 0.0105
	minimum = 0.005 (at node 8)
	maximum = 0.023 (at node 27)
Injected packet length average = 1
Accepted packet length average = 1
Total in-flight flits = 18 (18 measured)
latency change    = 0.0335441
throughput change = 0.00892857
Class 0:
Packet latency average = 32.8589
	minimum = 7
	maximum = 86
Network latency average = 32.8589
	minimum = 7
	maximum = 86
Slowest packet = 417859
Flit latency average = 33.2263
	minimum = 7
	maximum = 86
Slowest flit = 417859
Fragmentation average = 0
	minimum = 0
	maximum = 0
Injected packet rate average = 0.0103594
	minimum = 0.0065 (at node 21)
	maximum = 0.017 (at node 27)
Accepted packet rate average = 0.0104609
	minimum = 0.007 (at node 4)
	maximum = 0.017 (at node 27)
Injected flit rate average = 0.0103594
	minimum = 0.0065 (at node 21)
	maximum = 0.017 (at node 27)
Accepted flit rate average= 0.0104609
	minimum = 0.007 (at node 4)
	maximum = 0.017 (at node 27)
Injected packet length average = 1
Accepted packet length average = 1
Total in-flight flits = 15 (15 measured)
latency change    = 0.0137102
throughput change = 0.00373413
Class 0:
Packet latency average = 33.5047
	minimum = 7
	maximum = 86
Network latency average = 33.5047
	minimum = 7
	maximum = 86
Slowest packet = 417859
Flit latency average = 33.7464
	minimum = 7
	maximum = 86
Slowest flit = 417859
Fragmentation average = 0
	minimum = 0
	maximum = 0
Injected packet rate average = 0.0101927
	minimum = 0.00666667 (at node 8)
	maximum = 0.0146667 (at node 27)
Accepted packet rate average = 0.0102083
	minimum = 0.00666667 (at node 1)
	maximum = 0.0146667 (at node 27)
Injected flit rate average = 0.0101927
	minimum = 0.00666667 (at node 8)
	maximum = 0.0146667 (at node 27)
Accepted flit rate average= 0.0102083
	minimum = 0.00666667 (at node 1)
	maximum = 0.0146667 (at node 27)
Injected packet length average = 1
Accepted packet length average = 1
Total in-flight flits = 25 (25 measured)
latency change    = 0.0192741
throughput change = 0.0247449
Draining all recorded packets ...
Draining remaining packets ...
Time taken is 6119 cycles
Class 0:
Packet latency average = 34.9393
	minimum = 7
	maximum = 84
Network latency average = 34.9393
	minimum = 7
	maximum = 84
Slowest packet = 419047
Flit latency average = 34.9393
	minimum = 7
	maximum = 84
Slowest flit = 419047
Fragmentation average = 0
	minimum = 0
	maximum = 0
Injected packet rate average = 0.00984375
	minimum = 0.004 (at node 20)
	maximum = 0.018 (at node 7)
Accepted packet rate average = 0.00953125
	minimum = 0.004 (at node 34)
	maximum = 0.018 (at node 11)
Injected flit rate average = 0.00984375
	minimum = 0.004 (at node 20)
	maximum = 0.018 (at node 7)
Accepted flit rate average= 0.00953125
	minimum = 0.004 (at node 34)
	maximum = 0.018 (at node 11)
Injected packet length average = 1
Accepted packet length average = 1
Total in-flight flits = 20 (0 measured)
latency change    = 1
throughput change = 1
Class 0:
Packet latency average = 34.5235
	minimum = 7
	maximum = 84
Network latency average = 34.5235
	minimum = 7
	maximum = 84
Slowest packet = 419047
Flit latency average = 34.5235
	minimum = 7
	maximum = 84
Slowest flit = 419047
Fragmentation average = 0
	minimum = 0
	maximum = 0
Injected packet rate average = 0.0100156
	minimum = 0.0045 (at node 20)
	maximum = 0.0145 (at node 38)
Accepted packet rate average = 0.00980469
	minimum = 0.004 (at node 34)
	maximum = 0.0145 (at node 52)
Injected flit rate average = 0.0100156
	minimum = 0.0045 (at node 20)
	maximum = 0.0145 (at node 38)
Accepted flit rate average= 0.00980469
	minimum = 0.004 (at node 34)
	maximum = 0.0145 (at node 52)
Injected packet length average = 1
Accepted packet length average = 1
Total in-flight flits = 27 (0 measured)
latency change    = 0.0120451
throughput change = 0.0278884
Class 0:
Packet latency average = 33.6031
	minimum = 7
	maximum = 80
Network latency average = 33.6031
	minimum = 7
	maximum = 80
Slowest packet = 420373
Flit latency average = 33.6031
	minimum = 7
	maximum = 80
Slowest flit = 420373
Fragmentation average = 0
	minimum = 0
	maximum = 0
Injected packet rate average = 0.0101719
	minimum = 0.003 (at node 39)
	maximum = 0.018 (at node 47)
Accepted packet rate average = 0.0102344
	minimum = 0.003 (at node 60)
	maximum = 0.019 (at node 61)
Injected flit rate average = 0.0101719
	minimum = 0.003 (at node 39)
	maximum = 0.018 (at node 47)
Accepted flit rate average= 0.0102344
	minimum = 0.003 (at node 60)
	maximum = 0.019 (at node 61)
Injected packet length average = 1
Accepted packet length average = 1
Total in-flight flits = 23 (0 measured)
latency change    = 0.0273919
throughput change = 0.0419847
Warmed up ...Time used is 3000 cycles
Class 0:
Packet latency average = 33.5113
	minimum = 7
	maximum = 82
Network latency average = 33.5113
	minimum = 7
	maximum = 82
Slowest packet = 420858
Flit latency average = 34.1862
	minimum = 7
	maximum = 82
Slowest flit = 420858
Fragmentation average = 0
	minimum = 0
	maximum = 0
Injected packet rate average = 0.00935937
	minimum = 0.004 (at node 13)
	maximum = 0.015 (at node 48)
Accepted packet rate average = 0.0093125
	minimum = 0.004 (at node 41)
	maximum = 0.017 (at node 6)
Injected flit rate average = 0.00935937
	minimum = 0.004 (at node 13)
	maximum = 0.015 (at node 48)
Accepted flit rate average= 0.0093125
	minimum = 0.004 (at node 41)
	maximum = 0.017 (at node 6)
Injected packet length average = 1
Accepted packet length average = 1
Total in-flight flits = 26 (26 measured)
latency change    = 0.00273667
throughput change = 0.0989933
Class 0:
Packet latency average = 34.2931
	minimum = 7
	maximum = 91
Network latency average = 34.2931
	minimum = 7
	maximum = 91
Slowest packet = 421849
Flit latency average = 34.607
	minimum = 7
	maximum = 91
Slowest flit = 421849
Fragmentation average = 0
	minimum = 0
	maximum = 0
Injected packet rate average = 0.00953125
	minimum = 0.0045 (at node 31)
	maximum = 0.0145 (at node 48)
Accepted packet rate average = 0.0095625
	minimum = 0.005 (at node 59)
	maximum = 0.0155 (at node 6)
Injected flit rate average = 0.00953125
	minimum = 0.0045 (at node 31)
	maximum = 0.0145 (at node 48)
Accepted flit rate average= 0.0095625
	minimum = 0.005 (at node 59)
	maximum = 0.0155 (at node 6)
Injected packet length average = 1
Accepted packet length average = 1
Total in-flight flits = 19 (19 measured)
latency change    = 0.022796
throughput change = 0.0261438
Class 0:
Packet latency average = 33.8245
	minimum = 7
	maximum = 95
Network latency average = 33.8245
	minimum = 7
	maximum = 95
Slowest packet = 422220
Flit latency average = 34.0327
	minimum = 7
	maximum = 95
Slowest flit = 422220
Fragmentation average = 0
	minimum = 0
	maximum = 0
Injected packet rate average = 0.00988021
	minimum = 0.00566667 (at node 14)
	maximum = 0.0133333 (at node 49)
Accepted packet rate average = 0.00988542
	minimum = 0.00666667 (at node 49)
	maximum = 0.0136667 (at node 6)
Injected flit rate average = 0.00988021
	minimum = 0.00566667 (at node 14)
	maximum = 0.0133333 (at node 49)
Accepted flit rate average= 0.00988542
	minimum = 0.00666667 (at node 49)
	maximum = 0.0136667 (at node 6)
Injected packet length average = 1
Accepted packet length average = 1
Total in-flight flits = 22 (22 measured)
latency change    = 0.0138525
throughput change = 0.032666
Class 0:
Packet latency average = 33.5364
	minimum = 7
	maximum = 95
Network latency average = 33.5364
	minimum = 7
	maximum = 95
Slowest packet = 422220
Flit latency average = 33.6964
	minimum = 7
	maximum = 95
Slowest flit = 422220
Fragmentation average = 0
	minimum = 0
	maximum = 0
Injected packet rate average = 0.00980469
	minimum = 0.00625 (at node 14)
	maximum = 0.0125 (at node 62)
Accepted packet rate average = 0.00980469
	minimum = 0.007 (at node 63)
	maximum = 0.013 (at node 6)
Injected flit rate average = 0.00980469
	minimum = 0.00625 (at node 14)
	maximum = 0.0125 (at node 62)
Accepted flit rate average= 0.00980469
	minimum = 0.007 (at node 63)
	maximum = 0.013 (at node 6)
Injected packet length average = 1
Accepted packet length average = 1
Total in-flight flits = 23 (23 measured)
latency change    = 0.00859198
throughput change = 0.00823373
Draining all recorded packets ...
Draining remaining packets ...
Time taken is 7114 cycles
====== Overall Traffic Statistics ======
====== Traffic class 0 ======
Packet latency average = 33.4802 (100 samples)
	minimum = 7 (100 samples)
	maximum = 88.08 (100 samples)
Network latency average = 33.4802 (100 samples)
	minimum = 7 (100 samples)
	maximum = 88.08 (100 samples)
Flit latency average = 33.5873 (100 samples)
	minimum = 7 (100 samples)
	maximum = 88.16 (100 samples)
Fragmentation average = 0 (100 samples)
	minimum = 0 (100 samples)
	maximum = 0 (100 samples)
Injected packet rate average = 0.00997172 (100 samples)
	minimum = 0.00633267 (100 samples)
	maximum = 0.0141657 (100 samples)
Accepted packet rate average = 0.00997504 (100 samples)
	minimum = 0.00635183 (100 samples)
	maximum = 0.0141428 (100 samples)
Injected flit rate average = 0.00997172 (100 samples)
	minimum = 0.00633267 (100 samples)
	maximum = 0.0141657 (100 samples)
Accepted flit rate average = 0.00997504 (100 samples)
	minimum = 0.00635183 (100 samples)
	maximum = 0.0141428 (100 samples)
Injected packet size average = 1 (100 samples)
Accepted packet size average = 1 (100 samples)
Hops average = 6.24564 (100 samples)
Total run time 47.9945
