BEGIN Configuration File: /tmp/tmp4u5v2w08.cfg
topology = mesh;
k = 4;
n = 2;
routing_function = gnn_port_score_route_4x4;
num_vcs = 4;
vc_buf_size = 4;
wait_for_tail_credit = 1;
vc_allocator = islip;
sw_allocator = islip;
alloc_iters = 1;
credit_delay = 2;
routing_delay = 1;
vc_alloc_delay = 1;
sw_alloc_delay = 1;
input_speedup = 2;
output_speedup = 1;
internal_speedup = 1.0;
traffic = transpose;
packet_size = 1;
sim_type = latency;
injection_rate = 0.05;
warmup_periods = 3;
sample_period = 1000;
sim_count = 100;
seed = 4;

END Configuration File: /tmp/tmp4u5v2w08.cfg
Class 0:
Packet latency average = 19.6818
	minimum = 7
	maximum = 46
Network latency average = 19.6818
	minimum = 7
	maximum = 46
Slowest packet = 239
Flit latency average = 19.6818
	minimum = 7
	maximum = 46
Slowest flit = 239
Fragmentation average = 0
	minimum = 0
	maximum = 0
Injected packet rate average = 0.051625
	minimum = 0.037 (at node 11)
	maximum = 0.062 (at node 2)
Accepted packet rate average = 0.050875
	minimum = 0.037 (at node 14)
	maximum = 0.061 (at node 0)
Injected flit rate average = 0.051625
	minimum = 0.037 (at node 11)
	maximum = 0.062 (at node 2)
Accepted flit rate average= 0.050875
	minimum = 0.037 (at node 14)
	maximum = 0.061 (at node 0)
Injected packet length average = 1
Accepted packet length average = 1
Total in-flight flits = 12 (0 measured)
latency change    = 1
throughput change = 1
Class 0:
Packet latency average = 19.92
	minimum = 7
	maximum = 46
Network latency average = 19.92
	minimum = 7
	maximum = 46
Slowest packet = 239
Flit latency average = 19.92
	minimum = 7
	maximum = 46
Slowest flit = 239
Fragmentation average = 0
	minimum = 0
	maximum = 0
Injected packet rate average = 0.0511875
	minimum = 0.042 (at node 11)
	maximum = 0.0595 (at node 9)
Accepted packet rate average = 0.0507812
	minimum = 0.0405 (at node 14)
	maximum = 0.0595 (at node 6)
Injected flit rate average = 0.0511875
	minimum = 0.042 (at node 11)
	maximum = 0.0595 (at node 9)
Accepted flit rate average= 0.0507812
	minimum = 0.0405 (at node 14)
	maximum = 0.0595 (at node 6)
Injected packet length average = 1
Accepted packet length average = 1
Total in-flight flits = 13 (0 measured)
latency change    = 0.0119569
throughput change = 0.00184615
Class 0:
Packet latency average = 20.0735
	minimum = 7
	maximum = 45
Network latency average = 20.0735
	minimum = 7
	maximum = 45
Slowest packet = 1837
Flit latency average = 20.0735
	minimum = 7
	maximum = 45
Slowest flit = 1837
Fragmentation average = 0
	minimum = 0
	maximum = 0
Injected packet rate average = 0.0509375
	minimum = 0.035 (at node 6)
	maximum = 0.064 (at node 2)
Accepted packet rate average = 0.051
	minimum = 0.034 (at node 9)
	maximum = 0.066 (at node 8)
Injected flit rate average = 0.0509375
	minimum = 0.035 (at node 6)
	maximum = 0.064 (at node 2)
Accepted flit rate average= 0.051
	minimum = 0.034 (at node 9)
	maximum = 0.066 (at node 8)
Injected packet length average = 1
Accepted packet length average = 1
Total in-flight flits = 12 (0 measured)
latency change    = 0.00764835
throughput change = 0.00428922
Warmed up ...Time used is 3000 cycles
Class 0:
Packet latency average = 19.2981
	minimum = 7
	maximum = 45
Network latency average = 19.2981
	minimum = 7
	maximum = 45
Slowest packet = 2689
Flit latency average = 19.3388
	minimum = 7
	maximum = 45
Slowest flit = 2689
Fragmentation average = 0
	minimum = 0
	maximum = 0
Injected packet rate average = 0.0501875
	minimum = 0.04 (at node 12)
	maximum = 0.059 (at node 10)
Accepted packet rate average = 0.0498125
	minimum = 0.04 (at node 3)
	maximum = 0.059 (at node 10)
Injected flit rate average = 0.0501875
	minimum = 0.04 (at node 12)
	maximum = 0.059 (at node 10)
Accepted flit rate average= 0.0498125
	minimum = 0.04 (at node 3)
	maximum = 0.059 (at node 10)
Injected packet length average = 1
Accepted packet length average = 1
Total in-flight flits = 18 (18 measured)
latency change    = 0.0401822
throughput change = 0.0238394
Class 0:
Packet latency average = 19.7612
	minimum = 7
	maximum = 47
Network latency average = 19.7612
	minimum = 7
	maximum = 47
Slowest packet = 3463
Flit latency average = 19.7778
	minimum = 7
	maximum = 47
Slowest flit = 3463
Fragmentation average = 0
	minimum = 0
	maximum = 0
Injected packet rate average = 0.050625
	minimum = 0.0405 (at node 4)
	maximum = 0.0595 (at node 13)
Accepted packet rate average = 0.050625
	minimum = 0.041 (at node 1)
	maximum = 0.0585 (at node 7)
Injected flit rate average = 0.050625
	minimum = 0.0405 (at node 4)
	maximum = 0.0595 (at node 13)
Accepted flit rate average= 0.050625
	minimum = 0.041 (at node 1)
	maximum = 0.0585 (at node 7)
Injected packet length average = 1
Accepted packet length average = 1
Total in-flight flits = 12 (12 measured)
latency change    = 0.0234351
throughput change = 0.0160494
Class 0:
Packet latency average = 19.6552
	minimum = 7
	maximum = 47
Network latency average = 19.6552
	minimum = 7
	maximum = 47
Slowest packet = 3463
Flit latency average = 19.6668
	minimum = 7
	maximum = 47
Slowest flit = 3463
Fragmentation average = 0
	minimum = 0
	maximum = 0
Injected packet rate average = 0.0506667
	minimum = 0.044 (at node 4)
	maximum = 0.0596667 (at node 13)
Accepted packet rate average = 0.0505833
	minimum = 0.044 (at node 1)
	maximum = 0.059 (at node 7)
Injected flit rate average = 0.0506667
	minimum = 0.044 (at node 4)
	maximum = 0.0596667 (at node 13)
Accepted flit rate average= 0.0505833
	minimum = 0.044 (at node 1)
	maximum = 0.059 (at node 7)
Injected packet length average = 1
Accepted packet length average = 1
Total in-flight flits = 16 (16 measured)
latency change    = 0.00539189
throughput change = 0.000823723
Draining all recorded packets ...
Draining remaining packets ...
Time taken is 6062 cycles
Class 0:
Packet latency average = 19.1497
	minimum = 7
	maximum = 44
Network latency average = 19.1497
	minimum = 7
	maximum = 44
Slowest packet = 5247
Flit latency average = 19.1497
	minimum = 7
	maximum = 44
Slowest flit = 5247
Fragmentation average = 0
	minimum = 0
	maximum = 0
Injected packet rate average = 0.0485625
	minimum = 0.037 (at node 6)
	maximum = 0.057 (at node 15)
Accepted packet rate average = 0.0471875
	minimum = 0.036 (at node 9)
	maximum = 0.057 (at node 15)
Injected flit rate average = 0.0485625
	minimum = 0.037 (at node 6)
	maximum = 0.057 (at node 15)
Accepted flit rate average= 0.0471875
	minimum = 0.036 (at node 9)
	maximum = 0.057 (at node 15)
Injected packet length average = 1
Accepted packet length average = 1
Total in-flight flits = 22 (0 measured)
latency change    = 1
throughput change = 1
Class 0:
Packet latency average = 19.6896
	minimum = 7
	maximum = 47
Network latency average = 19.6896
	minimum = 7
	maximum = 47
Slowest packet = 5967
Flit latency average = 19.6896
	minimum = 7
	maximum = 47
Slowest flit = 5967
Fragmentation average = 0
	minimum = 0
	maximum = 0
Injected packet rate average = 0.0498125
	minimum = 0.0385 (at node 6)
	maximum = 0.057 (at node 10)
Accepted packet rate average = 0.0495312
	minimum = 0.0385 (at node 9)
	maximum = 0.057 (at node 10)
Injected flit rate average = 0.0498125
	minimum = 0.0385 (at node 6)
	maximum = 0.057 (at node 10)
Accepted flit rate average= 0.0495312
	minimum = 0.0385 (at node 9)
	maximum = 0.057 (at node 10)
Injected packet length average = 1
Accepted packet length average = 1
Total in-flight flits = 9 (0 measured)
latency change    = 0.0274216
throughput change = 0.0473186
Class 0:
Packet latency average = 20.2191
	minimum = 7
	maximum = 46
Network latency average = 20.2191
	minimum = 7
	maximum = 46
Slowest packet = 7095
Flit latency average = 20.2191
	minimum = 7
	maximum = 46
Slowest flit = 7095
Fragmentation average = 0
	minimum = 0
	maximum = 0
Injected packet rate average = 0.049
	minimum = 0.036 (at node 0)
	maximum = 0.059 (at node 7)
Accepted packet rate average = 0.0485
	minimum = 0.037 (at node 0)
	maximum = 0.06 (at node 13)
Injected flit rate average = 0.049
	minimum = 0.036 (at node 0)
	maximum = 0.059 (at node 7)
Accepted flit rate average= 0.0485
	minimum = 0.037 (at node 0)
	maximum = 0.06 (at node 13)
Injected packet length average = 1
Accepted packet length average = 1
Total in-flight flits = 17 (0 measured)
latency change    = 0.0261873
throughput change = 0.0212629
Warmed up ...Time used is 3000 cycles
Class 0:
Packet latency average = 19.6773
	minimum = 7
	maximum = 43
Network latency average = 19.6773
	minimum = 7
	maximum = 43
Slowest packet = 7295
Flit latency average = 19.6984
	minimum = 7
	maximum = 43
Slowest flit = 7295
Fragmentation average = 0
	minimum = 0
	maximum = 0
Injected packet rate average = 0.045625
	minimum = 0.034 (at node 0)
	maximum = 0.058 (at node 12)
Accepted packet rate average = 0.046
	minimum = 0.034 (at node 0)
	maximum = 0.058 (at node 3)
Injected flit rate average = 0.045625
	minimum = 0.034 (at node 0)
	maximum = 0.058 (at node 12)
Accepted flit rate average= 0.046
	minimum = 0.034 (at node 0)
	maximum = 0.058 (at node 3)
Injected packet length average = 1
Accepted packet length average = 1
Total in-flight flits = 11 (11 measured)
latency change    = 0.0275313
throughput change = 0.0543478
Class 0:
Packet latency average = 19.6698
	minimum = 7
	maximum = 45
Network latency average = 19.6698
	minimum = 7
	maximum = 45
Slowest packet = 8531
Flit latency average = 19.6802
	minimum = 7
	maximum = 45
Slowest flit = 8531
Fragmentation average = 0
	minimum = 0
	maximum = 0
Injected packet rate average = 0.047125
	minimum = 0.04 (at node 14)
	maximum = 0.0595 (at node 15)
Accepted packet rate average = 0.047
	minimum = 0.0405 (at node 4)
	maximum = 0.0595 (at node 15)
Injected flit rate average = 0.047125
	minimum = 0.04 (at node 14)
	maximum = 0.0595 (at node 15)
Accepted flit rate average= 0.047
	minimum = 0.0405 (at node 4)
	maximum = 0.0595 (at node 15)
Injected packet length average = 1
Accepted packet length average = 1
Total in-flight flits = 21 (21 measured)
latency change    = 0.000382548
throughput change = 0.0212766
Class 0:
Packet latency average = 19.7579
	minimum = 7
	maximum = 45
Network latency average = 19.7579
	minimum = 7
	maximum = 45
Slowest packet = 8531
Flit latency average = 19.7639
	minimum = 7
	maximum = 45
Slowest flit = 8531
Fragmentation average = 0
	minimum = 0
	maximum = 0
Injected packet rate average = 0.0489792
	minimum = 0.042 (at node 2)
	maximum = 0.0616667 (at node 15)
Accepted packet rate average = 0.0490625
	minimum = 0.042 (at node 8)
	maximum = 0.062 (at node 15)
Injected flit rate average = 0.0489792
	minimum = 0.042 (at node 2)
	maximum = 0.0616667 (at node 15)
Accepted flit rate average= 0.0490625
	minimum = 0.042 (at node 8)
	maximum = 0.062 (at node 15)
Injected packet length average = 1
Accepted packet length average = 1
Total in-flight flits = 13 (13 measured)
latency change    = 0.00445937
throughput change = 0.0420382
Class 0:
Packet latency average = 19.7981
	minimum = 7
	maximum = 51
Network latency average = 19.7981
	minimum = 7
	maximum = 51
Slowest packet = 10043
Flit latency average = 19.8024
	minimum = 7
	maximum = 51
Slowest flit = 10043
Fragmentation average = 0
	minimum = 0
	maximum = 0
Injected packet rate average = 0.049
	minimum = 0.04275 (at node 0)
	maximum = 0.05925 (at node 15)
Accepted packet rate average = 0.0490156
	minimum = 0.04225 (at node 0)
	maximum = 0.0595 (at node 15)
Injected flit rate average = 0.049
	minimum = 0.04275 (at node 0)
	maximum = 0.05925 (at node 15)
Accepted flit rate average= 0.0490156
	minimum = 0.04225 (at node 0)
	maximum = 0.0595 (at node 15)
Injected packet length average = 1
Accepted packet length average = 1
Total in-flight flits = 16 (16 measured)
latency change    = 0.00202869
throughput change = 0.000956328
Draining all recorded packets ...
Draining remaining packets ...
Time taken is 7064 cycles
Class 0:
Packet latency average = 19.1714
	minimum = 7
	maximum = 47
Network latency average = 19.1689
	minimum = 7
	maximum = 47
Slowest packet = 10813
Flit latency average = 19.1689
	minimum = 7
	maximum = 47
Slowest flit = 10813
Fragmentation average = 0
	minimum = 0
	maximum = 0
Injected packet rate average = 0.0515625
	minimum = 0.04 (at node 1)
	maximum = 0.061 (at node 8)
Accepted packet rate average = 0.0503125
	minimum = 0.038 (at node 3)
	maximum = 0.061 (at node 11)
Injected flit rate average = 0.0515625
	minimum = 0.04 (at node 1)
	maximum = 0.061 (at node 8)
Accepted flit rate average= 0.0503125
	minimum = 0.038 (at node 3)
	maximum = 0.061 (at node 11)
Injected packet length average = 1
Accepted packet length average = 1
Total in-flight flits = 20 (0 measured)
latency change    = 1
throughput change = 1
Class 0:
Packet latency average = 19.8724
	minimum = 7
	maximum = 47
Network latency average = 19.8712
	minimum = 7
	maximum = 47
Slowest packet = 10813
Flit latency average = 19.8712
	minimum = 7
	maximum = 47
Slowest flit = 10813
Fragmentation average = 0
	minimum = 0
	maximum = 0
Injected packet rate average = 0.0493125
	minimum = 0.0425 (at node 12)
	maximum = 0.062 (at node 8)
Accepted packet rate average = 0.04875
	minimum = 0.042 (at node 3)
	maximum = 0.061 (at node 2)
Injected flit rate average = 0.0493125
	minimum = 0.0425 (at node 12)
	maximum = 0.062 (at node 8)
Accepted flit rate average= 0.04875
	minimum = 0.042 (at node 3)
	maximum = 0.061 (at node 2)
Injected packet length average = 1
Accepted packet length average = 1
Total in-flight flits = 18 (0 measured)
latency change    = 0.0352754
throughput change = 0.0320513
Class 0:
Packet latency average = 19.5518
	minimum = 7
	maximum = 45
Network latency average = 19.5518
	minimum = 7
	maximum = 45
Slowest packet = 12264
Flit latency average = 19.5518
	minimum = 7
	maximum = 45
Slowest flit = 12264
Fragmentation average = 0
	minimum = 0
	maximum = 0
Injected packet rate average = 0.0486875
	minimum = 0.037 (at node 0)
	maximum = 0.057 (at node 5)
Accepted packet rate average = 0.04825
	minimum = 0.036 (at node 0)
	maximum = 0.056 (at node 5)
Injected flit rate average = 0.0486875
	minimum = 0.037 (at node 0)
	maximum = 0.057 (at node 5)
Accepted flit rate average= 0.04825
	minimum = 0.036 (at node 0)
	maximum = 0.056 (at node 5)
Injected packet length average = 1
Accepted packet length average = 1
Total in-flight flits = 25 (0 measured)
latency change    = 0.0163986
throughput change = 0.0103627
Warmed up ...Time used is 3000 cycles
Class 0:
Packet latency average = 19.5293
	minimum = 7
	maximum = 46
Network latency average = 19.5293
	minimum = 7
	maximum = 46
Slowest packet = 12800
Flit latency average = 19.7033
	minimum = 7
	maximum = 46
Slowest flit = 12800
Fragmentation average = 0
	minimum = 0
	maximum = 0
Injected packet rate average = 0.0499375
	minimum = 0.038 (at node 9)
	maximum = 0.067 (at node 15)
Accepted packet rate average = 0.0505625
	minimum = 0.036 (at node 6)
	maximum = 0.067 (at node 15)
Injected flit rate average = 0.0499375
	minimum = 0.038 (at node 9)
	maximum = 0.067 (at node 15)
Accepted flit rate average= 0.0505625
	minimum = 0.036 (at node 6)
	maximum = 0.067 (at node 15)
Injected packet length average = 1
Accepted packet length average = 1
Total in-flight flits = 15 (15 measured)
latency change    = 0.00115092
throughput change = 0.0457355
Class 0:
Packet latency average = 19.5597
	minimum = 7
	maximum = 46
Network latency average = 19.5597
	minimum = 7
	maximum = 46
Slowest packet = 12800
Flit latency average = 19.6478
	minimum = 7
	maximum = 46
Slowest flit = 12800
Fragmentation average = 0
	minimum = 0
	maximum = 0
Injected packet rate average = 0.0495625
	minimum = 0.0415 (at node 1)
	maximum = 0.0605 (at node 15)
Accepted packet rate average = 0.0496875
	minimum = 0.042 (at node 4)
	maximum = 0.0605 (at node 15)
Injected flit rate average = 0.0495625
	minimum = 0.0415 (at node 1)
	maximum = 0.0605 (at node 15)
Accepted flit rate average= 0.0496875
	minimum = 0.042 (at node 4)
	maximum = 0.0605 (at node 15)
Injected packet length average = 1
Accepted packet length average = 1
Total in-flight flits = 21 (21 measured)
latency change    = 0.0015546
throughput change = 0.0176101
Class 0:
Packet latency average = 19.5772
	minimum = 7
	maximum = 47
Network latency average = 19.5772
	minimum = 7
	maximum = 47
Slowest packet = 14529
Flit latency average = 19.6346
	minimum = 7
	maximum = 47
Slowest flit = 14529
Fragmentation average = 0
	minimum = 0
	maximum = 0
Injected packet rate average = 0.0505417
	minimum = 0.0443333 (at node 2)
	maximum = 0.0576667 (at node 15)
Accepted packet rate average = 0.0506875
	minimum = 0.0443333 (at node 8)
	maximum = 0.058 (at node 15)
Injected flit rate average = 0.0505417
	minimum = 0.0443333 (at node 2)
	maximum = 0.0576667 (at node 15)
Accepted flit rate average= 0.0506875
	minimum = 0.0443333 (at node 8)
	maximum = 0.058 (at node 15)
Injected packet length average = 1
Accepted packet length average = 1
Total in-flight flits = 18 (18 measured)
latency change    = 0.000893799
throughput change = 0.0197287
Draining all recorded packets ...
Draining remaining packets ...
Time taken is 6068 cycles
Class 0:
Packet latency average = 19.1367
	minimum = 7
	maximum = 45
Network latency average = 19.1367
	minimum = 7
	maximum = 45
Slowest packet = 15319
Flit latency average = 19.1367
	minimum = 7
	maximum = 45
Slowest flit = 15319
Fragmentation average = 0
	minimum = 0
	maximum = 0
Injected packet rate average = 0.0494375
	minimum = 0.04 (at node 3)
	maximum = 0.066 (at node 9)
Accepted packet rate average = 0.0489375
	minimum = 0.039 (at node 12)
	maximum = 0.066 (at node 6)
Injected flit rate average = 0.0494375
	minimum = 0.04 (at node 3)
	maximum = 0.066 (at node 9)
Accepted flit rate average= 0.0489375
	minimum = 0.039 (at node 12)
	maximum = 0.066 (at node 6)
Injected packet length average = 1
Accepted packet length average = 1
Total in-flight flits = 8 (0 measured)
latency change    = 1
throughput change = 1
Class 0:
Packet latency average = 19.2448
	minimum = 7
	maximum = 45
Network latency average = 19.2448
	minimum = 7
	maximum = 45
Slowest packet = 15319
Flit latency average = 19.2448
	minimum = 7
	maximum = 45
Slowest flit = 15319
Fragmentation average = 0
	minimum = 0
	maximum = 0
Injected packet rate average = 0.0497812
	minimum = 0.0405 (at node 12)
	maximum = 0.0585 (at node 9)
Accepted packet rate average = 0.0494062
	minimum = 0.04 (at node 3)
	maximum = 0.0585 (at node 6)
Injected flit rate average = 0.0497812
	minimum = 0.0405 (at node 12)
	maximum = 0.0585 (at node 9)
Accepted flit rate average= 0.0494062
	minimum = 0.04 (at node 3)
	maximum = 0.0585 (at node 6)
Injected packet length average = 1
Accepted packet length average = 1
Total in-flight flits = 12 (0 measured)
latency change    = 0.00561856
throughput change = 0.00948767
Class 0:
Packet latency average = 20.3866
	minimum = 7
	maximum = 55
Network latency average = 20.3866
	minimum = 7
	maximum = 55
Slowest packet = 16838
Flit latency average = 20.3866
	minimum = 7
	maximum = 55
Slowest flit = 16838
Fragmentation average = 0
	minimum = 0
	maximum = 0
Injected packet rate average = 0.0511875
	minimum = 0.038 (at node 0)
	maximum = 0.062 (at node 4)
Accepted packet rate average = 0.05125
	minimum = 0.038 (at node 0)
	maximum = 0.062 (at node 1)
Injected flit rate average = 0.0511875
	minimum = 0.038 (at node 0)
	maximum = 0.062 (at node 4)
Accepted flit rate average= 0.05125
	minimum = 0.038 (at node 0)
	maximum = 0.062 (at node 1)
Injected packet length average = 1
Accepted packet length average = 1
Total in-flight flits = 11 (0 measured)
latency change    = 0.0560076
throughput change = 0.0359756
Warmed up ...Time used is 3000 cycles
Class 0:
Packet latency average = 19.531
	minimum = 7
	maximum = 47
Network latency average = 19.531
	minimum = 7
	maximum = 47
Slowest packet = 17781
Flit latency average = 19.5859
	minimum = 7
	maximum = 47
Slowest flit = 17781
Fragmentation average = 0
	minimum = 0
	maximum = 0
Injected packet rate average = 0.0479375
	minimum = 0.03 (at node 6)
	maximum = 0.057 (at node 8)
Accepted packet rate average = 0.048
	minimum = 0.032 (at node 9)
	maximum = 0.056 (at node 2)
Injected flit rate average = 0.0479375
	minimum = 0.03 (at node 6)
	maximum = 0.057 (at node 8)
Accepted flit rate average= 0.048
	minimum = 0.032 (at node 9)
	maximum = 0.056 (at node 2)
Injected packet length average = 1
Accepted packet length average = 1
Total in-flight flits = 10 (10 measured)
latency change    = 0.0438042
throughput change = 0.0677083
Class 0:
Packet latency average = 19.4299
	minimum = 7
	maximum = 50
Network latency average = 19.4299
	minimum = 7
	maximum = 50
Slowest packet = 18863
Flit latency average = 19.4574
	minimum = 7
	maximum = 50
Slowest flit = 18863
Fragmentation average = 0
	minimum = 0
	maximum = 0
Injected packet rate average = 0.049375
	minimum = 0.0395 (at node 7)
	maximum = 0.0605 (at node 8)
Accepted packet rate average = 0.049125
	minimum = 0.0385 (at node 13)
	maximum = 0.06 (at node 2)
Injected flit rate average = 0.049375
	minimum = 0.0395 (at node 7)
	maximum = 0.0605 (at node 8)
Accepted flit rate average= 0.049125
	minimum = 0.0385 (at node 13)
	maximum = 0.06 (at node 2)
Injected packet length average = 1
Accepted packet length average = 1
Total in-flight flits = 19 (19 measured)
latency change    = 0.00520801
throughput change = 0.0229008
Class 0:
Packet latency average = 19.718
	minimum = 7
	maximum = 50
Network latency average = 19.718
	minimum = 7
	maximum = 50
Slowest packet = 18863
Flit latency average = 19.7348
	minimum = 7
	maximum = 50
Slowest flit = 18863
Fragmentation average = 0
	minimum = 0
	maximum = 0
Injected packet rate average = 0.0498542
	minimum = 0.0416667 (at node 7)
	maximum = 0.061 (at node 8)
Accepted packet rate average = 0.0497292
	minimum = 0.0413333 (at node 13)
	maximum = 0.06 (at node 2)
Injected flit rate average = 0.0498542
	minimum = 0.0416667 (at node 7)
	maximum = 0.061 (at node 8)
Accepted flit rate average= 0.0497292
	minimum = 0.0413333 (at node 13)
	maximum = 0.06 (at node 2)
Injected packet length average = 1
Accepted packet length average = 1
Total in-flight flits = 17 (17 measured)
latency change    = 0.0146141
throughput change = 0.0121491
Class 0:
Packet latency average = 19.6287
	minimum = 7
	maximum = 50
Network latency average = 19.6287
	minimum = 7
	maximum = 50
Slowest packet = 18863
Flit latency average = 19.6417
	minimum = 7
	maximum = 50
Slowest flit = 18863
Fragmentation average = 0
	minimum = 0
	maximum = 0
Injected packet rate average = 0.0494687
	minimum = 0.04 (at node 7)
	maximum = 0.0605 (at node 8)
Accepted packet rate average = 0.0493594
	minimum = 0.0395 (at node 13)
	maximum = 0.06025 (at node 2)
Injected flit rate average = 0.0494687
	minimum = 0.04 (at node 7)
	maximum = 0.0605 (at node 8)
Accepted flit rate average= 0.0493594
	minimum = 0.0395 (at node 13)
	maximum = 0.06025 (at node 2)
Injected packet length average = 1
Accepted packet length average = 1
Total in-flight flits = 18 (18 measured)
latency change    = 0.00455255
throughput change = 0.00749182
Draining all recorded packets ...
Draining remaining packets ...
Time taken is 7068 cycles
Class 0:
Packet latency average = 19.6359
	minimum = 7
	maximum = 46
Network latency average = 19.6359
	minimum = 7
	maximum = 46
Slowest packet = 21132
Flit latency average = 19.6359
	minimum = 7
	maximum = 46
Slowest flit = 21132
Fragmentation average = 0
	minimum = 0
	maximum = 0
Injected packet rate average = 0.0474375
	minimum = 0.04 (at node 7)
	maximum = 0.054 (at node 4)
Accepted packet rate average = 0.046
	minimum = 0.039 (at node 9)
	maximum = 0.053 (at node 15)
Injected flit rate average = 0.0474375
	minimum = 0.04 (at node 7)
	maximum = 0.054 (at node 4)
Accepted flit rate average= 0.046
	minimum = 0.039 (at node 9)
	maximum = 0.053 (at node 15)
Injected packet length average = 1
Accepted packet length average = 1
Total in-flight flits = 23 (0 measured)
latency change    = 1
throughput change = 1
Class 0:
Packet latency average = 19.6873
	minimum = 7
	maximum = 46
Network latency average = 19.6873
	minimum = 7
	maximum = 46
Slowest packet = 21132
Flit latency average = 19.6873
	minimum = 7
	maximum = 46
Slowest flit = 21132
Fragmentation average = 0
	minimum = 0
	maximum = 0
Injected packet rate average = 0.0492187
	minimum = 0.0425 (at node 0)
	maximum = 0.0545 (at node 5)
Accepted packet rate average = 0.0485625
	minimum = 0.0425 (at node 0)
	maximum = 0.0545 (at node 5)
Injected flit rate average = 0.0492187
	minimum = 0.0425 (at node 0)
	maximum = 0.0545 (at node 5)
Accepted flit rate average= 0.0485625
	minimum = 0.0425 (at node 0)
	maximum = 0.0545 (at node 5)
Injected packet length average = 1
Accepted packet length average = 1
Total in-flight flits = 21 (0 measured)
latency change    = 0.00261027
throughput change = 0.0527671
Class 0:
Packet latency average = 19.5361
	minimum = 7
	maximum = 44
Network latency average = 19.5361
	minimum = 7
	maximum = 44
Slowest packet = 22499
Flit latency average = 19.5361
	minimum = 7
	maximum = 44
Slowest flit = 22499
Fragmentation average = 0
	minimum = 0
	maximum = 0
Injected packet rate average = 0.04975
	minimum = 0.04 (at node 6)
	maximum = 0.062 (at node 15)
Accepted packet rate average = 0.05025
	minimum = 0.041 (at node 9)
	maximum = 0.062 (at node 13)
Injected flit rate average = 0.04975
	minimum = 0.04 (at node 6)
	maximum = 0.062 (at node 15)
Accepted flit rate average= 0.05025
	minimum = 0.041 (at node 9)
	maximum = 0.062 (at node 13)
Injected packet length average = 1
Accepted packet length average = 1
Total in-flight flits = 13 (0 measured)
latency change    = 0.00773897
throughput change = 0.0335821
Warmed up ...Time used is 3000 cycles
Class 0:
Packet latency average = 19.7437
	minimum = 7
	maximum = 46
Network latency average = 19.7437
	minimum = 7
	maximum = 46
Slowest packet = 23831
Flit latency average = 19.8327
	minimum = 7
	maximum = 46
Slowest flit = 23831
Fragmentation average = 0
	minimum = 0
	maximum = 0
Injected packet rate average = 0.049875
	minimum = 0.042 (at node 15)
	maximum = 0.06 (at node 0)
Accepted packet rate average = 0.0500625
	minimum = 0.042 (at node 6)
	maximum = 0.062 (at node 7)
Injected flit rate average = 0.049875
	minimum = 0.042 (at node 15)
	maximum = 0.06 (at node 0)
Accepted flit rate average= 0.0500625
	minimum = 0.042 (at node 6)
	maximum = 0.062 (at node 7)
Injected packet length average = 1
Accepted packet length average = 1
Total in-flight flits = 10 (10 measured)
latency change    = 0.010514
throughput change = 0.00374532
Class 0:
Packet latency average = 19.6765
	minimum = 7
	maximum = 47
Network latency average = 19.6765
	minimum = 7
	maximum = 47
Slowest packet = 24203
Flit latency average = 19.7208
	minimum = 7
	maximum = 47
Slowest flit = 24203
Fragmentation average = 0
	minimum = 0
	maximum = 0
Injected packet rate average = 0.05125
	minimum = 0.044 (at node 11)
	maximum = 0.0575 (at node 5)
Accepted packet rate average = 0.0510313
	minimum = 0.0435 (at node 14)
	maximum = 0.058 (at node 2)
Injected flit rate average = 0.05125
	minimum = 0.044 (at node 11)
	maximum = 0.0575 (at node 5)
Accepted flit rate average= 0.0510313
	minimum = 0.0435 (at node 14)
	maximum = 0.058 (at node 2)
Injected packet length average = 1
Accepted packet length average = 1
Total in-flight flits = 20 (20 measured)
latency change    = 0.00341074
throughput change = 0.0189835
Class 0:
Packet latency average = 19.7649
	minimum = 7
	maximum = 47
Network latency average = 19.7649
	minimum = 7
	maximum = 47
Slowest packet = 24203
Flit latency average = 19.7941
	minimum = 7
	maximum = 47
Slowest flit = 24203
Fragmentation average = 0
	minimum = 0
	maximum = 0
Injected packet rate average = 0.0509583
	minimum = 0.0416667 (at node 11)
	maximum = 0.0576667 (at node 5)
Accepted packet rate average = 0.0506875
	minimum = 0.0413333 (at node 14)
	maximum = 0.058 (at node 5)
Injected flit rate average = 0.0509583
	minimum = 0.0416667 (at node 11)
	maximum = 0.0576667 (at node 5)
Accepted flit rate average= 0.0506875
	minimum = 0.0413333 (at node 14)
	maximum = 0.058 (at node 5)
Injected packet length average = 1
Accepted packet length average = 1
Total in-flight flits = 26 (26 measured)
latency change    = 0.00446918
throughput change = 0.00678175
Draining all recorded packets ...
Draining remaining packets ...
Time taken is 6069 cycles
Class 0:
Packet latency average = 19.732
	minimum = 7
	maximum = 47
Network latency average = 19.732
	minimum = 7
	maximum = 47
Slowest packet = 26138
Flit latency average = 19.732
	minimum = 7
	maximum = 47
Slowest flit = 26138
Fragmentation average = 0
	minimum = 0
	maximum = 0
Injected packet rate average = 0.052
	minimum = 0.042 (at node 1)
	maximum = 0.064 (at node 4)
Accepted packet rate average = 0.0513125
	minimum = 0.041 (at node 4)
	maximum = 0.063 (at node 1)
Injected flit rate average = 0.052
	minimum = 0.042 (at node 1)
	maximum = 0.064 (at node 4)
Accepted flit rate average= 0.0513125
	minimum = 0.041 (at node 4)
	maximum = 0.063 (at node 1)
Injected packet length average = 1
Accepted packet length average = 1
Total in-flight flits = 11 (0 measured)
latency change    = 1
throughput change = 1
Class 0:
Packet latency average = 19.5634
	minimum = 7
	maximum = 47
Network latency average = 19.5634
	minimum = 7
	maximum = 47
Slowest packet = 26138
Flit latency average = 19.5634
	minimum = 7
	maximum = 47
Slowest flit = 26138
Fragmentation average = 0
	minimum = 0
	maximum = 0
Injected packet rate average = 0.0512188
	minimum = 0.044 (at node 8)
	maximum = 0.0585 (at node 11)
Accepted packet rate average = 0.05075
	minimum = 0.0435 (at node 2)
	maximum = 0.0575 (at node 14)
Injected flit rate average = 0.0512188
	minimum = 0.044 (at node 8)
	maximum = 0.0585 (at node 11)
Accepted flit rate average= 0.05075
	minimum = 0.0435 (at node 2)
	maximum = 0.0575 (at node 14)
Injected packet length average = 1
Accepted packet length average = 1
Total in-flight flits = 15 (0 measured)
latency change    = 0.00861866
throughput change = 0.0110837
Class 0:
Packet latency average = 19.1905
	minimum = 7
	maximum = 45
Network latency average = 19.1905
	minimum = 7
	maximum = 45
Slowest packet = 27885
Flit latency average = 19.1905
	minimum = 7
	maximum = 45
Slowest flit = 27885
Fragmentation average = 0
	minimum = 0
	maximum = 0
Injected packet rate average = 0.0529375
	minimum = 0.034 (at node 3)
	maximum = 0.07 (at node 13)
Accepted packet rate average = 0.0528125
	minimum = 0.035 (at node 12)
	maximum = 0.068 (at node 7)
Injected flit rate average = 0.0529375
	minimum = 0.034 (at node 3)
	maximum = 0.07 (at node 13)
Accepted flit rate average= 0.0528125
	minimum = 0.035 (at node 12)
	maximum = 0.068 (at node 7)
Injected packet length average = 1
Accepted packet length average = 1
Total in-flight flits = 17 (0 measured)
latency change    = 0.019431
throughput change = 0.0390533
Warmed up ...Time used is 3000 cycles
Class 0:
Packet latency average = 20.0656
	minimum = 7
	maximum = 55
Network latency average = 20.0604
	minimum = 7
	maximum = 55
Slowest packet = 28853
Flit latency average = 20.163
	minimum = 7
	maximum = 55
Slowest flit = 28853
Fragmentation average = 0
	minimum = 0
	maximum = 0
Injected packet rate average = 0.0484375
	minimum = 0.036 (at node 14)
	maximum = 0.064 (at node 8)
Accepted packet rate average = 0.0486875
	minimum = 0.033 (at node 11)
	maximum = 0.064 (at node 2)
Injected flit rate average = 0.0484375
	minimum = 0.036 (at node 14)
	maximum = 0.064 (at node 8)
Accepted flit rate average= 0.0486875
	minimum = 0.033 (at node 11)
	maximum = 0.064 (at node 2)
Injected packet length average = 1
Accepted packet length average = 1
Total in-flight flits = 13 (13 measured)
latency change    = 0.0436111
throughput change = 0.084724
Class 0:
Packet latency average = 20.0032
	minimum = 7
	maximum = 55
Network latency average = 20.0006
	minimum = 7
	maximum = 55
Slowest packet = 28853
Flit latency average = 20.0512
	minimum = 7
	maximum = 55
Slowest flit = 28853
Fragmentation average = 0
	minimum = 0
	maximum = 0
Injected packet rate average = 0.0498125
	minimum = 0.0425 (at node 2)
	maximum = 0.0635 (at node 8)
Accepted packet rate average = 0.05
	minimum = 0.043 (at node 4)
	maximum = 0.063 (at node 2)
Injected flit rate average = 0.0498125
	minimum = 0.0425 (at node 2)
	maximum = 0.0635 (at node 8)
Accepted flit rate average= 0.05
	minimum = 0.043 (at node 4)
	maximum = 0.063 (at node 2)
Injected packet length average = 1
Accepted packet length average = 1
Total in-flight flits = 11 (11 measured)
latency change    = 0.00312242
throughput change = 0.02625
Class 0:
Packet latency average = 20.0835
	minimum = 7
	maximum = 55
Network latency average = 20.0818
	minimum = 7
	maximum = 55
Slowest packet = 28853
Flit latency average = 20.1154
	minimum = 7
	maximum = 55
Slowest flit = 28853
Fragmentation average = 0
	minimum = 0
	maximum = 0
Injected packet rate average = 0.0491458
	minimum = 0.0433333 (at node 1)
	maximum = 0.0583333 (at node 8)
Accepted packet rate average = 0.0492708
	minimum = 0.0433333 (at node 4)
	maximum = 0.0586667 (at node 2)
Injected flit rate average = 0.0491458
	minimum = 0.0433333 (at node 1)
	maximum = 0.0583333 (at node 8)
Accepted flit rate average= 0.0492708
	minimum = 0.0433333 (at node 4)
	maximum = 0.0586667 (at node 2)
Injected packet length average = 1
Accepted packet length average = 1
Total in-flight flits = 11 (11 measured)
latency change    = 0.00399915
throughput change = 0.0147992
Class 0:
Packet latency average = 20.0623
	minimum = 7
	maximum = 55
Network latency average = 20.061
	minimum = 7
	maximum = 55
Slowest packet = 28853
Flit latency average = 20.0867
	minimum = 7
	maximum = 55
Slowest flit = 28853
Fragmentation average = 0
	minimum = 0
	maximum = 0
Injected packet rate average = 0.0487187
	minimum = 0.043 (at node 2)
	maximum = 0.05425 (at node 13)
Accepted packet rate average = 0.0486562
	minimum = 0.043 (at node 8)
	maximum = 0.05475 (at node 7)
Injected flit rate average = 0.0487187
	minimum = 0.043 (at node 2)
	maximum = 0.05425 (at node 13)
Accepted flit rate average= 0.0486562
	minimum = 0.043 (at node 8)
	maximum = 0.05475 (at node 7)
Injected packet length average = 1
Accepted packet length average = 1
Total in-flight flits = 21 (21 measured)
latency change    = 0.00105456
throughput change = 0.0126311
Draining all recorded packets ...
Draining remaining packets ...
Time taken is 7069 cycles
Class 0:
Packet latency average = 20.2894
	minimum = 7
	maximum = 52
Network latency average = 20.2894
	minimum = 7
	maximum = 52
Slowest packet = 31847
Flit latency average = 20.2894
	minimum = 7
	maximum = 52
Slowest flit = 31847
Fragmentation average = 0
	minimum = 0
	maximum = 0
Injected packet rate average = 0.049625
	minimum = 0.03 (at node 5)
	maximum = 0.059 (at node 7)
Accepted packet rate average = 0.0488125
	minimum = 0.029 (at node 5)
	maximum = 0.059 (at node 13)
Injected flit rate average = 0.049625
	minimum = 0.03 (at node 5)
	maximum = 0.059 (at node 7)
Accepted flit rate average= 0.0488125
	minimum = 0.029 (at node 5)
	maximum = 0.059 (at node 13)
Injected packet length average = 1
Accepted packet length average = 1
Total in-flight flits = 13 (0 measured)
latency change    = 1
throughput change = 1
Class 0:
Packet latency average = 20.2763
	minimum = 7
	maximum = 52
Network latency average = 20.2763
	minimum = 7
	maximum = 52
Slowest packet = 31847
Flit latency average = 20.2763
	minimum = 7
	maximum = 52
Slowest flit = 31847
Fragmentation average = 0
	minimum = 0
	maximum = 0
Injected packet rate average = 0.0494062
	minimum = 0.039 (at node 5)
	maximum = 0.0595 (at node 12)
Accepted packet rate average = 0.0489687
	minimum = 0.039 (at node 5)
	maximum = 0.057 (at node 3)
Injected flit rate average = 0.0494062
	minimum = 0.039 (at node 5)
	maximum = 0.0595 (at node 12)
Accepted flit rate average= 0.0489687
	minimum = 0.039 (at node 5)
	maximum = 0.057 (at node 3)
Injected packet length average = 1
Accepted packet length average = 1
Total in-flight flits = 14 (0 measured)
latency change    = 0.00064353
throughput change = 0.00319081
Class 0:
Packet latency average = 19.5059
	minimum = 7
	maximum = 47
Network latency average = 19.5059
	minimum = 7
	maximum = 47
Slowest packet = 32874
Flit latency average = 19.5059
	minimum = 7
	maximum = 47
Slowest flit = 32874
Fragmentation average = 0
	minimum = 0
	maximum = 0
Injected packet rate average = 0.0525625
	minimum = 0.038 (at node 12)
	maximum = 0.066 (at node 15)
Accepted packet rate average = 0.052625
	minimum = 0.041 (at node 11)
	maximum = 0.065 (at node 15)
Injected flit rate average = 0.0525625
	minimum = 0.038 (at node 12)
	maximum = 0.066 (at node 15)
Accepted flit rate average= 0.052625
	minimum = 0.041 (at node 11)
	maximum = 0.065 (at node 15)
Injected packet length average = 1
Accepted packet length average = 1
Total in-flight flits = 13 (0 measured)
latency change    = 0.0394949
throughput change = 0.0694774
Warmed up ...Time used is 3000 cycles
Class 0:
Packet latency average = 18.9498
	minimum = 7
	maximum = 44
Network latency average = 18.9498
	minimum = 7
	maximum = 44
Slowest packet = 34183
Flit latency average = 19.0273
	minimum = 7
	maximum = 44
Slowest flit = 33738
Fragmentation average = 0
	minimum = 0
	maximum = 0
Injected packet rate average = 0.0485625
	minimum = 0.038 (at node 11)
	maximum = 0.059 (at node 7)
Accepted packet rate average = 0.048125
	minimum = 0.036 (at node 7)
	maximum = 0.058 (at node 13)
Injected flit rate average = 0.0485625
	minimum = 0.038 (at node 11)
	maximum = 0.059 (at node 7)
Accepted flit rate average= 0.048125
	minimum = 0.036 (at node 7)
	maximum = 0.058 (at node 13)
Injected packet length average = 1
Accepted packet length average = 1
Total in-flight flits = 20 (20 measured)
latency change    = 0.0293479
throughput change = 0.0935065
Class 0:
Packet latency average = 19.5188
	minimum = 7
	maximum = 47
Network latency average = 19.5188
	minimum = 7
	maximum = 47
Slowest packet = 34527
Flit latency average = 19.5519
	minimum = 7
	maximum = 47
Slowest flit = 34527
Fragmentation average = 0
	minimum = 0
	maximum = 0
Injected packet rate average = 0.0493437
	minimum = 0.041 (at node 13)
	maximum = 0.059 (at node 6)
Accepted packet rate average = 0.049375
	minimum = 0.0405 (at node 7)
	maximum = 0.0585 (at node 9)
Injected flit rate average = 0.0493437
	minimum = 0.041 (at node 13)
	maximum = 0.059 (at node 6)
Accepted flit rate average= 0.049375
	minimum = 0.0405 (at node 7)
	maximum = 0.0585 (at node 9)
Injected packet length average = 1
Accepted packet length average = 1
Total in-flight flits = 12 (12 measured)
latency change    = 0.0291526
throughput change = 0.0253165
Class 0:
Packet latency average = 19.3295
	minimum = 7
	maximum = 47
Network latency average = 19.3295
	minimum = 7
	maximum = 47
Slowest packet = 34527
Flit latency average = 19.3527
	minimum = 7
	maximum = 47
Slowest flit = 34527
Fragmentation average = 0
	minimum = 0
	maximum = 0
Injected packet rate average = 0.0492083
	minimum = 0.0416667 (at node 3)
	maximum = 0.0556667 (at node 6)
Accepted packet rate average = 0.0490208
	minimum = 0.0416667 (at node 7)
	maximum = 0.056 (at node 15)
Injected flit rate average = 0.0492083
	minimum = 0.0416667 (at node 3)
	maximum = 0.0556667 (at node 6)
Accepted flit rate average= 0.0490208
	minimum = 0.0416667 (at node 7)
	maximum = 0.056 (at node 15)
Injected packet length average = 1
Accepted packet length average = 1
Total in-flight flits = 22 (22 measured)
latency change    = 0.00979532
throughput change = 0.00722482
Class 0:
Packet latency average = 19.4407
	minimum = 7
	maximum = 47
Network latency average = 19.4407
	minimum = 7
	maximum = 47
Slowest packet = 34527
Flit latency average = 19.4575
	minimum = 7
	maximum = 47
Slowest flit = 34527
Fragmentation average = 0
	minimum = 0
	maximum = 0
Injected packet rate average = 0.04975
	minimum = 0.043 (at node 13)
	maximum = 0.056 (at node 7)
Accepted packet rate average = 0.0497656
	minimum = 0.04275 (at node 7)
	maximum = 0.05575 (at node 13)
Injected flit rate average = 0.04975
	minimum = 0.043 (at node 13)
	maximum = 0.056 (at node 7)
Accepted flit rate average= 0.0497656
	minimum = 0.04275 (at node 7)
	maximum = 0.05575 (at node 13)
Injected packet length average = 1
Accepted packet length average = 1
Total in-flight flits = 12 (12 measured)
latency change    = 0.00572222
throughput change = 0.014966
Draining all recorded packets ...
Draining remaining packets ...
Time taken is 7058 cycles
Class 0:
Packet latency average = 19.4196
	minimum = 7
	maximum = 47
Network latency average = 19.4196
	minimum = 7
	maximum = 47
Slowest packet = 37611
Flit latency average = 19.4196
	minimum = 7
	maximum = 47
Slowest flit = 37611
Fragmentation average = 0
	minimum = 0
	maximum = 0
Injected packet rate average = 0.0496875
	minimum = 0.037 (at node 2)
	maximum = 0.063 (at node 10)
Accepted packet rate average = 0.049
	minimum = 0.035 (at node 8)
	maximum = 0.062 (at node 10)
Injected flit rate average = 0.0496875
	minimum = 0.037 (at node 2)
	maximum = 0.063 (at node 10)
Accepted flit rate average= 0.049
	minimum = 0.035 (at node 8)
	maximum = 0.062 (at node 10)
Injected packet length average = 1
Accepted packet length average = 1
Total in-flight flits = 11 (0 measured)
latency change    = 1
throughput change = 1
Class 0:
Packet latency average = 19.2639
	minimum = 7
	maximum = 47
Network latency average = 19.2639
	minimum = 7
	maximum = 47
Slowest packet = 37611
Flit latency average = 19.2639
	minimum = 7
	maximum = 47
Slowest flit = 37611
Fragmentation average = 0
	minimum = 0
	maximum = 0
Injected packet rate average = 0.0498437
	minimum = 0.039 (at node 5)
	maximum = 0.0625 (at node 15)
Accepted packet rate average = 0.049625
	minimum = 0.039 (at node 5)
	maximum = 0.0625 (at node 15)
Injected flit rate average = 0.0498437
	minimum = 0.039 (at node 5)
	maximum = 0.0625 (at node 15)
Accepted flit rate average= 0.049625
	minimum = 0.039 (at node 5)
	maximum = 0.0625 (at node 15)
Injected packet length average = 1
Accepted packet length average = 1
Total in-flight flits = 7 (0 measured)
latency change    = 0.00808711
throughput change = 0.0125945
Class 0:
Packet latency average = 19.9468
	minimum = 7
	maximum = 45
Network latency average = 19.9468
	minimum = 7
	maximum = 45
Slowest packet = 38842
Flit latency average = 19.9468
	minimum = 7
	maximum = 45
Slowest flit = 38842
Fragmentation average = 0
	minimum = 0
	maximum = 0
Injected packet rate average = 0.049875
	minimum = 0.04 (at node 4)
	maximum = 0.065 (at node 15)
Accepted packet rate average = 0.049375
	minimum = 0.039 (at node 2)
	maximum = 0.064 (at node 15)
Injected flit rate average = 0.049875
	minimum = 0.04 (at node 4)
	maximum = 0.065 (at node 15)
Accepted flit rate average= 0.049375
	minimum = 0.039 (at node 2)
	maximum = 0.064 (at node 15)
Injected packet length average = 1
Accepted packet length average = 1
Total in-flight flits = 15 (0 measured)
latency change    = 0.0342401
throughput change = 0.00506329
Warmed up ...Time used is 3000 cycles
Class 0:
Packet latency average = 19.7929
	minimum = 7
	maximum = 48
Network latency average = 19.7929
	minimum = 7
	maximum = 48
Slowest packet = 39488
Flit latency average = 19.9056
	minimum = 7
	maximum = 48
Slowest flit = 39488
Fragmentation average = 0
	minimum = 0
	maximum = 0
Injected packet rate average = 0.0485
	minimum = 0.035 (at node 14)
	maximum = 0.058 (at node 13)
Accepted packet rate average = 0.0483125
	minimum = 0.033 (at node 11)
	maximum = 0.056 (at node 1)
Injected flit rate average = 0.0485
	minimum = 0.035 (at node 14)
	maximum = 0.058 (at node 13)
Accepted flit rate average= 0.0483125
	minimum = 0.033 (at node 11)
	maximum = 0.056 (at node 1)
Injected packet length average = 1
Accepted packet length average = 1
Total in-flight flits = 18 (18 measured)
latency change    = 0.00777853
throughput change = 0.0219922
Class 0:
Packet latency average = 19.7713
	minimum = 7
	maximum = 48
Network latency average = 19.7713
	minimum = 7
	maximum = 48
Slowest packet = 39488
Flit latency average = 19.8251
	minimum = 7
	maximum = 48
Slowest flit = 39488
Fragmentation average = 0
	minimum = 0
	maximum = 0
Injected packet rate average = 0.05075
	minimum = 0.042 (at node 14)
	maximum = 0.0595 (at node 8)
Accepted packet rate average = 0.05075
	minimum = 0.041 (at node 11)
	maximum = 0.06 (at node 2)
Injected flit rate average = 0.05075
	minimum = 0.042 (at node 14)
	maximum = 0.0595 (at node 8)
Accepted flit rate average= 0.05075
	minimum = 0.041 (at node 11)
	maximum = 0.06 (at node 2)
Injected packet length average = 1
Accepted packet length average = 1
Total in-flight flits = 15 (15 measured)
latency change    = 0.00109196
throughput change = 0.0480296
Class 0:
Packet latency average = 19.6311
	minimum = 7
	maximum = 48
Network latency average = 19.6311
	minimum = 7
	maximum = 48
Slowest packet = 39488
Flit latency average = 19.6679
	minimum = 7
	maximum = 48
Slowest flit = 39488
Fragmentation average = 0
	minimum = 0
	maximum = 0
Injected packet rate average = 0.0505833
	minimum = 0.0436667 (at node 12)
	maximum = 0.0586667 (at node 13)
Accepted packet rate average = 0.050625
	minimum = 0.0436667 (at node 11)
	maximum = 0.058 (at node 7)
Injected flit rate average = 0.0505833
	minimum = 0.0436667 (at node 12)
	maximum = 0.0586667 (at node 13)
Accepted flit rate average= 0.050625
	minimum = 0.0436667 (at node 11)
	maximum = 0.058 (at node 7)
Injected packet length average = 1
Accepted packet length average = 1
Total in-flight flits = 13 (13 measured)
latency change    = 0.0071433
throughput change = 0.00246914
Draining all recorded packets ...
Draining remaining packets ...
Time taken is 6065 cycles
Class 0:
Packet latency average = 19.967
	minimum = 7
	maximum = 46
Network latency average = 19.967
	minimum = 7
	maximum = 46
Slowest packet = 42339
Flit latency average = 19.967
	minimum = 7
	maximum = 46
Slowest flit = 42339
Fragmentation average = 0
	minimum = 0
	maximum = 0
Injected packet rate average = 0.04825
	minimum = 0.038 (at node 0)
	maximum = 0.06 (at node 3)
Accepted packet rate average = 0.047375
	minimum = 0.035 (at node 2)
	maximum = 0.059 (at node 10)
Injected flit rate average = 0.04825
	minimum = 0.038 (at node 0)
	maximum = 0.06 (at node 3)
Accepted flit rate average= 0.047375
	minimum = 0.035 (at node 2)
	maximum = 0.059 (at node 10)
Injected packet length average = 1
Accepted packet length average = 1
Total in-flight flits = 14 (0 measured)
latency change    = 1
throughput change = 1
Class 0:
Packet latency average = 19.8602
	minimum = 7
	maximum = 46
Network latency average = 19.8602
	minimum = 7
	maximum = 46
Slowest packet = 42339
Flit latency average = 19.8602
	minimum = 7
	maximum = 46
Slowest flit = 42339
Fragmentation average = 0
	minimum = 0
	maximum = 0
Injected packet rate average = 0.0484375
	minimum = 0.04 (at node 0)
	maximum = 0.058 (at node 9)
Accepted packet rate average = 0.0478437
	minimum = 0.04 (at node 0)
	maximum = 0.057 (at node 6)
Injected flit rate average = 0.0484375
	minimum = 0.04 (at node 0)
	maximum = 0.058 (at node 9)
Accepted flit rate average= 0.0478437
	minimum = 0.04 (at node 0)
	maximum = 0.057 (at node 6)
Injected packet length average = 1
Accepted packet length average = 1
Total in-flight flits = 19 (0 measured)
latency change    = 0.0053774
throughput change = 0.00979752
Class 0:
Packet latency average = 20.1
	minimum = 7
	maximum = 47
Network latency average = 20.1
	minimum = 7
	maximum = 47
Slowest packet = 43680
Flit latency average = 20.1
	minimum = 7
	maximum = 47
Slowest flit = 43680
Fragmentation average = 0
	minimum = 0
	maximum = 0
Injected packet rate average = 0.0480625
	minimum = 0.039 (at node 11)
	maximum = 0.059 (at node 12)
Accepted packet rate average = 0.048125
	minimum = 0.039 (at node 4)
	maximum = 0.059 (at node 3)
Injected flit rate average = 0.0480625
	minimum = 0.039 (at node 11)
	maximum = 0.059 (at node 12)
Accepted flit rate average= 0.048125
	minimum = 0.039 (at node 4)
	maximum = 0.059 (at node 3)
Injected packet length average = 1
Accepted packet length average = 1
Total in-flight flits = 18 (0 measured)
latency change    = 0.0119292
throughput change = 0.00584416
Warmed up ...Time used is 3000 cycles
Class 0:
Packet latency average = 20.2331
	minimum = 7
	maximum = 47
Network latency average = 20.2331
	minimum = 7
	maximum = 47
Slowest packet = 44781
Flit latency average = 20.3467
	minimum = 7
	maximum = 47
Slowest flit = 44781
Fragmentation average = 0
	minimum = 0
	maximum = 0
Injected packet rate average = 0.0480625
	minimum = 0.034 (at node 0)
	maximum = 0.06 (at node 5)
Accepted packet rate average = 0.0483125
	minimum = 0.033 (at node 0)
	maximum = 0.06 (at node 5)
Injected flit rate average = 0.0480625
	minimum = 0.034 (at node 0)
	maximum = 0.06 (at node 5)
Accepted flit rate average= 0.0483125
	minimum = 0.033 (at node 0)
	maximum = 0.06 (at node 5)
Injected packet length average = 1
Accepted packet length average = 1
Total in-flight flits = 14 (14 measured)
latency change    = 0.00657895
throughput change = 0.00388098
Class 0:
Packet latency average = 19.9451
	minimum = 7
	maximum = 47
Network latency average = 19.9451
	minimum = 7
	maximum = 47
Slowest packet = 44781
Flit latency average = 20.0052
	minimum = 7
	maximum = 47
Slowest flit = 44781
Fragmentation average = 0
	minimum = 0
	maximum = 0
Injected packet rate average = 0.0484375
	minimum = 0.04 (at node 1)
	maximum = 0.055 (at node 4)
Accepted packet rate average = 0.0484062
	minimum = 0.04 (at node 4)
	maximum = 0.055 (at node 1)
Injected flit rate average = 0.0484375
	minimum = 0.04 (at node 1)
	maximum = 0.055 (at node 4)
Accepted flit rate average= 0.0484062
	minimum = 0.04 (at node 4)
	maximum = 0.055 (at node 1)
Injected packet length average = 1
Accepted packet length average = 1
Total in-flight flits = 19 (19 measured)
latency change    = 0.0144385
throughput change = 0.00193673
Class 0:
Packet latency average = 19.7277
	minimum = 7
	maximum = 51
Network latency average = 19.7277
	minimum = 7
	maximum = 51
Slowest packet = 46147
Flit latency average = 19.7693
	minimum = 7
	maximum = 51
Slowest flit = 46147
Fragmentation average = 0
	minimum = 0
	maximum = 0
Injected packet rate average = 0.0485625
	minimum = 0.0433333 (at node 0)
	maximum = 0.0553333 (at node 4)
Accepted packet rate average = 0.0485833
	minimum = 0.0433333 (at node 0)
	maximum = 0.055 (at node 1)
Injected flit rate average = 0.0485625
	minimum = 0.0433333 (at node 0)
	maximum = 0.0553333 (at node 4)
Accepted flit rate average= 0.0485833
	minimum = 0.0433333 (at node 0)
	maximum = 0.055 (at node 1)
Injected packet length average = 1
Accepted packet length average = 1
Total in-flight flits = 17 (17 measured)
latency change    = 0.0110195
throughput change = 0.00364494
Draining all recorded packets ...
Draining remaining packets ...
Time taken is 6068 cycles
Class 0:
Packet latency average = 19.4338
	minimum = 7
	maximum = 47
Network latency average = 19.4338
	minimum = 7
	maximum = 47
Slowest packet = 46938
Flit latency average = 19.4338
	minimum = 7
	maximum = 47
Slowest flit = 46938
Fragmentation average = 0
	minimum = 0
	maximum = 0
Injected packet rate average = 0.0469375
	minimum = 0.032 (at node 13)
	maximum = 0.058 (at node 5)
Accepted packet rate average = 0.04625
	minimum = 0.032 (at node 7)
	maximum = 0.058 (at node 5)
Injected flit rate average = 0.0469375
	minimum = 0.032 (at node 13)
	maximum = 0.058 (at node 5)
Accepted flit rate average= 0.04625
	minimum = 0.032 (at node 7)
	maximum = 0.058 (at node 5)
Injected packet length average = 1
Accepted packet length average = 1
Total in-flight flits = 11 (0 measured)
latency change    = 1
throughput change = 1
Class 0:
Packet latency average = 19.6831
	minimum = 7
	maximum = 47
Network latency average = 19.6831
	minimum = 7
	maximum = 47
Slowest packet = 46938
Flit latency average = 19.6831
	minimum = 7
	maximum = 47
Slowest flit = 46938
Fragmentation average = 0
	minimum = 0
	maximum = 0
Injected packet rate average = 0.0485937
	minimum = 0.042 (at node 13)
	maximum = 0.0555 (at node 5)
Accepted packet rate average = 0.0482187
	minimum = 0.0415 (at node 7)
	maximum = 0.0555 (at node 5)
Injected flit rate average = 0.0485937
	minimum = 0.042 (at node 13)
	maximum = 0.0555 (at node 5)
Accepted flit rate average= 0.0482187
	minimum = 0.0415 (at node 7)
	maximum = 0.0555 (at node 5)
Injected packet length average = 1
Accepted packet length average = 1
Total in-flight flits = 12 (0 measured)
latency change    = 0.0126658
throughput change = 0.0408296
Class 0:
Packet latency average = 20.5132
	minimum = 7
	maximum = 46
Network latency average = 20.5132
	minimum = 7
	maximum = 46
Slowest packet = 48410
Flit latency average = 20.5132
	minimum = 7
	maximum = 46
Slowest flit = 48410
Fragmentation average = 0
	minimum = 0
	maximum = 0
Injected packet rate average = 0.0476875
	minimum = 0.036 (at node 15)
	maximum = 0.063 (at node 6)
Accepted packet rate average = 0.04725
	minimum = 0.035 (at node 15)
	maximum = 0.062 (at node 3)
Injected flit rate average = 0.0476875
	minimum = 0.036 (at node 15)
	maximum = 0.063 (at node 6)
Accepted flit rate average= 0.04725
	minimum = 0.035 (at node 15)
	maximum = 0.062 (at node 3)
Injected packet length average = 1
Accepted packet length average = 1
Total in-flight flits = 19 (0 measured)
latency change    = 0.0404686
throughput change = 0.0205026
Warmed up ...Time used is 3000 cycles
Class 0:
Packet latency average = 19.5847
	minimum = 7
	maximum = 47
Network latency average = 19.5847
	minimum = 7
	maximum = 47
Slowest packet = 49154
Flit latency average = 19.6524
	minimum = 7
	maximum = 47
Slowest flit = 49154
Fragmentation average = 0
	minimum = 0
	maximum = 0
Injected packet rate average = 0.0520625
	minimum = 0.04 (at node 5)
	maximum = 0.061 (at node 6)
Accepted packet rate average = 0.0525
	minimum = 0.041 (at node 5)
	maximum = 0.063 (at node 1)
Injected flit rate average = 0.0520625
	minimum = 0.04 (at node 5)
	maximum = 0.061 (at node 6)
Accepted flit rate average= 0.0525
	minimum = 0.041 (at node 5)
	maximum = 0.063 (at node 1)
Injected packet length average = 1
Accepted packet length average = 1
Total in-flight flits = 12 (12 measured)
latency change    = 0.0474134
throughput change = 0.1
Class 0:
Packet latency average = 19.4238
	minimum = 7
	maximum = 47
Network latency average = 19.4238
	minimum = 7
	maximum = 47
Slowest packet = 49154
Flit latency average = 19.4598
	minimum = 7
	maximum = 47
Slowest flit = 49154
Fragmentation average = 0
	minimum = 0
	maximum = 0
Injected packet rate average = 0.051875
	minimum = 0.0455 (at node 13)
	maximum = 0.0595 (at node 4)
Accepted packet rate average = 0.0520625
	minimum = 0.0445 (at node 7)
	maximum = 0.061 (at node 1)
Injected flit rate average = 0.051875
	minimum = 0.0455 (at node 13)
	maximum = 0.0595 (at node 4)
Accepted flit rate average= 0.0520625
	minimum = 0.0445 (at node 7)
	maximum = 0.061 (at node 1)
Injected packet length average = 1
Accepted packet length average = 1
Total in-flight flits = 13 (13 measured)
latency change    = 0.00828118
throughput change = 0.00840336
Class 0:
Packet latency average = 19.6786
	minimum = 7
	maximum = 47
Network latency average = 19.6786
	minimum = 7
	maximum = 47
Slowest packet = 49154
Flit latency average = 19.701
	minimum = 7
	maximum = 47
Slowest flit = 49154
Fragmentation average = 0
	minimum = 0
	maximum = 0
Injected packet rate average = 0.0511667
	minimum = 0.0456667 (at node 5)
	maximum = 0.0566667 (at node 4)
Accepted packet rate average = 0.0512083
	minimum = 0.046 (at node 5)
	maximum = 0.057 (at node 1)
Injected flit rate average = 0.0511667
	minimum = 0.0456667 (at node 5)
	maximum = 0.0566667 (at node 4)
Accepted flit rate average= 0.0512083
	minimum = 0.046 (at node 5)
	maximum = 0.057 (at node 1)
Injected packet length average = 1
Accepted packet length average = 1
Total in-flight flits = 17 (17 measured)
latency change    = 0.0129459
throughput change = 0.0166802
Class 0:
Packet latency average = 19.6232
	minimum = 7
	maximum = 55
Network latency average = 19.6232
	minimum = 7
	maximum = 55
Slowest packet = 51291
Flit latency average = 19.6404
	minimum = 7
	maximum = 55
Slowest flit = 51291
Fragmentation average = 0
	minimum = 0
	maximum = 0
Injected packet rate average = 0.050875
	minimum = 0.045 (at node 13)
	maximum = 0.05425 (at node 4)
Accepted packet rate average = 0.0508438
	minimum = 0.0445 (at node 7)
	maximum = 0.055 (at node 1)
Injected flit rate average = 0.050875
	minimum = 0.045 (at node 13)
	maximum = 0.05425 (at node 4)
Accepted flit rate average= 0.0508438
	minimum = 0.0445 (at node 7)
	maximum = 0.055 (at node 1)
Injected packet length average = 1
Accepted packet length average = 1
Total in-flight flits = 21 (21 measured)
latency change    = 0.00282181
throughput change = 0.00717066
Draining all recorded packets ...
Draining remaining packets ...
Time taken is 7067 cycles
Class 0:
Packet latency average = 19.6741
	minimum = 7
	maximum = 49
Network latency average = 19.6741
	minimum = 7
	maximum = 49
Slowest packet = 52432
Flit latency average = 19.6741
	minimum = 7
	maximum = 49
Slowest flit = 52432
Fragmentation average = 0
	minimum = 0
	maximum = 0
Injected packet rate average = 0.048625
	minimum = 0.036 (at node 3)
	maximum = 0.061 (at node 1)
Accepted packet rate average = 0.04775
	minimum = 0.036 (at node 10)
	maximum = 0.059 (at node 4)
Injected flit rate average = 0.048625
	minimum = 0.036 (at node 3)
	maximum = 0.061 (at node 1)
Accepted flit rate average= 0.04775
	minimum = 0.036 (at node 10)
	maximum = 0.059 (at node 4)
Injected packet length average = 1
Accepted packet length average = 1
Total in-flight flits = 14 (0 measured)
latency change    = 1
throughput change = 1
Class 0:
Packet latency average = 19.5346
	minimum = 7
	maximum = 49
Network latency average = 19.5346
	minimum = 7
	maximum = 49
Slowest packet = 52432
Flit latency average = 19.5346
	minimum = 7
	maximum = 49
Slowest flit = 52432
Fragmentation average = 0
	minimum = 0
	maximum = 0
Injected packet rate average = 0.0498125
	minimum = 0.0405 (at node 10)
	maximum = 0.0575 (at node 1)
Accepted packet rate average = 0.0491562
	minimum = 0.04 (at node 10)
	maximum = 0.057 (at node 4)
Injected flit rate average = 0.0498125
	minimum = 0.0405 (at node 10)
	maximum = 0.0575 (at node 1)
Accepted flit rate average= 0.0491562
	minimum = 0.04 (at node 10)
	maximum = 0.057 (at node 4)
Injected packet length average = 1
Accepted packet length average = 1
Total in-flight flits = 21 (0 measured)
latency change    = 0.00713791
throughput change = 0.0286078
Class 0:
Packet latency average = 20.1156
	minimum = 7
	maximum = 47
Network latency average = 20.1156
	minimum = 7
	maximum = 47
Slowest packet = 54357
Flit latency average = 20.1156
	minimum = 7
	maximum = 47
Slowest flit = 54357
Fragmentation average = 0
	minimum = 0
	maximum = 0
Injected packet rate average = 0.0490625
	minimum = 0.039 (at node 4)
	maximum = 0.058 (at node 9)
Accepted packet rate average = 0.0491875
	minimum = 0.039 (at node 1)
	maximum = 0.06 (at node 6)
Injected flit rate average = 0.0490625
	minimum = 0.039 (at node 4)
	maximum = 0.058 (at node 9)
Accepted flit rate average= 0.0491875
	minimum = 0.039 (at node 1)
	maximum = 0.06 (at node 6)
Injected packet length average = 1
Accepted packet length average = 1
Total in-flight flits = 19 (0 measured)
latency change    = 0.0288821
throughput change = 0.000635324
Warmed up ...Time used is 3000 cycles
Class 0:
Packet latency average = 20.2054
	minimum = 7
	maximum = 50
Network latency average = 20.2054
	minimum = 7
	maximum = 50
Slowest packet = 54719
Flit latency average = 20.2889
	minimum = 7
	maximum = 50
Slowest flit = 54719
Fragmentation average = 0
	minimum = 0
	maximum = 0
Injected packet rate average = 0.0498125
	minimum = 0.04 (at node 13)
	maximum = 0.06 (at node 4)
Accepted packet rate average = 0.0501875
	minimum = 0.042 (at node 7)
	maximum = 0.06 (at node 1)
Injected flit rate average = 0.0498125
	minimum = 0.04 (at node 13)
	maximum = 0.06 (at node 4)
Accepted flit rate average= 0.0501875
	minimum = 0.042 (at node 7)
	maximum = 0.06 (at node 1)
Injected packet length average = 1
Accepted packet length average = 1
Total in-flight flits = 13 (13 measured)
latency change    = 0.00444081
throughput change = 0.0199253
Class 0:
Packet latency average = 20
	minimum = 7
	maximum = 50
Network latency average = 20
	minimum = 7
	maximum = 50
Slowest packet = 54719
Flit latency average = 20.044
	minimum = 7
	maximum = 50
Slowest flit = 54719
Fragmentation average = 0
	minimum = 0
	maximum = 0
Injected packet rate average = 0.0503125
	minimum = 0.0415 (at node 13)
	maximum = 0.059 (at node 7)
Accepted packet rate average = 0.0504687
	minimum = 0.042 (at node 7)
	maximum = 0.058 (at node 13)
Injected flit rate average = 0.0503125
	minimum = 0.0415 (at node 13)
	maximum = 0.059 (at node 7)
Accepted flit rate average= 0.0504687
	minimum = 0.042 (at node 7)
	maximum = 0.058 (at node 13)
Injected packet length average = 1
Accepted packet length average = 1
Total in-flight flits = 14 (14 measured)
latency change    = 0.0102679
throughput change = 0.00557276
Class 0:
Packet latency average = 19.9693
	minimum = 7
	maximum = 50
Network latency average = 19.9693
	minimum = 7
	maximum = 50
Slowest packet = 54719
Flit latency average = 19.9992
	minimum = 7
	maximum = 50
Slowest flit = 54719
Fragmentation average = 0
	minimum = 0
	maximum = 0
Injected packet rate average = 0.049875
	minimum = 0.0433333 (at node 14)
	maximum = 0.057 (at node 6)
Accepted packet rate average = 0.0499167
	minimum = 0.0436667 (at node 11)
	maximum = 0.0566667 (at node 9)
Injected flit rate average = 0.049875
	minimum = 0.0433333 (at node 14)
	maximum = 0.057 (at node 6)
Accepted flit rate average= 0.0499167
	minimum = 0.0436667 (at node 11)
	maximum = 0.0566667 (at node 9)
Injected packet length average = 1
Accepted packet length average = 1
Total in-flight flits = 17 (17 measured)
latency change    = 0.00153791
throughput change = 0.0110601
Draining all recorded packets ...
Draining remaining packets ...
Time taken is 6080 cycles
Class 0:
Packet latency average = 19.9338
	minimum = 7
	maximum = 46
Network latency average = 19.9338
	minimum = 7
	maximum = 46
Slowest packet = 57372
Flit latency average = 19.9338
	minimum = 7
	maximum = 46
Slowest flit = 57372
Fragmentation average = 0
	minimum = 0
	maximum = 0
Injected packet rate average = 0.049875
	minimum = 0.036 (at node 6)
	maximum = 0.061 (at node 4)
Accepted packet rate average = 0.0490625
	minimum = 0.036 (at node 9)
	maximum = 0.06 (at node 1)
Injected flit rate average = 0.049875
	minimum = 0.036 (at node 6)
	maximum = 0.061 (at node 4)
Accepted flit rate average= 0.0490625
	minimum = 0.036 (at node 9)
	maximum = 0.06 (at node 1)
Injected packet length average = 1
Accepted packet length average = 1
Total in-flight flits = 13 (0 measured)
latency change    = 1
throughput change = 1
Class 0:
Packet latency average = 19.7433
	minimum = 7
	maximum = 46
Network latency average = 19.7433
	minimum = 7
	maximum = 46
Slowest packet = 57372
Flit latency average = 19.7433
	minimum = 7
	maximum = 46
Slowest flit = 57372
Fragmentation average = 0
	minimum = 0
	maximum = 0
Injected packet rate average = 0.049125
	minimum = 0.0405 (at node 10)
	maximum = 0.0575 (at node 4)
Accepted packet rate average = 0.0486875
	minimum = 0.0405 (at node 10)
	maximum = 0.0565 (at node 1)
Injected flit rate average = 0.049125
	minimum = 0.0405 (at node 10)
	maximum = 0.0575 (at node 4)
Accepted flit rate average= 0.0486875
	minimum = 0.0405 (at node 10)
	maximum = 0.0565 (at node 1)
Injected packet length average = 1
Accepted packet length average = 1
Total in-flight flits = 14 (0 measured)
latency change    = 0.00964873
throughput change = 0.00770218
Class 0:
Packet latency average = 19.8222
	minimum = 7
	maximum = 56
Network latency average = 19.8222
	minimum = 7
	maximum = 56
Slowest packet = 59048
Flit latency average = 19.8222
	minimum = 7
	maximum = 56
Slowest flit = 59048
Fragmentation average = 0
	minimum = 0
	maximum = 0
Injected packet rate average = 0.0513125
	minimum = 0.037 (at node 6)
	maximum = 0.067 (at node 7)
Accepted packet rate average = 0.0513125
	minimum = 0.035 (at node 9)
	maximum = 0.065 (at node 13)
Injected flit rate average = 0.0513125
	minimum = 0.037 (at node 6)
	maximum = 0.067 (at node 7)
Accepted flit rate average= 0.0513125
	minimum = 0.035 (at node 9)
	maximum = 0.065 (at node 13)
Injected packet length average = 1
Accepted packet length average = 1
Total in-flight flits = 14 (0 measured)
latency change    = 0.00398077
throughput change = 0.0511571
Warmed up ...Time used is 3000 cycles
Class 0:
Packet latency average = 19.5212
	minimum = 7
	maximum = 49
Network latency average = 19.5212
	minimum = 7
	maximum = 49
Slowest packet = 59682
Flit latency average = 19.587
	minimum = 7
	maximum = 49
Slowest flit = 59682
Fragmentation average = 0
	minimum = 0
	maximum = 0
Injected packet rate average = 0.05075
	minimum = 0.041 (at node 15)
	maximum = 0.07 (at node 0)
Accepted packet rate average = 0.051
	minimum = 0.042 (at node 15)
	maximum = 0.069 (at node 0)
Injected flit rate average = 0.05075
	minimum = 0.041 (at node 15)
	maximum = 0.07 (at node 0)
Accepted flit rate average= 0.051
	minimum = 0.042 (at node 15)
	maximum = 0.069 (at node 0)
Injected packet length average = 1
Accepted packet length average = 1
Total in-flight flits = 10 (10 measured)
latency change    = 0.0154177
throughput change = 0.00612745
Class 0:
Packet latency average = 19.2853
	minimum = 7
	maximum = 49
Network latency average = 19.2853
	minimum = 7
	maximum = 49
Slowest packet = 59682
Flit latency average = 19.322
	minimum = 7
	maximum = 49
Slowest flit = 59682
Fragmentation average = 0
	minimum = 0
	maximum = 0
Injected packet rate average = 0.0486875
	minimum = 0.0415 (at node 3)
	maximum = 0.0615 (at node 0)
Accepted packet rate average = 0.048625
	minimum = 0.0405 (at node 12)
	maximum = 0.0615 (at node 0)
Injected flit rate average = 0.0486875
	minimum = 0.0415 (at node 3)
	maximum = 0.0615 (at node 0)
Accepted flit rate average= 0.048625
	minimum = 0.0405 (at node 12)
	maximum = 0.0615 (at node 0)
Injected packet length average = 1
Accepted packet length average = 1
Total in-flight flits = 16 (16 measured)
latency change    = 0.0122297
throughput change = 0.0488432
Class 0:
Packet latency average = 19.4355
	minimum = 7
	maximum = 54
Network latency average = 19.4355
	minimum = 7
	maximum = 54
Slowest packet = 60838
Flit latency average = 19.4586
	minimum = 7
	maximum = 54
Slowest flit = 60838
Fragmentation average = 0
	minimum = 0
	maximum = 0
Injected packet rate average = 0.0497292
	minimum = 0.042 (at node 3)
	maximum = 0.0583333 (at node 0)
Accepted packet rate average = 0.0495208
	minimum = 0.041 (at node 12)
	maximum = 0.0576667 (at node 0)
Injected flit rate average = 0.0497292
	minimum = 0.042 (at node 3)
	maximum = 0.0583333 (at node 0)
Accepted flit rate average= 0.0495208
	minimum = 0.041 (at node 12)
	maximum = 0.0576667 (at node 0)
Injected packet length average = 1
Accepted packet length average = 1
Total in-flight flits = 24 (24 measured)
latency change    = 0.00772401
throughput change = 0.01809
Draining all recorded packets ...
Draining remaining packets ...
Time taken is 6066 cycles
Class 0:
Packet latency average = 19.5927
	minimum = 7
	maximum = 47
Network latency average = 19.5927
	minimum = 7
	maximum = 47
Slowest packet = 61821
Flit latency average = 19.5927
	minimum = 7
	maximum = 47
Slowest flit = 61821
Fragmentation average = 0
	minimum = 0
	maximum = 0
Injected packet rate average = 0.051875
	minimum = 0.04 (at node 1)
	maximum = 0.064 (at node 13)
Accepted packet rate average = 0.05125
	minimum = 0.039 (at node 12)
	maximum = 0.064 (at node 7)
Injected flit rate average = 0.051875
	minimum = 0.04 (at node 1)
	maximum = 0.064 (at node 13)
Accepted flit rate average= 0.05125
	minimum = 0.039 (at node 12)
	maximum = 0.064 (at node 7)
Injected packet length average = 1
Accepted packet length average = 1
Total in-flight flits = 10 (0 measured)
latency change    = 1
throughput change = 1
Class 0:
Packet latency average = 19.5464
	minimum = 7
	maximum = 47
Network latency average = 19.5464
	minimum = 7
	maximum = 47
Slowest packet = 61821
Flit latency average = 19.5464
	minimum = 7
	maximum = 47
Slowest flit = 61821
Fragmentation average = 0
	minimum = 0
	maximum = 0
Injected packet rate average = 0.0500937
	minimum = 0.0405 (at node 3)
	maximum = 0.0595 (at node 7)
Accepted packet rate average = 0.0494687
	minimum = 0.04 (at node 12)
	maximum = 0.0575 (at node 13)
Injected flit rate average = 0.0500937
	minimum = 0.0405 (at node 3)
	maximum = 0.0595 (at node 7)
Accepted flit rate average= 0.0494687
	minimum = 0.04 (at node 12)
	maximum = 0.0575 (at node 13)
Injected packet length average = 1
Accepted packet length average = 1
Total in-flight flits = 20 (0 measured)
latency change    = 0.00236627
throughput change = 0.0360076
Class 0:
Packet latency average = 19.622
	minimum = 7
	maximum = 48
Network latency average = 19.622
	minimum = 7
	maximum = 48
Slowest packet = 63824
Flit latency average = 19.622
	minimum = 7
	maximum = 48
Slowest flit = 63824
Fragmentation average = 0
	minimum = 0
	maximum = 0
Injected packet rate average = 0.0515625
	minimum = 0.037 (at node 5)
	maximum = 0.059 (at node 4)
Accepted packet rate average = 0.05175
	minimum = 0.038 (at node 5)
	maximum = 0.06 (at node 1)
Injected flit rate average = 0.0515625
	minimum = 0.037 (at node 5)
	maximum = 0.059 (at node 4)
Accepted flit rate average= 0.05175
	minimum = 0.038 (at node 5)
	maximum = 0.06 (at node 1)
Injected packet length average = 1
Accepted packet length average = 1
Total in-flight flits = 17 (0 measured)
latency change    = 0.00385027
throughput change = 0.0440821
Warmed up ...Time used is 3000 cycles
Class 0:
Packet latency average = 19.5603
	minimum = 7
	maximum = 53
Network latency average = 19.5603
	minimum = 7
	maximum = 53
Slowest packet = 64214
Flit latency average = 19.6925
	minimum = 7
	maximum = 53
Slowest flit = 64214
Fragmentation average = 0
	minimum = 0
	maximum = 0
Injected packet rate average = 0.050875
	minimum = 0.042 (at node 5)
	maximum = 0.061 (at node 0)
Accepted packet rate average = 0.0508125
	minimum = 0.042 (at node 5)
	maximum = 0.061 (at node 0)
Injected flit rate average = 0.050875
	minimum = 0.042 (at node 5)
	maximum = 0.061 (at node 0)
Accepted flit rate average= 0.0508125
	minimum = 0.042 (at node 5)
	maximum = 0.061 (at node 0)
Injected packet length average = 1
Accepted packet length average = 1
Total in-flight flits = 18 (18 measured)
latency change    = 0.00315328
throughput change = 0.0184502
Class 0:
Packet latency average = 19.6424
	minimum = 7
	maximum = 53
Network latency average = 19.6424
	minimum = 7
	maximum = 53
Slowest packet = 64214
Flit latency average = 19.7077
	minimum = 7
	maximum = 53
Slowest flit = 64214
Fragmentation average = 0
	minimum = 0
	maximum = 0
Injected packet rate average = 0.0506562
	minimum = 0.0455 (at node 9)
	maximum = 0.0565 (at node 4)
Accepted packet rate average = 0.0507812
	minimum = 0.0455 (at node 6)
	maximum = 0.055 (at node 1)
Injected flit rate average = 0.0506562
	minimum = 0.0455 (at node 9)
	maximum = 0.0565 (at node 4)
Accepted flit rate average= 0.0507812
	minimum = 0.0455 (at node 6)
	maximum = 0.055 (at node 1)
Injected packet length average = 1
Accepted packet length average = 1
Total in-flight flits = 13 (13 measured)
latency change    = 0.00418031
throughput change = 0.000615385
Class 0:
Packet latency average = 19.7457
	minimum = 7
	maximum = 53
Network latency average = 19.7457
	minimum = 7
	maximum = 53
Slowest packet = 64214
Flit latency average = 19.7876
	minimum = 7
	maximum = 53
Slowest flit = 64214
Fragmentation average = 0
	minimum = 0
	maximum = 0
Injected packet rate average = 0.0518542
	minimum = 0.047 (at node 9)
	maximum = 0.0566667 (at node 15)
Accepted packet rate average = 0.051875
	minimum = 0.0466667 (at node 6)
	maximum = 0.057 (at node 15)
Injected flit rate average = 0.0518542
	minimum = 0.047 (at node 9)
	maximum = 0.0566667 (at node 15)
Accepted flit rate average= 0.051875
	minimum = 0.0466667 (at node 6)
	maximum = 0.057 (at node 15)
Injected packet length average = 1
Accepted packet length average = 1
Total in-flight flits = 16 (16 measured)
latency change    = 0.0052285
throughput change = 0.0210843
Draining all recorded packets ...
Draining remaining packets ...
Time taken is 6064 cycles
Class 0:
Packet latency average = 19.5536
	minimum = 7
	maximum = 45
Network latency average = 19.5536
	minimum = 7
	maximum = 45
Slowest packet = 67344
Flit latency average = 19.5536
	minimum = 7
	maximum = 45
Slowest flit = 67344
Fragmentation average = 0
	minimum = 0
	maximum = 0
Injected packet rate average = 0.0501875
	minimum = 0.044 (at node 11)
	maximum = 0.057 (at node 3)
Accepted packet rate average = 0.049
	minimum = 0.042 (at node 2)
	maximum = 0.057 (at node 6)
Injected flit rate average = 0.0501875
	minimum = 0.044 (at node 11)
	maximum = 0.057 (at node 3)
Accepted flit rate average= 0.049
	minimum = 0.042 (at node 2)
	maximum = 0.057 (at node 6)
Injected packet length average = 1
Accepted packet length average = 1
Total in-flight flits = 19 (0 measured)
latency change    = 1
throughput change = 1
Class 0:
Packet latency average = 20.0534
	minimum = 7
	maximum = 52
Network latency average = 20.0534
	minimum = 7
	maximum = 52
Slowest packet = 67649
Flit latency average = 20.0534
	minimum = 7
	maximum = 52
Slowest flit = 67649
Fragmentation average = 0
	minimum = 0
	maximum = 0
Injected packet rate average = 0.0507187
	minimum = 0.0435 (at node 13)
	maximum = 0.0615 (at node 3)
Accepted packet rate average = 0.0502812
	minimum = 0.043 (at node 7)
	maximum = 0.0595 (at node 12)
Injected flit rate average = 0.0507187
	minimum = 0.0435 (at node 13)
	maximum = 0.0615 (at node 3)
Accepted flit rate average= 0.0502812
	minimum = 0.043 (at node 7)
	maximum = 0.0595 (at node 12)
Injected packet length average = 1
Accepted packet length average = 1
Total in-flight flits = 14 (0 measured)
latency change    = 0.0249273
throughput change = 0.0254817
Class 0:
Packet latency average = 19.2559
	minimum = 7
	maximum = 45
Network latency average = 19.2559
	minimum = 7
	maximum = 45
Slowest packet = 68714
Flit latency average = 19.2559
	minimum = 7
	maximum = 45
Slowest flit = 68714
Fragmentation average = 0
	minimum = 0
	maximum = 0
Injected packet rate average = 0.0505625
	minimum = 0.035 (at node 7)
	maximum = 0.065 (at node 9)
Accepted packet rate average = 0.0505625
	minimum = 0.036 (at node 2)
	maximum = 0.064 (at node 6)
Injected flit rate average = 0.0505625
	minimum = 0.035 (at node 7)
	maximum = 0.065 (at node 9)
Accepted flit rate average= 0.0505625
	minimum = 0.036 (at node 2)
	maximum = 0.064 (at node 6)
Injected packet length average = 1
Accepted packet length average = 1
Total in-flight flits = 14 (0 measured)
latency change    = 0.04142
throughput change = 0.00556242
Warmed up ...Time used is 3000 cycles
Class 0:
Packet latency average = 19.2689
	minimum = 7
	maximum = 47
Network latency average = 19.2689
	minimum = 7
	maximum = 47
Slowest packet = 69767
Flit latency average = 19.4397
	minimum = 7
	maximum = 47
Slowest flit = 69767
Fragmentation average = 0
	minimum = 0
	maximum = 0
Injected packet rate average = 0.0491875
	minimum = 0.04 (at node 5)
	maximum = 0.058 (at node 15)
Accepted packet rate average = 0.04875
	minimum = 0.04 (at node 5)
	maximum = 0.058 (at node 15)
Injected flit rate average = 0.0491875
	minimum = 0.04 (at node 5)
	maximum = 0.058 (at node 15)
Accepted flit rate average= 0.04875
	minimum = 0.04 (at node 5)
	maximum = 0.058 (at node 15)
Injected packet length average = 1
Accepted packet length average = 1
Total in-flight flits = 21 (21 measured)
latency change    = 0.000677674
throughput change = 0.0371795
Class 0:
Packet latency average = 19.7296
	minimum = 7
	maximum = 50
Network latency average = 19.7296
	minimum = 7
	maximum = 50
Slowest packet = 70370
Flit latency average = 19.8078
	minimum = 7
	maximum = 50
Slowest flit = 70370
Fragmentation average = 0
	minimum = 0
	maximum = 0
Injected packet rate average = 0.0507187
	minimum = 0.045 (at node 5)
	maximum = 0.0585 (at node 14)
Accepted packet rate average = 0.0507187
	minimum = 0.0445 (at node 13)
	maximum = 0.0585 (at node 11)
Injected flit rate average = 0.0507187
	minimum = 0.045 (at node 5)
	maximum = 0.0585 (at node 14)
Accepted flit rate average= 0.0507187
	minimum = 0.0445 (at node 13)
	maximum = 0.0585 (at node 11)
Injected packet length average = 1
Accepted packet length average = 1
Total in-flight flits = 14 (14 measured)
latency change    = 0.0233515
throughput change = 0.038817
Class 0:
Packet latency average = 19.8478
	minimum = 7
	maximum = 50
Network latency average = 19.8478
	minimum = 7
	maximum = 50
Slowest packet = 70370
Flit latency average = 19.9001
	minimum = 7
	maximum = 50
Slowest flit = 70370
Fragmentation average = 0
	minimum = 0
	maximum = 0
Injected packet rate average = 0.04975
	minimum = 0.046 (at node 7)
	maximum = 0.0583333 (at node 2)
Accepted packet rate average = 0.0498542
	minimum = 0.0456667 (at node 13)
	maximum = 0.0573333 (at node 8)
Injected flit rate average = 0.04975
	minimum = 0.046 (at node 7)
	maximum = 0.0583333 (at node 2)
Accepted flit rate average= 0.0498542
	minimum = 0.0456667 (at node 13)
	maximum = 0.0573333 (at node 8)
Injected packet length average = 1
Accepted packet length average = 1
Total in-flight flits = 9 (9 measured)
latency change    = 0.00595478
throughput change = 0.0173422
Draining all recorded packets ...
Draining remaining packets ...
Time taken is 6072 cycles
Class 0:
Packet latency average = 19.9488
	minimum = 7
	maximum = 47
Network latency average = 19.9488
	minimum = 7
	maximum = 47
Slowest packet = 71760
Flit latency average = 19.9488
	minimum = 7
	maximum = 47
Slowest flit = 71760
Fragmentation average = 0
	minimum = 0
	maximum = 0
Injected packet rate average = 0.04975
	minimum = 0.038 (at node 6)
	maximum = 0.06 (at node 4)
Accepted packet rate average = 0.0488125
	minimum = 0.037 (at node 9)
	maximum = 0.06 (at node 1)
Injected flit rate average = 0.04975
	minimum = 0.038 (at node 6)
	maximum = 0.06 (at node 4)
Accepted flit rate average= 0.0488125
	minimum = 0.037 (at node 9)
	maximum = 0.06 (at node 1)
Injected packet length average = 1
Accepted packet length average = 1
Total in-flight flits = 15 (0 measured)
latency change    = 1
throughput change = 1
Class 0:
Packet latency average = 19.4997
	minimum = 7
	maximum = 47
Network latency average = 19.4997
	minimum = 7
	maximum = 47
Slowest packet = 71760
Flit latency average = 19.4997
	minimum = 7
	maximum = 47
Slowest flit = 71760
Fragmentation average = 0
	minimum = 0
	maximum = 0
Injected packet rate average = 0.0501875
	minimum = 0.0425 (at node 6)
	maximum = 0.061 (at node 5)
Accepted packet rate average = 0.0495312
	minimum = 0.042 (at node 6)
	maximum = 0.0605 (at node 5)
Injected flit rate average = 0.0501875
	minimum = 0.0425 (at node 6)
	maximum = 0.061 (at node 5)
Accepted flit rate average= 0.0495312
	minimum = 0.042 (at node 6)
	maximum = 0.0605 (at node 5)
Injected packet length average = 1
Accepted packet length average = 1
Total in-flight flits = 21 (0 measured)
latency change    = 0.0230311
throughput change = 0.014511
Class 0:
Packet latency average = 19.4242
	minimum = 7
	maximum = 45
Network latency average = 19.4242
	minimum = 7
	maximum = 45
Slowest packet = 73514
Flit latency average = 19.4242
	minimum = 7
	maximum = 45
Slowest flit = 73514
Fragmentation average = 0
	minimum = 0
	maximum = 0
Injected packet rate average = 0.050375
	minimum = 0.036 (at node 6)
	maximum = 0.059 (at node 5)
Accepted packet rate average = 0.0506875
	minimum = 0.037 (at node 9)
	maximum = 0.06 (at node 5)
Injected flit rate average = 0.050375
	minimum = 0.036 (at node 6)
	maximum = 0.059 (at node 5)
[...]
Accepted packet rate average = 0.049125
	minimum = 0.04025 (at node 13)
	maximum = 0.0545 (at node 12)
Injected flit rate average = 0.049125
	minimum = 0.04 (at node 7)
	maximum = 0.055 (at node 3)
Accepted flit rate average= 0.049125
	minimum = 0.04025 (at node 13)
	maximum = 0.0545 (at node 12)
Injected packet length average = 1
Accepted packet length average = 1
Total in-flight flits = 11 (11 measured)
latency change    = 0.00393327
throughput change = 0.00678541
Class 0:
Packet latency average = 19.8433
	minimum = 7
	maximum = 50
Network latency average = 19.8433
	minimum = 7
	maximum = 50
Slowest packet = 500934
Flit latency average = 19.8591
	minimum = 7
	maximum = 50
Slowest flit = 500934
Fragmentation average = 0
	minimum = 0
	maximum = 0
Injected packet rate average = 0.0488
	minimum = 0.0412 (at node 7)
	maximum = 0.0552 (at node 3)
Accepted packet rate average = 0.0487875
	minimum = 0.0414 (at node 13)
	maximum = 0.0548 (at node 12)
Injected flit rate average = 0.0488
	minimum = 0.0412 (at node 7)
	maximum = 0.0552 (at node 3)
Accepted flit rate average= 0.0487875
	minimum = 0.0414 (at node 13)
	maximum = 0.0548 (at node 12)
Injected packet length average = 1
Accepted packet length average = 1
Total in-flight flits = 12 (12 measured)
latency change    = 8.1079e-05
throughput change = 0.00691776
Draining all recorded packets ...
Draining remaining packets ...
Time taken is 8059 cycles
Class 0:
Packet latency average = 19.5842
	minimum = 7
	maximum = 45
Network latency average = 19.5842
	minimum = 7
	maximum = 45
Slowest packet = 501804
Flit latency average = 19.5842
	minimum = 7
	maximum = 45
Slowest flit = 501804
Fragmentation average = 0
	minimum = 0
	maximum = 0
Injected packet rate average = 0.0479375
	minimum = 0.039 (at node 3)
	maximum = 0.058 (at node 4)
Accepted packet rate average = 0.04675
	minimum = 0.037 (at node 12)
	maximum = 0.056 (at node 1)
Injected flit rate average = 0.0479375
	minimum = 0.039 (at node 3)
	maximum = 0.058 (at node 4)
Accepted flit rate average= 0.04675
	minimum = 0.037 (at node 12)
	maximum = 0.056 (at node 1)
Injected packet length average = 1
Accepted packet length average = 1
Total in-flight flits = 19 (0 measured)
latency change    = 1
throughput change = 1
Class 0:
Packet latency average = 19.7047
	minimum = 7
	maximum = 46
Network latency average = 19.7047
	minimum = 7
	maximum = 46
Slowest packet = 502610
Flit latency average = 19.7047
	minimum = 7
	maximum = 46
Slowest flit = 502610
Fragmentation average = 0
	minimum = 0
	maximum = 0
Injected packet rate average = 0.0493125
	minimum = 0.044 (at node 13)
	maximum = 0.054 (at node 9)
Accepted packet rate average = 0.0487812
	minimum = 0.0435 (at node 7)
	maximum = 0.0535 (at node 14)
Injected flit rate average = 0.0493125
	minimum = 0.044 (at node 13)
	maximum = 0.054 (at node 9)
Accepted flit rate average= 0.0487812
	minimum = 0.0435 (at node 7)
	maximum = 0.0535 (at node 14)
Injected packet length average = 1
Accepted packet length average = 1
Total in-flight flits = 17 (0 measured)
latency change    = 0.00611286
throughput change = 0.04164
Class 0:
Packet latency average = 20.6602
	minimum = 7
	maximum = 45
Network latency average = 20.6589
	minimum = 7
	maximum = 45
Slowest packet = 503373
Flit latency average = 20.6589
	minimum = 7
	maximum = 45
Slowest flit = 503373
Fragmentation average = 0
	minimum = 0
	maximum = 0
Injected packet rate average = 0.0478125
	minimum = 0.032 (at node 5)
	maximum = 0.069 (at node 4)
Accepted packet rate average = 0.048375
	minimum = 0.032 (at node 5)
	maximum = 0.071 (at node 1)
Injected flit rate average = 0.0478125
	minimum = 0.032 (at node 5)
	maximum = 0.069 (at node 4)
Accepted flit rate average= 0.048375
	minimum = 0.032 (at node 5)
	maximum = 0.071 (at node 1)
Injected packet length average = 1
Accepted packet length average = 1
Total in-flight flits = 8 (0 measured)
latency change    = 0.0462498
throughput change = 0.00839793
Warmed up ...Time used is 3000 cycles
Class 0:
Packet latency average = 19.611
	minimum = 7
	maximum = 46
Network latency average = 19.611
	minimum = 7
	maximum = 46
Slowest packet = 504432
Flit latency average = 19.6586
	minimum = 7
	maximum = 47
Slowest flit = 503924
Fragmentation average = 0
	minimum = 0
	maximum = 0
Injected packet rate average = 0.05175
	minimum = 0.04 (at node 4)
	maximum = 0.068 (at node 13)
Accepted packet rate average = 0.0514375
	minimum = 0.04 (at node 1)
	maximum = 0.068 (at node 7)
Injected flit rate average = 0.05175
	minimum = 0.04 (at node 4)
	maximum = 0.068 (at node 13)
Accepted flit rate average= 0.0514375
	minimum = 0.04 (at node 1)
	maximum = 0.068 (at node 7)
Injected packet length average = 1
Accepted packet length average = 1
Total in-flight flits = 13 (13 measured)
latency change    = 0.0534986
throughput change = 0.0595383
Class 0:
Packet latency average = 19.9802
	minimum = 7
	maximum = 47
Network latency average = 19.9802
	minimum = 7
	maximum = 47
Slowest packet = 504774
Flit latency average = 20.0025
	minimum = 7
	maximum = 47
Slowest flit = 503924
Fragmentation average = 0
	minimum = 0
	maximum = 0
Injected packet rate average = 0.0511875
	minimum = 0.0405 (at node 11)
	maximum = 0.0645 (at node 13)
Accepted packet rate average = 0.050875
	minimum = 0.0405 (at node 14)
	maximum = 0.065 (at node 7)
Injected flit rate average = 0.0511875
	minimum = 0.0405 (at node 11)
	maximum = 0.0645 (at node 13)
Accepted flit rate average= 0.050875
	minimum = 0.0405 (at node 14)
	maximum = 0.065 (at node 7)
Injected packet length average = 1
Accepted packet length average = 1
Total in-flight flits = 18 (18 measured)
latency change    = 0.0184784
throughput change = 0.0110565
Class 0:
Packet latency average = 19.6863
	minimum = 7
	maximum = 47
Network latency average = 19.6863
	minimum = 7
	maximum = 47
Slowest packet = 504774
Flit latency average = 19.7022
	minimum = 7
	maximum = 47
Slowest flit = 503924
Fragmentation average = 0
	minimum = 0
	maximum = 0
Injected packet rate average = 0.0505833
	minimum = 0.0446667 (at node 11)
	maximum = 0.0593333 (at node 13)
Accepted packet rate average = 0.0504375
	minimum = 0.0443333 (at node 14)
	maximum = 0.0593333 (at node 7)
Injected flit rate average = 0.0505833
	minimum = 0.0446667 (at node 11)
	maximum = 0.0593333 (at node 13)
Accepted flit rate average= 0.0504375
	minimum = 0.0443333 (at node 14)
	maximum = 0.0593333 (at node 7)
Injected packet length average = 1
Accepted packet length average = 1
Total in-flight flits = 15 (15 measured)
latency change    = 0.0149324
throughput change = 0.0086741
Class 0:
Packet latency average = 19.753
	minimum = 7
	maximum = 47
Network latency average = 19.753
	minimum = 7
	maximum = 47
Slowest packet = 504774
Flit latency average = 19.7647
	minimum = 7
	maximum = 47
Slowest flit = 503924
Fragmentation average = 0
	minimum = 0
	maximum = 0
Injected packet rate average = 0.0507812
	minimum = 0.04675 (at node 4)
	maximum = 0.05825 (at node 13)
Accepted packet rate average = 0.0506719
	minimum = 0.04625 (at node 1)
	maximum = 0.05775 (at node 7)
Injected flit rate average = 0.0507812
	minimum = 0.04675 (at node 4)
	maximum = 0.05825 (at node 13)
Accepted flit rate average= 0.0506719
	minimum = 0.04625 (at node 1)
	maximum = 0.05775 (at node 7)
Injected packet length average = 1
Accepted packet length average = 1
Total in-flight flits = 15 (15 measured)
latency change    = 0.00337828
throughput change = 0.00462535
Draining all recorded packets ...
Draining remaining packets ...
Time taken is 7065 cycles
Class 0:
Packet latency average = 19.9288
	minimum = 7
	maximum = 46
Network latency average = 19.9288
	minimum = 7
	maximum = 46
Slowest packet = 507735
Flit latency average = 19.9288
	minimum = 7
	maximum = 46
Slowest flit = 507735
Fragmentation average = 0
	minimum = 0
	maximum = 0
Injected packet rate average = 0.0501875
	minimum = 0.037 (at node 10)
	maximum = 0.06 (at node 9)
Accepted packet rate average = 0.0491875
	minimum = 0.037 (at node 2)
	maximum = 0.059 (at node 6)
Injected flit rate average = 0.0501875
	minimum = 0.037 (at node 10)
	maximum = 0.06 (at node 9)
Accepted flit rate average= 0.0491875
	minimum = 0.037 (at node 2)
	maximum = 0.059 (at node 6)
Injected packet length average = 1
Accepted packet length average = 1
Total in-flight flits = 16 (0 measured)
latency change    = 1
throughput change = 1
Class 0:
Packet latency average = 19.6171
	minimum = 7
	maximum = 46
Network latency average = 19.6171
	minimum = 7
	maximum = 46
Slowest packet = 507735
Flit latency average = 19.6171
	minimum = 7
	maximum = 46
Slowest flit = 507735
Fragmentation average = 0
	minimum = 0
	maximum = 0
Injected packet rate average = 0.0489062
	minimum = 0.0425 (at node 4)
	maximum = 0.058 (at node 5)
Accepted packet rate average = 0.0483125
	minimum = 0.0415 (at node 1)
	maximum = 0.057 (at node 5)
Injected flit rate average = 0.0489062
	minimum = 0.0425 (at node 4)
	maximum = 0.058 (at node 5)
Accepted flit rate average= 0.0483125
	minimum = 0.0415 (at node 1)
	maximum = 0.057 (at node 5)
Injected packet length average = 1
Accepted packet length average = 1
Total in-flight flits = 19 (0 measured)
latency change    = 0.0158927
throughput change = 0.0181113
Class 0:
Packet latency average = 20.461
	minimum = 7
	maximum = 52
Network latency average = 20.461
	minimum = 7
	maximum = 52
Slowest packet = 508822
Flit latency average = 20.461
	minimum = 7
	maximum = 52
Slowest flit = 508822
Fragmentation average = 0
	minimum = 0
	maximum = 0
Injected packet rate average = 0.0478125
	minimum = 0.036 (at node 10)
	maximum = 0.06 (at node 11)
Accepted packet rate average = 0.048125
	minimum = 0.036 (at node 10)
	maximum = 0.058 (at node 3)
Injected flit rate average = 0.0478125
	minimum = 0.036 (at node 10)
	maximum = 0.06 (at node 11)
Accepted flit rate average= 0.048125
	minimum = 0.036 (at node 10)
	maximum = 0.058 (at node 3)
Injected packet length average = 1
Accepted packet length average = 1
Total in-flight flits = 14 (0 measured)
latency change    = 0.0412473
throughput change = 0.0038961
Warmed up ...Time used is 3000 cycles
Class 0:
Packet latency average = 19.5551
	minimum = 7
	maximum = 47
Network latency average = 19.5551
	minimum = 7
	maximum = 47
Slowest packet = 510049
Flit latency average = 19.5812
	minimum = 7
	maximum = 47
Slowest flit = 510049
Fragmentation average = 0
	minimum = 0
	maximum = 0
Injected packet rate average = 0.048375
	minimum = 0.035 (at node 12)
	maximum = 0.063 (at node 1)
Accepted packet rate average = 0.0485
	minimum = 0.034 (at node 3)
	maximum = 0.063 (at node 4)
Injected flit rate average = 0.048375
	minimum = 0.035 (at node 12)
	maximum = 0.063 (at node 1)
Accepted flit rate average= 0.0485
	minimum = 0.034 (at node 3)
	maximum = 0.063 (at node 4)
Injected packet length average = 1
Accepted packet length average = 1
Total in-flight flits = 12 (12 measured)
latency change    = 0.0463265
throughput change = 0.00773196
Class 0:
Packet latency average = 19.7619
	minimum = 7
	maximum = 47
Network latency average = 19.7619
	minimum = 7
	maximum = 47
Slowest packet = 510049
Flit latency average = 19.7726
	minimum = 7
	maximum = 47
Slowest flit = 510049
Fragmentation average = 0
	minimum = 0
	maximum = 0
Injected packet rate average = 0.050875
	minimum = 0.0445 (at node 14)
	maximum = 0.058 (at node 8)
Accepted packet rate average = 0.0508438
	minimum = 0.0455 (at node 5)
	maximum = 0.0575 (at node 2)
Injected flit rate average = 0.050875
	minimum = 0.0445 (at node 14)
	maximum = 0.058 (at node 8)
Accepted flit rate average= 0.0508438
	minimum = 0.0455 (at node 5)
	maximum = 0.0575 (at node 2)
Injected packet length average = 1
Accepted packet length average = 1
Total in-flight flits = 15 (15 measured)
latency change    = 0.0104654
throughput change = 0.0460971
Class 0:
Packet latency average = 19.6345
	minimum = 7
	maximum = 47
Network latency average = 19.6345
	minimum = 7
	maximum = 47
Slowest packet = 510049
Flit latency average = 19.6424
	minimum = 7
	maximum = 47
Slowest flit = 510049
Fragmentation average = 0
	minimum = 0
	maximum = 0
Injected packet rate average = 0.05
	minimum = 0.0446667 (at node 12)
	maximum = 0.0563333 (at node 10)
Accepted packet rate average = 0.049875
	minimum = 0.044 (at node 3)
	maximum = 0.0563333 (at node 10)
Injected flit rate average = 0.05
	minimum = 0.0446667 (at node 12)
	maximum = 0.0563333 (at node 10)
Accepted flit rate average= 0.049875
	minimum = 0.044 (at node 3)
	maximum = 0.0563333 (at node 10)
Injected packet length average = 1
Accepted packet length average = 1
Total in-flight flits = 20 (20 measured)
latency change    = 0.00649269
throughput change = 0.0194236
Draining all recorded packets ...
Draining remaining packets ...
Time taken is 6059 cycles
Class 0:
Packet latency average = 20.0709
	minimum = 7
	maximum = 46
Network latency average = 20.0709
	minimum = 7
	maximum = 46
Slowest packet = 512643
Flit latency average = 20.0709
	minimum = 7
	maximum = 46
Slowest flit = 512643
Fragmentation average = 0
	minimum = 0
	maximum = 0
Injected packet rate average = 0.0506875
	minimum = 0.036 (at node 5)
	maximum = 0.06 (at node 6)
Accepted packet rate average = 0.05025
	minimum = 0.036 (at node 5)
	maximum = 0.06 (at node 9)
Injected flit rate average = 0.0506875
	minimum = 0.036 (at node 5)
	maximum = 0.06 (at node 6)
Accepted flit rate average= 0.05025
	minimum = 0.036 (at node 5)
	maximum = 0.06 (at node 9)
Injected packet length average = 1
Accepted packet length average = 1
Total in-flight flits = 7 (0 measured)
latency change    = 1
throughput change = 1
Class 0:
Packet latency average = 19.9923
	minimum = 7
	maximum = 50
Network latency average = 19.9923
	minimum = 7
	maximum = 50
Slowest packet = 512738
Flit latency average = 19.9923
	minimum = 7
	maximum = 50
Slowest flit = 512738
Fragmentation average = 0
	minimum = 0
	maximum = 0
Injected packet rate average = 0.0489687
	minimum = 0.039 (at node 9)
	maximum = 0.057 (at node 12)
Accepted packet rate average = 0.0485312
	minimum = 0.039 (at node 6)
	maximum = 0.0555 (at node 3)
Injected flit rate average = 0.0489687
	minimum = 0.039 (at node 9)
	maximum = 0.057 (at node 12)
Accepted flit rate average= 0.0485312
	minimum = 0.039 (at node 6)
	maximum = 0.0555 (at node 3)
Injected packet length average = 1
Accepted packet length average = 1
Total in-flight flits = 14 (0 measured)
latency change    = 0.00393264
throughput change = 0.0354153
Class 0:
Packet latency average = 19.2228
	minimum = 7
	maximum = 45
Network latency average = 19.2228
	minimum = 7
	maximum = 45
Slowest packet = 513982
Flit latency average = 19.2228
	minimum = 7
	maximum = 45
Slowest flit = 513982
Fragmentation average = 0
	minimum = 0
	maximum = 0
Injected packet rate average = 0.0480625
	minimum = 0.034 (at node 12)
	maximum = 0.058 (at node 8)
Accepted packet rate average = 0.0476875
	minimum = 0.035 (at node 3)
	maximum = 0.057 (at node 4)
Injected flit rate average = 0.0480625
	minimum = 0.034 (at node 12)
	maximum = 0.058 (at node 8)
Accepted flit rate average= 0.0476875
	minimum = 0.035 (at node 3)
	maximum = 0.057 (at node 4)
Injected packet length average = 1
Accepted packet length average = 1
Total in-flight flits = 20 (0 measured)
latency change    = 0.0400289
throughput change = 0.0176933
Warmed up ...Time used is 3000 cycles
Class 0:
Packet latency average = 19.5375
	minimum = 7
	maximum = 45
Network latency average = 19.5375
	minimum = 7
	maximum = 45
Slowest packet = 514339
Flit latency average = 19.6741
	minimum = 7
	maximum = 45
Slowest flit = 514339
Fragmentation average = 0
	minimum = 0
	maximum = 0
Injected packet rate average = 0.0504375
	minimum = 0.039 (at node 12)
	maximum = 0.063 (at node 7)
Accepted packet rate average = 0.0504375
	minimum = 0.039 (at node 3)
	maximum = 0.063 (at node 14)
Injected flit rate average = 0.0504375
	minimum = 0.039 (at node 12)
	maximum = 0.063 (at node 7)
Accepted flit rate average= 0.0504375
	minimum = 0.039 (at node 3)
	maximum = 0.063 (at node 14)
Injected packet length average = 1
Accepted packet length average = 1
Total in-flight flits = 20 (20 measured)
latency change    = 0.0161064
throughput change = 0.0545229
Class 0:
Packet latency average = 19.7126
	minimum = 7
	maximum = 46
Network latency average = 19.7126
	minimum = 7
	maximum = 46
Slowest packet = 515232
Flit latency average = 19.7799
	minimum = 7
	maximum = 46
Slowest flit = 515232
Fragmentation average = 0
	minimum = 0
	maximum = 0
Injected packet rate average = 0.0495937
	minimum = 0.039 (at node 9)
	maximum = 0.0615 (at node 7)
Accepted packet rate average = 0.0495625
	minimum = 0.038 (at node 6)
	maximum = 0.061 (at node 13)
Injected flit rate average = 0.0495937
	minimum = 0.039 (at node 9)
	maximum = 0.0615 (at node 7)
Accepted flit rate average= 0.0495625
	minimum = 0.038 (at node 6)
	maximum = 0.061 (at node 13)
Injected packet length average = 1
Accepted packet length average = 1
Total in-flight flits = 21 (21 measured)
latency change    = 0.00888565
throughput change = 0.0176545
Class 0:
Packet latency average = 19.7097
	minimum = 7
	maximum = 51
Network latency average = 19.7097
	minimum = 7
	maximum = 51
Slowest packet = 516323
Flit latency average = 19.7543
	minimum = 7
	maximum = 51
Slowest flit = 516323
Fragmentation average = 0
	minimum = 0
	maximum = 0
Injected packet rate average = 0.0497083
	minimum = 0.0453333 (at node 1)
	maximum = 0.0556667 (at node 11)
Accepted packet rate average = 0.0498542
	minimum = 0.045 (at node 6)
	maximum = 0.0553333 (at node 14)
Injected flit rate average = 0.0497083
	minimum = 0.0453333 (at node 1)
	maximum = 0.0556667 (at node 11)
Accepted flit rate average= 0.0498542
	minimum = 0.045 (at node 6)
	maximum = 0.0553333 (at node 14)
Injected packet length average = 1
Accepted packet length average = 1
Total in-flight flits = 13 (13 measured)
latency change    = 0.000151877
throughput change = 0.0058504
Class 0:
Packet latency average = 19.7082
	minimum = 7
	maximum = 51
Network latency average = 19.7082
	minimum = 7
	maximum = 51
Slowest packet = 516323
Flit latency average = 19.7421
	minimum = 7
	maximum = 51
Slowest flit = 516323
Fragmentation average = 0
	minimum = 0
	maximum = 0
Injected packet rate average = 0.0490312
	minimum = 0.0425 (at node 13)
	maximum = 0.05575 (at node 11)
Accepted packet rate average = 0.0491406
	minimum = 0.04275 (at node 7)
	maximum = 0.05575 (at node 14)
Injected flit rate average = 0.0490312
	minimum = 0.0425 (at node 13)
	maximum = 0.05575 (at node 11)
Accepted flit rate average= 0.0491406
	minimum = 0.04275 (at node 7)
	maximum = 0.05575 (at node 14)
Injected packet length average = 1
Accepted packet length average = 1
Total in-flight flits = 13 (13 measured)
latency change    = 7.5615e-05
throughput change = 0.0145204
Draining all recorded packets ...
Draining remaining packets ...
Time taken is 7066 cycles
====== Overall Traffic Statistics ======
====== Traffic class 0 ======
Packet latency average = 19.7808 (100 samples)
	minimum = 7 (100 samples)
	maximum = 49.35 (100 samples)
Network latency average = 19.7807 (100 samples)
	minimum = 7 (100 samples)
	maximum = 49.35 (100 samples)
Flit latency average = 19.8099 (100 samples)
	minimum = 7 (100 samples)
	maximum = 49.35 (100 samples)
Fragmentation average = 0 (100 samples)
	minimum = 0 (100 samples)
	maximum = 0 (100 samples)
Injected packet rate average = 0.0500658 (100 samples)
	minimum = 0.04351 (100 samples)
	maximum = 0.0572062 (100 samples)
Accepted packet rate average = 0.0500586 (100 samples)
	minimum = 0.0435277 (100 samples)
	maximum = 0.0571703 (100 samples)
Injected flit rate average = 0.0500658 (100 samples)
	minimum = 0.04351 (100 samples)
	maximum = 0.0572062 (100 samples)
Accepted flit rate average = 0.0500586 (100 samples)
	minimum = 0.0435277 (100 samples)
	maximum = 0.0571703 (100 samples)
Injected packet size average = 1 (100 samples)
Accepted packet size average = 1 (100 samples)
Hops average = 3.50353 (100 samples)
Total run time 27.3863
