BEGIN Configuration File: /tmp/tmpqk6tiulu.cfg
topology = mesh;
k = 8; n = 2;
routing_function = gnn_port_score_route_8x8_v4;
num_vcs = 4; vc_buf_size = 4;
wait_for_tail_credit = 1;
vc_allocator = islip; sw_allocator = islip;
alloc_iters = 1;
credit_delay = 2; routing_delay = 1;
vc_alloc_delay = 1; sw_alloc_delay = 1;
input_speedup = 2; output_speedup = 1; internal_speedup = 1.0;
traffic = uniform;
packet_size = 1; sim_type = latency;
injection_rate = 0.01;
warmup_periods = 3; sample_period = 1000; sim_count = 100;
seed = 0;

END Configuration File: /tmp/tmpqk6tiulu.cfg
Class 0:
Packet latency average = 32.3294
	minimum = 7
	maximum = 72
Network latency average = 32.3294
	minimum = 7
	maximum = 72
Slowest packet = 231
Flit latency average = 32.3294
	minimum = 7
	maximum = 72
Slowest flit = 231
Fragmentation average = 0
	minimum = 0
	maximum = 0
Injected packet rate average = 0.00960937
	minimum = 0.003 (at node 21)
	maximum = 0.015 (at node 18)
Accepted packet rate average = 0.00934375
	minimum = 0.004 (at node 37)
	maximum = 0.017 (at node 12)
Injected flit rate average = 0.00960937
	minimum = 0.003 (at node 21)
	maximum = 0.015 (at node 18)
Accepted flit rate average= 0.00934375
	minimum = 0.004 (at node 37)
	maximum = 0.017 (at node 12)
Injected packet length average = 1
Accepted packet length average = 1
Total in-flight flits = 17 (0 measured)
latency change    = 1
throughput change = 1
Class 0:
Packet latency average = 33.2171
	minimum = 7
	maximum = 72
Network latency average = 33.2171
	minimum = 7
	maximum = 72
Slowest packet = 231
Flit latency average = 33.2171
	minimum = 7
	maximum = 72
Slowest flit = 231
Fragmentation average = 0
	minimum = 0
	maximum = 0
Injected packet rate average = 0.00977344
	minimum = 0.0045 (at node 55)
	maximum = 0.015 (at node 42)
Accepted packet rate average = 0.00957031
	minimum = 0.005 (at node 43)
	maximum = 0.014 (at node 12)
Injected flit rate average = 0.00977344
	minimum = 0.0045 (at node 55)
	maximum = 0.015 (at node 42)
Accepted flit rate average= 0.00957031
	minimum = 0.005 (at node 43)
	maximum = 0.014 (at node 12)
Injected packet length average = 1
Accepted packet length average = 1
Total in-flight flits = 26 (0 measured)
latency change    = 0.0267245
throughput change = 0.0236735
Class 0:
Packet latency average = 33.997
	minimum = 7
	maximum = 77
Network latency average = 33.997
	minimum = 7
	maximum = 77
Slowest packet = 1753
Flit latency average = 33.997
	minimum = 7
	maximum = 77
Slowest flit = 1753
Fragmentation average = 0
	minimum = 0
	maximum = 0
Injected packet rate average = 0.0103281
	minimum = 0.003 (at node 22)
	maximum = 0.022 (at node 1)
Accepted packet rate average = 0.0104688
	minimum = 0.005 (at node 52)
	maximum = 0.018 (at node 40)
Injected flit rate average = 0.0103281
	minimum = 0.003 (at node 22)
	maximum = 0.022 (at node 1)
Accepted flit rate average= 0.0104688
	minimum = 0.005 (at node 52)
	maximum = 0.018 (at node 40)
Injected packet length average = 1
Accepted packet length average = 1
Total in-flight flits = 17 (0 measured)
latency change    = 0.0229394
throughput change = 0.0858209
Warmed up ...Time used is 3000 cycles
Class 0:
Packet latency average = 32.9725
	minimum = 7
	maximum = 72
Network latency average = 32.9725
	minimum = 7
	maximum = 72
Slowest packet = 2114
Flit latency average = 33.0567
	minimum = 7
	maximum = 72
Slowest flit = 2114
Fragmentation average = 0
	minimum = 0
	maximum = 0
Injected packet rate average = 0.0100469
	minimum = 0.003 (at node 30)
	maximum = 0.017 (at node 23)
Accepted packet rate average = 0.00992188
	minimum = 0.004 (at node 17)
	maximum = 0.016 (at node 11)
Injected flit rate average = 0.0100469
	minimum = 0.003 (at node 30)
	maximum = 0.017 (at node 23)
Accepted flit rate average= 0.00992188
	minimum = 0.004 (at node 17)
	maximum = 0.016 (at node 11)
Injected packet length average = 1
Accepted packet length average = 1
Total in-flight flits = 25 (25 measured)
latency change    = 0.0310721
throughput change = 0.0551181
Class 0:
Packet latency average = 33.0715
	minimum = 7
	maximum = 72
Network latency average = 33.0715
	minimum = 7
	maximum = 72
Slowest packet = 2114
Flit latency average = 33.113
	minimum = 7
	maximum = 72
Slowest flit = 2114
Fragmentation average = 0
	minimum = 0
	maximum = 0
Injected packet rate average = 0.00976562
	minimum = 0.004 (at node 30)
	maximum = 0.016 (at node 43)
Accepted packet rate average = 0.00975
	minimum = 0.005 (at node 17)
	maximum = 0.0165 (at node 22)
Injected flit rate average = 0.00976562
	minimum = 0.004 (at node 30)
	maximum = 0.016 (at node 43)
Accepted flit rate average= 0.00975
	minimum = 0.005 (at node 17)
	maximum = 0.0165 (at node 22)
Injected packet length average = 1
Accepted packet length average = 1
Total in-flight flits = 19 (19 measured)
latency change    = 0.00299335
throughput change = 0.0176282
Class 0:
Packet latency average = 33.1764
	minimum = 7
	maximum = 77
Network latency average = 33.1764
	minimum = 7
	maximum = 77
Slowest packet = 3311
Flit latency average = 33.2033
	minimum = 7
	maximum = 77
Slowest flit = 3311
Fragmentation average = 0
	minimum = 0
	maximum = 0
Injected packet rate average = 0.00970833
	minimum = 0.005 (at node 30)
	maximum = 0.0136667 (at node 37)
Accepted packet rate average = 0.00968229
	minimum = 0.00666667 (at node 10)
	maximum = 0.0146667 (at node 22)
Injected flit rate average = 0.00970833
	minimum = 0.005 (at node 30)
	maximum = 0.0136667 (at node 37)
Accepted flit rate average= 0.00968229
	minimum = 0.00666667 (at node 10)
	maximum = 0.0146667 (at node 22)
Injected packet length average = 1
Accepted packet length average = 1
Total in-flight flits = 22 (22 measured)
latency change    = 0.00316345
throughput change = 0.00699301
Class 0:
Packet latency average = 33.3726
	minimum = 7
	maximum = 78
Network latency average = 33.3726
	minimum = 7
	maximum = 78
Slowest packet = 3867
Flit latency average = 33.3913
	minimum = 7
	maximum = 78
Slowest flit = 3867
Fragmentation average = 0
	minimum = 0
	maximum = 0
Injected packet rate average = 0.00980078
	minimum = 0.0065 (at node 47)
	maximum = 0.0135 (at node 36)
Accepted packet rate average = 0.00977344
	minimum = 0.006 (at node 30)
	maximum = 0.01375 (at node 22)
Injected flit rate average = 0.00980078
	minimum = 0.0065 (at node 47)
	maximum = 0.0135 (at node 36)
Accepted flit rate average= 0.00977344
	minimum = 0.006 (at node 30)
	maximum = 0.01375 (at node 22)
Injected packet length average = 1
Accepted packet length average = 1
Total in-flight flits = 24 (24 measured)
latency change    = 0.00587898
throughput change = 0.00932587
Draining all recorded packets ...
Draining remaining packets ...
Time taken is 7100 cycles
Class 0:
Packet latency average = 32.4132
	minimum = 7
	maximum = 72
Network latency average = 32.4132
	minimum = 7
	maximum = 72
Slowest packet = 4479
Flit latency average = 32.4132
	minimum = 7
	maximum = 72
Slowest flit = 4479
Fragmentation average = 0
	minimum = 0
	maximum = 0
Injected packet rate average = 0.0102969
	minimum = 0.004 (at node 3)
	maximum = 0.018 (at node 48)
Accepted packet rate average = 0.00990625
	minimum = 0.002 (at node 10)
	maximum = 0.017 (at node 24)
Injected flit rate average = 0.0102969
	minimum = 0.004 (at node 3)
	maximum = 0.018 (at node 48)
Accepted flit rate average= 0.00990625
	minimum = 0.002 (at node 10)
	maximum = 0.017 (at node 24)
Injected packet length average = 1
Accepted packet length average = 1
Total in-flight flits = 25 (0 measured)
latency change    = 1
throughput change = 1
Class 0:
Packet latency average = 32.7287
	minimum = 7
	maximum = 72
Network latency average = 32.7287
	minimum = 7
	maximum = 72
Slowest packet = 4479
Flit latency average = 32.7287
	minimum = 7
	maximum = 72
Slowest flit = 4479
Fragmentation average = 0
	minimum = 0
	maximum = 0
Injected packet rate average = 0.00985156
	minimum = 0.005 (at node 0)
	maximum = 0.016 (at node 28)
Accepted packet rate average = 0.00964844
	minimum = 0.0055 (at node 38)
	maximum = 0.015 (at node 49)
Injected flit rate average = 0.00985156
	minimum = 0.005 (at node 0)
	maximum = 0.016 (at node 28)
Accepted flit rate average= 0.00964844
	minimum = 0.0055 (at node 38)
	maximum = 0.015 (at node 49)
Injected packet length average = 1
Accepted packet length average = 1
Total in-flight flits = 26 (0 measured)
latency change    = 0.00963971
throughput change = 0.0267206
Class 0:
Packet latency average = 32.8396
	minimum = 7
	maximum = 72
Network latency average = 32.8396
	minimum = 7
	maximum = 72
Slowest packet = 5723
Flit latency average = 32.8396
	minimum = 7
	maximum = 72
Slowest flit = 5723
Fragmentation average = 0
	minimum = 0
	maximum = 0
Injected packet rate average = 0.00990625
	minimum = 0.005 (at node 1)
	maximum = 0.016 (at node 44)
Accepted packet rate average = 0.0100313
	minimum = 0.004 (at node 4)
	maximum = 0.017 (at node 12)
Injected flit rate average = 0.00990625
	minimum = 0.005 (at node 1)
	maximum = 0.016 (at node 44)
Accepted flit rate average= 0.0100313
	minimum = 0.004 (at node 4)
	maximum = 0.017 (at node 12)
Injected packet length average = 1
Accepted packet length average = 1
Total in-flight flits = 18 (0 measured)
latency change    = 0.00337456
throughput change = 0.038162
Warmed up ...Time used is 3000 cycles
Class 0:
Packet latency average = 32.1509
	minimum = 7
	maximum = 72
Network latency average = 32.1509
	minimum = 7
	maximum = 72
Slowest packet = 6488
Flit latency average = 32.341
	minimum = 7
	maximum = 72
Slowest flit = 6488
Fragmentation average = 0
	minimum = 0
	maximum = 0
Injected packet rate average = 0.0103281
	minimum = 0.002 (at node 60)
	maximum = 0.019 (at node 58)
Accepted packet rate average = 0.0102188
	minimum = 0.006 (at node 12)
	maximum = 0.015 (at node 3)
Injected flit rate average = 0.0103281
	minimum = 0.002 (at node 60)
	maximum = 0.019 (at node 58)
Accepted flit rate average= 0.0102188
	minimum = 0.006 (at node 12)
	maximum = 0.015 (at node 3)
Injected packet length average = 1
Accepted packet length average = 1
Total in-flight flits = 25 (25 measured)
latency change    = 0.0214184
throughput change = 0.0183486
Class 0:
Packet latency average = 32.9296
	minimum = 7
	maximum = 77
Network latency average = 32.9296
	minimum = 7
	maximum = 77
Slowest packet = 7507
Flit latency average = 33.0119
	minimum = 7
	maximum = 77
Slowest flit = 7507
Fragmentation average = 0
	minimum = 0
	maximum = 0
Injected packet rate average = 0.0104922
	minimum = 0.0035 (at node 60)
	maximum = 0.016 (at node 15)
Accepted packet rate average = 0.0104609
	minimum = 0.005 (at node 21)
	maximum = 0.0155 (at node 59)
Injected flit rate average = 0.0104922
	minimum = 0.0035 (at node 60)
	maximum = 0.016 (at node 15)
Accepted flit rate average= 0.0104609
	minimum = 0.005 (at node 21)
	maximum = 0.0155 (at node 59)
Injected packet length average = 1
Accepted packet length average = 1
Total in-flight flits = 22 (22 measured)
latency change    = 0.0236461
throughput change = 0.0231516
Class 0:
Packet latency average = 33.4273
	minimum = 7
	maximum = 77
Network latency average = 33.4273
	minimum = 7
	maximum = 77
Slowest packet = 7507
Flit latency average = 33.4785
	minimum = 7
	maximum = 77
Slowest flit = 7507
Fragmentation average = 0
	minimum = 0
	maximum = 0
Injected packet rate average = 0.0103438
	minimum = 0.00633333 (at node 60)
	maximum = 0.014 (at node 62)
Accepted packet rate average = 0.0102969
	minimum = 0.00533333 (at node 21)
	maximum = 0.0143333 (at node 59)
Injected flit rate average = 0.0103438
	minimum = 0.00633333 (at node 60)
	maximum = 0.014 (at node 62)
Accepted flit rate average= 0.0102969
	minimum = 0.00533333 (at node 21)
	maximum = 0.0143333 (at node 59)
Injected packet length average = 1
Accepted packet length average = 1
Total in-flight flits = 27 (27 measured)
latency change    = 0.0148879
throughput change = 0.0159332
Draining all recorded packets ...
Draining remaining packets ...
Time taken is 6094 cycles
Class 0:
Packet latency average = 33.7983
	minimum = 7
	maximum = 77
Network latency average = 33.7983
	minimum = 7
	maximum = 77
Slowest packet = 8444
Flit latency average = 33.7983
	minimum = 7
	maximum = 77
Slowest flit = 8444
Fragmentation average = 0
	minimum = 0
	maximum = 0
Injected packet rate average = 0.00946875
	minimum = 0.003 (at node 17)
	maximum = 0.017 (at node 46)
Accepted packet rate average = 0.00921875
	minimum = 0.003 (at node 7)
	maximum = 0.016 (at node 16)
Injected flit rate average = 0.00946875
	minimum = 0.003 (at node 17)
	maximum = 0.017 (at node 46)
Accepted flit rate average= 0.00921875
	minimum = 0.003 (at node 7)
	maximum = 0.016 (at node 16)
Injected packet length average = 1
Accepted packet length average = 1
Total in-flight flits = 16 (0 measured)
latency change    = 1
throughput change = 1
Class 0:
Packet latency average = 33.488
	minimum = 7
	maximum = 77
Network latency average = 33.488
	minimum = 7
	maximum = 77
Slowest packet = 8444
Flit latency average = 33.488
	minimum = 7
	maximum = 77
Slowest flit = 8444
Fragmentation average = 0
	minimum = 0
	maximum = 0
Injected packet rate average = 0.00957031
	minimum = 0.0045 (at node 19)
	maximum = 0.015 (at node 51)
Accepted packet rate average = 0.00941406
	minimum = 0.0055 (at node 7)
	maximum = 0.014 (at node 0)
Injected flit rate average = 0.00957031
	minimum = 0.0045 (at node 19)
	maximum = 0.015 (at node 51)
Accepted flit rate average= 0.00941406
	minimum = 0.0055 (at node 7)
	maximum = 0.014 (at node 0)
Injected packet length average = 1
Accepted packet length average = 1
Total in-flight flits = 20 (0 measured)
latency change    = 0.00926716
throughput change = 0.0207469
Class 0:
Packet latency average = 33.4362
	minimum = 7
	maximum = 77
Network latency average = 33.4362
	minimum = 7
	maximum = 77
Slowest packet = 9939
Flit latency average = 33.4362
	minimum = 7
	maximum = 77
Slowest flit = 9939
Fragmentation average = 0
	minimum = 0
	maximum = 0
Injected packet rate average = 0.00998438
	minimum = 0.005 (at node 15)
	maximum = 0.018 (at node 12)
Accepted packet rate average = 0.00992188
	minimum = 0.004 (at node 41)
	maximum = 0.022 (at node 26)
Injected flit rate average = 0.00998438
	minimum = 0.005 (at node 15)
	maximum = 0.018 (at node 12)
Accepted flit rate average= 0.00992188
	minimum = 0.004 (at node 41)
	maximum = 0.022 (at node 26)
Injected packet length average = 1
Accepted packet length average = 1
Total in-flight flits = 24 (0 measured)
latency change    = 0.00154761
throughput change = 0.0511811
Warmed up ...Time used is 3000 cycles
Class 0:
Packet latency average = 32.4539
	minimum = 7
	maximum = 72
Network latency average = 32.4539
	minimum = 7
	maximum = 72
Slowest packet = 10626
Flit latency average = 32.6852
	minimum = 7
	maximum = 72
Slowest flit = 10626
Fragmentation average = 0
	minimum = 0
	maximum = 0
Injected packet rate average = 0.00940625
	minimum = 0.003 (at node 15)
	maximum = 0.021 (at node 47)
Accepted packet rate average = 0.00953125
	minimum = 0.003 (at node 46)
	maximum = 0.017 (at node 23)
Injected flit rate average = 0.00940625
	minimum = 0.003 (at node 15)
	maximum = 0.021 (at node 47)
Accepted flit rate average= 0.00953125
	minimum = 0.003 (at node 46)
	maximum = 0.017 (at node 23)
Injected packet length average = 1
Accepted packet length average = 1
Total in-flight flits = 16 (16 measured)
latency change    = 0.0302674
throughput change = 0.0409836
Class 0:
Packet latency average = 33.4889
	minimum = 7
	maximum = 72
Network latency average = 33.4889
	minimum = 7
	maximum = 72
Slowest packet = 10626
Flit latency average = 33.5791
	minimum = 7
	maximum = 72
Slowest flit = 10626
Fragmentation average = 0
	minimum = 0
	maximum = 0
Injected packet rate average = 0.00998438
	minimum = 0.004 (at node 30)
	maximum = 0.0155 (at node 47)
Accepted packet rate average = 0.0100781
	minimum = 0.0055 (at node 15)
	maximum = 0.014 (at node 23)
Injected flit rate average = 0.00998438
	minimum = 0.004 (at node 30)
	maximum = 0.0155 (at node 47)
Accepted flit rate average= 0.0100781
	minimum = 0.0055 (at node 15)
	maximum = 0.014 (at node 23)
Injected packet length average = 1
Accepted packet length average = 1
Total in-flight flits = 12 (12 measured)
latency change    = 0.0309062
throughput change = 0.0542636
Class 0:
Packet latency average = 33.5271
	minimum = 7
	maximum = 77
Network latency average = 33.5271
	minimum = 7
	maximum = 77
Slowest packet = 11508
Flit latency average = 33.5875
	minimum = 7
	maximum = 77
Slowest flit = 11508
Fragmentation average = 0
	minimum = 0
	maximum = 0
Injected packet rate average = 0.00990625
	minimum = 0.00566667 (at node 30)
	maximum = 0.0136667 (at node 47)
Accepted packet rate average = 0.0099375
	minimum = 0.00633333 (at node 7)
	maximum = 0.013 (at node 19)
Injected flit rate average = 0.00990625
	minimum = 0.00566667 (at node 30)
	maximum = 0.0136667 (at node 47)
Accepted flit rate average= 0.0099375
	minimum = 0.00633333 (at node 7)
	maximum = 0.013 (at node 19)
Injected packet length average = 1
Accepted packet length average = 1
Total in-flight flits = 18 (18 measured)
latency change    = 0.00113725
throughput change = 0.0141509
Class 0:
Packet latency average = 33.7631
	minimum = 7
	maximum = 77
Network latency average = 33.7631
	minimum = 7
	maximum = 77
Slowest packet = 11508
Flit latency average = 33.8061
	minimum = 7
	maximum = 77
Slowest flit = 11508
Fragmentation average = 0
	minimum = 0
	maximum = 0
Injected packet rate average = 0.00997656
	minimum = 0.00625 (at node 30)
	maximum = 0.014 (at node 47)
Accepted packet rate average = 0.00995313
	minimum = 0.007 (at node 36)
	maximum = 0.0135 (at node 1)
Injected flit rate average = 0.00997656
	minimum = 0.00625 (at node 30)
	maximum = 0.014 (at node 47)
Accepted flit rate average= 0.00995313
	minimum = 0.007 (at node 36)
	maximum = 0.0135 (at node 1)
Injected packet length average = 1
Accepted packet length average = 1
Total in-flight flits = 30 (30 measured)
latency change    = 0.00699002
throughput change = 0.00156986
Class 0:
Packet latency average = 33.6285
	minimum = 7
	maximum = 77
Network latency average = 33.6285
	minimum = 7
	maximum = 77
Slowest packet = 11508
Flit latency average = 33.6639
	minimum = 7
	maximum = 77
Slowest flit = 11508
Fragmentation average = 0
	minimum = 0
	maximum = 0
Injected packet rate average = 0.00999375
	minimum = 0.006 (at node 30)
	maximum = 0.0126 (at node 38)
Accepted packet rate average = 0.00999375
	minimum = 0.0074 (at node 36)
	maximum = 0.0132 (at node 6)
Injected flit rate average = 0.00999375
	minimum = 0.006 (at node 30)
	maximum = 0.0126 (at node 38)
Accepted flit rate average= 0.00999375
	minimum = 0.0074 (at node 36)
	maximum = 0.0132 (at node 6)
Injected packet length average = 1
Accepted packet length average = 1
Total in-flight flits = 24 (24 measured)
latency change    = 0.00400047
throughput change = 0.00406504
Draining all recorded packets ...
Draining remaining packets ...
Time taken is 8102 cycles
Class 0:
Packet latency average = 33.2871
	minimum = 7
	maximum = 77
Network latency average = 33.2871
	minimum = 7
	maximum = 77
Slowest packet = 13577
Flit latency average = 33.2871
	minimum = 7
	maximum = 77
Slowest flit = 13577
Fragmentation average = 0
	minimum = 0
	maximum = 0
Injected packet rate average = 0.0103125
	minimum = 0.002 (at node 59)
	maximum = 0.016 (at node 6)
Accepted packet rate average = 0.0100156
	minimum = 0.003 (at node 16)
	maximum = 0.017 (at node 47)
Injected flit rate average = 0.0103125
	minimum = 0.002 (at node 59)
	maximum = 0.016 (at node 6)
Accepted flit rate average= 0.0100156
	minimum = 0.003 (at node 16)
	maximum = 0.017 (at node 47)
Injected packet length average = 1
Accepted packet length average = 1
Total in-flight flits = 19 (0 measured)
latency change    = 1
throughput change = 1
Class 0:
Packet latency average = 33.2597
	minimum = 7
	maximum = 77
Network latency average = 33.2597
	minimum = 7
	maximum = 77
Slowest packet = 13577
Flit latency average = 33.2597
	minimum = 7
	maximum = 77
Slowest flit = 13577
Fragmentation average = 0
	minimum = 0
	maximum = 0
Injected packet rate average = 0.0100234
	minimum = 0.005 (at node 14)
	maximum = 0.0145 (at node 29)
Accepted packet rate average = 0.00986719
	minimum = 0.004 (at node 16)
	maximum = 0.014 (at node 13)
Injected flit rate average = 0.0100234
	minimum = 0.005 (at node 14)
	maximum = 0.0145 (at node 29)
Accepted flit rate average= 0.00986719
	minimum = 0.004 (at node 16)
	maximum = 0.014 (at node 13)
Injected packet length average = 1
Accepted packet length average = 1
Total in-flight flits = 20 (0 measured)
latency change    = 0.000822387
throughput change = 0.0150435
Class 0:
Packet latency average = 33.9218
	minimum = 7
	maximum = 77
Network latency average = 33.9218
	minimum = 7
	maximum = 77
Slowest packet = 15066
Flit latency average = 33.9218
	minimum = 7
	maximum = 77
Slowest flit = 15066
Fragmentation average = 0
	minimum = 0
	maximum = 0
Injected packet rate average = 0.00926562
	minimum = 0.002 (at node 12)
	maximum = 0.017 (at node 15)
Accepted packet rate average = 0.0091875
	minimum = 0.003 (at node 42)
	maximum = 0.018 (at node 49)
Injected flit rate average = 0.00926562
	minimum = 0.002 (at node 12)
	maximum = 0.017 (at node 15)
Accepted flit rate average= 0.0091875
	minimum = 0.003 (at node 42)
	maximum = 0.018 (at node 49)
Injected packet length average = 1
Accepted packet length average = 1
Total in-flight flits = 25 (0 measured)
latency change    = 0.0195175
throughput change = 0.0739796
Warmed up ...Time used is 3000 cycles
Class 0:
Packet latency average = 33.5458
	minimum = 7
	maximum = 74
Network latency average = 33.5458
	minimum = 7
	maximum = 74
Slowest packet = 15763
Flit latency average = 33.6562
	minimum = 7
	maximum = 74
Slowest flit = 15763
Fragmentation average = 0
	minimum = 0
	maximum = 0
Injected packet rate average = 0.00998438
	minimum = 0.003 (at node 0)
	maximum = 0.016 (at node 7)
Accepted packet rate average = 0.00995313
	minimum = 0.005 (at node 25)
	maximum = 0.02 (at node 10)
Injected flit rate average = 0.00998438
	minimum = 0.003 (at node 0)
	maximum = 0.016 (at node 7)
Accepted flit rate average= 0.00995313
	minimum = 0.005 (at node 25)
	maximum = 0.02 (at node 10)
Injected packet length average = 1
Accepted packet length average = 1
Total in-flight flits = 27 (27 measured)
latency change    = 0.0112091
throughput change = 0.0769231
Class 0:
Packet latency average = 33.7201
	minimum = 7
	maximum = 81
Network latency average = 33.7201
	minimum = 7
	maximum = 81
Slowest packet = 16456
Flit latency average = 33.7704
	minimum = 7
	maximum = 81
Slowest flit = 16456
Fragmentation average = 0
	minimum = 0
	maximum = 0
Injected packet rate average = 0.0102188
	minimum = 0.0065 (at node 12)
	maximum = 0.016 (at node 7)
Accepted packet rate average = 0.0102422
	minimum = 0.004 (at node 32)
	maximum = 0.0165 (at node 46)
Injected flit rate average = 0.0102188
	minimum = 0.0065 (at node 12)
	maximum = 0.016 (at node 7)
Accepted flit rate average= 0.0102422
	minimum = 0.004 (at node 32)
	maximum = 0.0165 (at node 46)
Injected packet length average = 1
Accepted packet length average = 1
Total in-flight flits = 22 (22 measured)
latency change    = 0.00516934
throughput change = 0.0282227
Class 0:
Packet latency average = 33.7663
	minimum = 7
	maximum = 81
Network latency average = 33.7663
	minimum = 7
	maximum = 81
Slowest packet = 16456
Flit latency average = 33.799
	minimum = 7
	maximum = 81
Slowest flit = 16456
Fragmentation average = 0
	minimum = 0
	maximum = 0
Injected packet rate average = 0.0103125
	minimum = 0.006 (at node 45)
	maximum = 0.017 (at node 7)
Accepted packet rate average = 0.0103385
	minimum = 0.00633333 (at node 52)
	maximum = 0.015 (at node 44)
Injected flit rate average = 0.0103125
	minimum = 0.006 (at node 45)
	maximum = 0.017 (at node 7)
Accepted flit rate average= 0.0103385
	minimum = 0.00633333 (at node 52)
	maximum = 0.015 (at node 44)
Injected packet length average = 1
Accepted packet length average = 1
Total in-flight flits = 20 (20 measured)
latency change    = 0.00137013
throughput change = 0.0093199
Class 0:
Packet latency average = 33.6012
	minimum = 7
	maximum = 81
Network latency average = 33.6012
	minimum = 7
	maximum = 81
Slowest packet = 16456
Flit latency average = 33.6275
	minimum = 7
	maximum = 81
Slowest flit = 16456
Fragmentation average = 0
	minimum = 0
	maximum = 0
Injected packet rate average = 0.0102969
	minimum = 0.00625 (at node 45)
	maximum = 0.01425 (at node 7)
Accepted packet rate average = 0.0102656
	minimum = 0.00725 (at node 52)
	maximum = 0.014 (at node 3)
Injected flit rate average = 0.0102969
	minimum = 0.00625 (at node 45)
	maximum = 0.01425 (at node 7)
Accepted flit rate average= 0.0102656
	minimum = 0.00725 (at node 52)
	maximum = 0.014 (at node 3)
Injected packet length average = 1
Accepted packet length average = 1
Total in-flight flits = 33 (33 measured)
latency change    = 0.00491343
throughput change = 0.00710299
Draining all recorded packets ...
Draining remaining packets ...
Time taken is 7098 cycles
Class 0:
Packet latency average = 32.9785
	minimum = 7
	maximum = 72
Network latency average = 32.9785
	minimum = 7
	maximum = 72
Slowest packet = 18266
Flit latency average = 32.9785
	minimum = 7
	maximum = 72
Slowest flit = 18266
Fragmentation average = 0
	minimum = 0
	maximum = 0
Injected packet rate average = 0.00982813
	minimum = 0.002 (at node 22)
	maximum = 0.02 (at node 43)
Accepted packet rate average = 0.00945312
	minimum = 0.004 (at node 57)
	maximum = 0.02 (at node 35)
Injected flit rate average = 0.00982813
	minimum = 0.002 (at node 22)
	maximum = 0.02 (at node 43)
Accepted flit rate average= 0.00945312
	minimum = 0.004 (at node 57)
	maximum = 0.02 (at node 35)
Injected packet length average = 1
Accepted packet length average = 1
Total in-flight flits = 24 (0 measured)
latency change    = 1
throughput change = 1
Class 0:
Packet latency average = 33.1312
	minimum = 7
	maximum = 77
Network latency average = 33.1312
	minimum = 7
	maximum = 77
Slowest packet = 18942
Flit latency average = 33.1312
	minimum = 7
	maximum = 77
Slowest flit = 18942
Fragmentation average = 0
	minimum = 0
	maximum = 0
Injected packet rate average = 0.0101563
	minimum = 0.002 (at node 22)
	maximum = 0.016 (at node 12)
Accepted packet rate average = 0.00994531
	minimum = 0.006 (at node 28)
	maximum = 0.018 (at node 11)
Injected flit rate average = 0.0101563
	minimum = 0.002 (at node 22)
	maximum = 0.016 (at node 12)
Accepted flit rate average= 0.00994531
	minimum = 0.006 (at node 28)
	maximum = 0.018 (at node 11)
Injected packet length average = 1
Accepted packet length average = 1
Total in-flight flits = 27 (0 measured)
latency change    = 0.00460816
throughput change = 0.0494894
Class 0:
Packet latency average = 32.8003
	minimum = 7
	maximum = 77
Network latency average = 32.8003
	minimum = 7
	maximum = 77
Slowest packet = 19597
Flit latency average = 32.8003
	minimum = 7
	maximum = 77
Slowest flit = 19597
Fragmentation average = 0
	minimum = 0
	maximum = 0
Injected packet rate average = 0.00971875
	minimum = 0.004 (at node 58)
	maximum = 0.017 (at node 16)
Accepted packet rate average = 0.00970312
	minimum = 0.004 (at node 12)
	maximum = 0.017 (at node 8)
Injected flit rate average = 0.00971875
	minimum = 0.004 (at node 58)
	maximum = 0.017 (at node 16)
Accepted flit rate average= 0.00970312
	minimum = 0.004 (at node 12)
	maximum = 0.017 (at node 8)
Injected packet length average = 1
Accepted packet length average = 1
Total in-flight flits = 28 (0 measured)
latency change    = 0.0100872
throughput change = 0.0249597
Warmed up ...Time used is 3000 cycles
Class 0:
Packet latency average = 34.1274
	minimum = 7
	maximum = 77
Network latency average = 34.1274
	minimum = 7
	maximum = 77
Slowest packet = 20209
Flit latency average = 34.3524
	minimum = 7
	maximum = 77
Slowest flit = 20209
Fragmentation average = 0
	minimum = 0
	maximum = 0
Injected packet rate average = 0.0101719
	minimum = 0.003 (at node 23)
	maximum = 0.017 (at node 57)
Accepted packet rate average = 0.010375
	minimum = 0.005 (at node 24)
	maximum = 0.02 (at node 4)
Injected flit rate average = 0.0101719
	minimum = 0.003 (at node 23)
	maximum = 0.017 (at node 57)
Accepted flit rate average= 0.010375
	minimum = 0.005 (at node 24)
	maximum = 0.02 (at node 4)
Injected packet length average = 1
Accepted packet length average = 1
Total in-flight flits = 15 (15 measured)
latency change    = 0.0388848
throughput change = 0.064759
Class 0:
Packet latency average = 33.4957
	minimum = 7
	maximum = 77
Network latency average = 33.4957
	minimum = 7
	maximum = 77
Slowest packet = 20209
Flit latency average = 33.6228
	minimum = 7
	maximum = 77
Slowest flit = 20209
Fragmentation average = 0
	minimum = 0
	maximum = 0
Injected packet rate average = 0.0102031
	minimum = 0.0045 (at node 25)
	maximum = 0.0165 (at node 36)
Accepted packet rate average = 0.0102734
	minimum = 0.005 (at node 49)
	maximum = 0.0165 (at node 30)
Injected flit rate average = 0.0102031
	minimum = 0.0045 (at node 25)
	maximum = 0.0165 (at node 36)
Accepted flit rate average= 0.0102734
	minimum = 0.005 (at node 49)
	maximum = 0.0165 (at node 30)
Injected packet length average = 1
Accepted packet length average = 1
Total in-flight flits = 19 (19 measured)
latency change    = 0.0188571
throughput change = 0.00988593
Class 0:
Packet latency average = 33.4077
	minimum = 7
	maximum = 77
Network latency average = 33.4077
	minimum = 7
	maximum = 77
Slowest packet = 20209
Flit latency average = 33.4953
	minimum = 7
	maximum = 77
Slowest flit = 20209
Fragmentation average = 0
	minimum = 0
	maximum = 0
Injected packet rate average = 0.0100521
	minimum = 0.00633333 (at node 60)
	maximum = 0.0153333 (at node 36)
Accepted packet rate average = 0.0100729
	minimum = 0.00666667 (at node 16)
	maximum = 0.014 (at node 52)
Injected flit rate average = 0.0100521
	minimum = 0.00633333 (at node 60)
	maximum = 0.0153333 (at node 36)
Accepted flit rate average= 0.0100729
	minimum = 0.00666667 (at node 16)
	maximum = 0.014 (at node 52)
Injected packet length average = 1
Accepted packet length average = 1
Total in-flight flits = 24 (24 measured)
latency change    = 0.00263612
throughput change = 0.0199069
Class 0:
Packet latency average = 33.3386
	minimum = 7
	maximum = 77
Network latency average = 33.3386
	minimum = 7
	maximum = 77
Slowest packet = 20209
Flit latency average = 33.406
	minimum = 7
	maximum = 77
Slowest flit = 20209
Fragmentation average = 0
	minimum = 0
	maximum = 0
Injected packet rate average = 0.00992188
	minimum = 0.00675 (at node 60)
	maximum = 0.01325 (at node 36)
Accepted packet rate average = 0.00994922
	minimum = 0.0065 (at node 48)
	maximum = 0.0135 (at node 52)
Injected flit rate average = 0.00992188
	minimum = 0.00675 (at node 60)
	maximum = 0.01325 (at node 36)
Accepted flit rate average= 0.00994922
	minimum = 0.0065 (at node 48)
	maximum = 0.0135 (at node 52)
Injected packet length average = 1
Accepted packet length average = 1
Total in-flight flits = 21 (21 measured)
latency change    = 0.00207068
throughput change = 0.0124329
Draining all recorded packets ...
Draining remaining packets ...
Time taken is 7117 cycles
Class 0:
Packet latency average = 33.9431
	minimum = 7
	maximum = 77
Network latency average = 33.9431
	minimum = 7
	maximum = 77
Slowest packet = 22975
Flit latency average = 33.9431
	minimum = 7
	maximum = 77
Slowest flit = 22975
Fragmentation average = 0
	minimum = 0
	maximum = 0
Injected packet rate average = 0.00996875
	minimum = 0.005 (at node 7)
	maximum = 0.016 (at node 31)
Accepted packet rate average = 0.00960937
	minimum = 0.002 (at node 60)
	maximum = 0.019 (at node 41)
Injected flit rate average = 0.00996875
	minimum = 0.005 (at node 7)
	maximum = 0.016 (at node 31)
Accepted flit rate average= 0.00960937
	minimum = 0.002 (at node 60)
	maximum = 0.019 (at node 41)
Injected packet length average = 1
Accepted packet length average = 1
Total in-flight flits = 23 (0 measured)
latency change    = 1
throughput change = 1
Class 0:
Packet latency average = 33.5976
	minimum = 7
	maximum = 77
Network latency average = 33.5976
	minimum = 7
	maximum = 77
Slowest packet = 22975
Flit latency average = 33.5976
	minimum = 7
	maximum = 77
Slowest flit = 22975
Fragmentation average = 0
	minimum = 0
	maximum = 0
Injected packet rate average = 0.0103594
	minimum = 0.0055 (at node 55)
	maximum = 0.015 (at node 31)
Accepted packet rate average = 0.0102109
	minimum = 0.0035 (at node 3)
	maximum = 0.016 (at node 41)
Injected flit rate average = 0.0103594
	minimum = 0.0055 (at node 55)
	maximum = 0.015 (at node 31)
Accepted flit rate average= 0.0102109
	minimum = 0.0035 (at node 3)
	maximum = 0.016 (at node 41)
Injected packet length average = 1
Accepted packet length average = 1
Total in-flight flits = 19 (0 measured)
latency change    = 0.0102846
throughput change = 0.0589135
Class 0:
Packet latency average = 33.316
	minimum = 7
	maximum = 72
Network latency average = 33.316
	minimum = 7
	maximum = 72
Slowest packet = 23816
Flit latency average = 33.316
	minimum = 7
	maximum = 72
Slowest flit = 23816
Fragmentation average = 0
	minimum = 0
	maximum = 0
Injected packet rate average = 0.009625
	minimum = 0.004 (at node 49)
	maximum = 0.016 (at node 60)
Accepted packet rate average = 0.00964062
	minimum = 0.002 (at node 22)
	maximum = 0.018 (at node 48)
Injected flit rate average = 0.009625
	minimum = 0.004 (at node 49)
	maximum = 0.016 (at node 60)
Accepted flit rate average= 0.00964062
	minimum = 0.002 (at node 22)
	maximum = 0.018 (at node 48)
Injected packet length average = 1
Accepted packet length average = 1
Total in-flight flits = 18 (0 measured)
latency change    = 0.00844957
throughput change = 0.0591572
Warmed up ...Time used is 3000 cycles
Class 0:
Packet latency average = 33.4183
	minimum = 7
	maximum = 72
Network latency average = 33.4183
	minimum = 7
	maximum = 72
Slowest packet = 24474
Flit latency average = 33.5809
	minimum = 7
	maximum = 72
Slowest flit = 24474
Fragmentation average = 0
	minimum = 0
	maximum = 0
Injected packet rate average = 0.00970312
	minimum = 0.002 (at node 39)
	maximum = 0.018 (at node 14)
Accepted packet rate average = 0.00965625
	minimum = 0.005 (at node 43)
	maximum = 0.015 (at node 3)
Injected flit rate average = 0.00970312
	minimum = 0.002 (at node 39)
	maximum = 0.018 (at node 14)
Accepted flit rate average= 0.00965625
	minimum = 0.005 (at node 43)
	maximum = 0.015 (at node 3)
Injected packet length average = 1
Accepted packet length average = 1
Total in-flight flits = 21 (21 measured)
latency change    = 0.00306083
throughput change = 0.00161812
Class 0:
Packet latency average = 33.101
	minimum = 7
	maximum = 77
Network latency average = 33.101
	minimum = 7
	maximum = 77
Slowest packet = 25193
Flit latency average = 33.1855
	minimum = 7
	maximum = 77
Slowest flit = 25193
Fragmentation average = 0
	minimum = 0
	maximum = 0
Injected packet rate average = 0.00989844
	minimum = 0.004 (at node 22)
	maximum = 0.0155 (at node 27)
Accepted packet rate average = 0.0098125
	minimum = 0.005 (at node 7)
	maximum = 0.0155 (at node 6)
Injected flit rate average = 0.00989844
	minimum = 0.004 (at node 22)
	maximum = 0.0155 (at node 27)
Accepted flit rate average= 0.0098125
	minimum = 0.005 (at node 7)
	maximum = 0.0155 (at node 6)
Injected packet length average = 1
Accepted packet length average = 1
Total in-flight flits = 29 (29 measured)
latency change    = 0.00958776
throughput change = 0.0159236
Class 0:
Packet latency average = 33.1385
	minimum = 7
	maximum = 77
Network latency average = 33.1385
	minimum = 7
	maximum = 77
Slowest packet = 25193
Flit latency average = 33.1933
	minimum = 7
	maximum = 77
Slowest flit = 25193
Fragmentation average = 0
	minimum = 0
	maximum = 0
Injected packet rate average = 0.0100313
	minimum = 0.00466667 (at node 39)
	maximum = 0.016 (at node 33)
Accepted packet rate average = 0.0100208
	minimum = 0.006 (at node 7)
	maximum = 0.016 (at node 6)
Injected flit rate average = 0.0100313
	minimum = 0.00466667 (at node 39)
	maximum = 0.016 (at node 33)
Accepted flit rate average= 0.0100208
	minimum = 0.006 (at node 7)
	maximum = 0.016 (at node 6)
Injected packet length average = 1
Accepted packet length average = 1
Total in-flight flits = 20 (20 measured)
latency change    = 0.00113284
throughput change = 0.02079
Draining all recorded packets ...
Draining remaining packets ...
Time taken is 6104 cycles
Class 0:
Packet latency average = 33.2892
	minimum = 7
	maximum = 77
Network latency average = 33.2892
	minimum = 7
	maximum = 77
Slowest packet = 26701
Flit latency average = 33.2892
	minimum = 7
	maximum = 77
Slowest flit = 26701
Fragmentation average = 0
	minimum = 0
	maximum = 0
Injected packet rate average = 0.00996875
	minimum = 0.003 (at node 15)
	maximum = 0.019 (at node 38)
Accepted packet rate average = 0.0095625
	minimum = 0.003 (at node 54)
	maximum = 0.02 (at node 22)
Injected flit rate average = 0.00996875
	minimum = 0.003 (at node 15)
	maximum = 0.019 (at node 38)
Accepted flit rate average= 0.0095625
	minimum = 0.003 (at node 54)
	maximum = 0.02 (at node 22)
Injected packet length average = 1
Accepted packet length average = 1
Total in-flight flits = 26 (0 measured)
latency change    = 1
throughput change = 1
Class 0:
Packet latency average = 33.242
	minimum = 7
	maximum = 81
Network latency average = 33.242
	minimum = 7
	maximum = 81
Slowest packet = 27308
Flit latency average = 33.242
	minimum = 7
	maximum = 81
Slowest flit = 27308
Fragmentation average = 0
	minimum = 0
	maximum = 0
Injected packet rate average = 0.00995313
	minimum = 0.0045 (at node 15)
	maximum = 0.016 (at node 38)
Accepted packet rate average = 0.0098125
	minimum = 0.0045 (at node 38)
	maximum = 0.0155 (at node 53)
Injected flit rate average = 0.00995313
	minimum = 0.0045 (at node 15)
	maximum = 0.016 (at node 38)
Accepted flit rate average= 0.0098125
	minimum = 0.0045 (at node 38)
	maximum = 0.0155 (at node 53)
Injected packet length average = 1
Accepted packet length average = 1
Total in-flight flits = 18 (0 measured)
latency change    = 0.00141921
throughput change = 0.0254777
Class 0:
Packet latency average = 33.1269
	minimum = 7
	maximum = 77
Network latency average = 33.1269
	minimum = 7
	maximum = 77
Slowest packet = 28235
Flit latency average = 33.1269
	minimum = 7
	maximum = 77
Slowest flit = 28235
Fragmentation average = 0
	minimum = 0
	maximum = 0
Injected packet rate average = 0.0100938
	minimum = 0.004 (at node 11)
	maximum = 0.015 (at node 52)
Accepted packet rate average = 0.0100938
	minimum = 0.004 (at node 57)
	maximum = 0.016 (at node 9)
Injected flit rate average = 0.0100938
	minimum = 0.004 (at node 11)
	maximum = 0.015 (at node 52)
Accepted flit rate average= 0.0100938
	minimum = 0.004 (at node 57)
	maximum = 0.016 (at node 9)
Injected packet length average = 1
Accepted packet length average = 1
Total in-flight flits = 18 (0 measured)
latency change    = 0.00347461
throughput change = 0.0278638
Warmed up ...Time used is 3000 cycles
Class 0:
Packet latency average = 34.6403
	minimum = 7
	maximum = 77
Network latency average = 34.6403
	minimum = 7
	maximum = 77
Slowest packet = 28515
Flit latency average = 34.6923
	minimum = 7
	maximum = 77
Slowest flit = 28515
Fragmentation average = 0
	minimum = 0
	maximum = 0
Injected packet rate average = 0.00992188
	minimum = 0.004 (at node 61)
	maximum = 0.016 (at node 43)
Accepted packet rate average = 0.00975
	minimum = 0.003 (at node 0)
	maximum = 0.022 (at node 13)
Injected flit rate average = 0.00992188
	minimum = 0.004 (at node 61)
	maximum = 0.016 (at node 43)
Accepted flit rate average= 0.00975
	minimum = 0.003 (at node 0)
	maximum = 0.022 (at node 13)
Injected packet length average = 1
Accepted packet length average = 1
Total in-flight flits = 29 (29 measured)
latency change    = 0.043687
throughput change = 0.0352564
Class 0:
Packet latency average = 34.3066
	minimum = 7
	maximum = 80
Network latency average = 34.3066
	minimum = 7
	maximum = 80
Slowest packet = 29120
Flit latency average = 34.3353
	minimum = 7
	maximum = 80
Slowest flit = 29120
Fragmentation average = 0
	minimum = 0
	maximum = 0
Injected packet rate average = 0.0105078
	minimum = 0.0045 (at node 18)
	maximum = 0.015 (at node 48)
Accepted packet rate average = 0.0104844
	minimum = 0.006 (at node 55)
	maximum = 0.0195 (at node 13)
Injected flit rate average = 0.0105078
	minimum = 0.0045 (at node 18)
	maximum = 0.015 (at node 48)
Accepted flit rate average= 0.0104844
	minimum = 0.006 (at node 55)
	maximum = 0.0195 (at node 13)
Injected packet length average = 1
Accepted packet length average = 1
Total in-flight flits = 21 (21 measured)
latency change    = 0.00972457
throughput change = 0.0700447
Class 0:
Packet latency average = 34.1362
	minimum = 7
	maximum = 80
Network latency average = 34.1362
	minimum = 7
	maximum = 80
Slowest packet = 29120
Flit latency average = 34.1566
	minimum = 7
	maximum = 80
Slowest flit = 29120
Fragmentation average = 0
	minimum = 0
	maximum = 0
Injected packet rate average = 0.0106198
	minimum = 0.007 (at node 32)
	maximum = 0.0143333 (at node 25)
Accepted packet rate average = 0.0106094
	minimum = 0.00566667 (at node 48)
	maximum = 0.0173333 (at node 13)
Injected flit rate average = 0.0106198
	minimum = 0.007 (at node 32)
	maximum = 0.0143333 (at node 25)
Accepted flit rate average= 0.0106094
	minimum = 0.00566667 (at node 48)
	maximum = 0.0173333 (at node 13)
Injected packet length average = 1
Accepted packet length average = 1
Total in-flight flits = 20 (20 measured)
latency change    = 0.00499295
throughput change = 0.011782
Class 0:
Packet latency average = 34.2371
	minimum = 7
	maximum = 80
Network latency average = 34.2371
	minimum = 7
	maximum = 80
Slowest packet = 29120
Flit latency average = 34.2522
	minimum = 7
	maximum = 80
Slowest flit = 29120
Fragmentation average = 0
	minimum = 0
	maximum = 0
Injected packet rate average = 0.0103008
	minimum = 0.007 (at node 31)
	maximum = 0.014 (at node 25)
Accepted packet rate average = 0.0102852
	minimum = 0.0055 (at node 28)
	maximum = 0.0155 (at node 13)
Injected flit rate average = 0.0103008
	minimum = 0.007 (at node 31)
	maximum = 0.014 (at node 25)
Accepted flit rate average= 0.0102852
	minimum = 0.0055 (at node 28)
	maximum = 0.0155 (at node 13)
Injected packet length average = 1
Accepted packet length average = 1
Total in-flight flits = 22 (22 measured)
latency change    = 0.00294674
throughput change = 0.031523
Class 0:
Packet latency average = 34.292
	minimum = 7
	maximum = 80
Network latency average = 34.292
	minimum = 7
	maximum = 80
Slowest packet = 29120
Flit latency average = 34.3038
	minimum = 7
	maximum = 80
Slowest flit = 29120
Fragmentation average = 0
	minimum = 0
	maximum = 0
Injected packet rate average = 0.0102688
	minimum = 0.0064 (at node 31)
	maximum = 0.0134 (at node 22)
Accepted packet rate average = 0.0102562
	minimum = 0.0054 (at node 48)
	maximum = 0.0144 (at node 13)
Injected flit rate average = 0.0102688
	minimum = 0.0064 (at node 31)
	maximum = 0.0134 (at node 22)
Accepted flit rate average= 0.0102562
	minimum = 0.0054 (at node 48)
	maximum = 0.0144 (at node 13)
Injected packet length average = 1
Accepted packet length average = 1
Total in-flight flits = 22 (22 measured)
latency change    = 0.00160036
throughput change = 0.0028184
Draining all recorded packets ...
Draining remaining packets ...
Time taken is 8116 cycles
Class 0:
Packet latency average = 32.7896
	minimum = 7
	maximum = 72
Network latency average = 32.7896
	minimum = 7
	maximum = 72
Slowest packet = 31727
Flit latency average = 32.7896
	minimum = 7
	maximum = 72
Slowest flit = 31727
Fragmentation average = 0
	minimum = 0
	maximum = 0
Injected packet rate average = 0.00929687
	minimum = 0.005 (at node 14)
	maximum = 0.017 (at node 39)
Accepted packet rate average = 0.00898437
	minimum = 0.002 (at node 54)
	maximum = 0.016 (at node 51)
Injected flit rate average = 0.00929687
	minimum = 0.005 (at node 14)
	maximum = 0.017 (at node 39)
Accepted flit rate average= 0.00898437
	minimum = 0.002 (at node 54)
	maximum = 0.016 (at node 51)
Injected packet length average = 1
Accepted packet length average = 1
Total in-flight flits = 20 (0 measured)
latency change    = 1
throughput change = 1
Class 0:
Packet latency average = 33.1415
	minimum = 7
	maximum = 83
Network latency average = 33.1415
	minimum = 7
	maximum = 83
Slowest packet = 32239
Flit latency average = 33.1415
	minimum = 7
	maximum = 83
Slowest flit = 32239
Fragmentation average = 0
	minimum = 0
	maximum = 0
Injected packet rate average = 0.0095
	minimum = 0.006 (at node 11)
	maximum = 0.0145 (at node 57)
Accepted packet rate average = 0.00932812
	minimum = 0.0045 (at node 23)
	maximum = 0.014 (at node 30)
Injected flit rate average = 0.0095
	minimum = 0.006 (at node 11)
	maximum = 0.0145 (at node 57)
Accepted flit rate average= 0.00932812
	minimum = 0.0045 (at node 23)
	maximum = 0.014 (at node 30)
Injected packet length average = 1
Accepted packet length average = 1
Total in-flight flits = 22 (0 measured)
latency change    = 0.0106204
throughput change = 0.0368509
Class 0:
Packet latency average = 33.6352
	minimum = 7
	maximum = 81
Network latency average = 33.6352
	minimum = 7
	maximum = 81
Slowest packet = 32894
Flit latency average = 33.6352
	minimum = 7
	maximum = 81
Slowest flit = 32894
Fragmentation average = 0
	minimum = 0
	maximum = 0
Injected packet rate average = 0.00951562
	minimum = 0.004 (at node 17)
	maximum = 0.015 (at node 2)
Accepted packet rate average = 0.00942187
	minimum = 0.002 (at node 8)
	maximum = 0.017 (at node 61)
Injected flit rate average = 0.00951562
	minimum = 0.004 (at node 17)
	maximum = 0.015 (at node 2)
Accepted flit rate average= 0.00942187
	minimum = 0.002 (at node 8)
	maximum = 0.017 (at node 61)
Injected packet length average = 1
Accepted packet length average = 1
Total in-flight flits = 28 (0 measured)
latency change    = 0.0146756
throughput change = 0.00995025
Warmed up ...Time used is 3000 cycles
Class 0:
Packet latency average = 32.6705
	minimum = 7
	maximum = 72
Network latency average = 32.6705
	minimum = 7
	maximum = 72
Slowest packet = 33848
Flit latency average = 33.0157
	minimum = 7
	maximum = 75
Slowest flit = 33426
Fragmentation average = 0
	minimum = 0
	maximum = 0
Injected packet rate average = 0.01
	minimum = 0.002 (at node 4)
	maximum = 0.017 (at node 23)
Accepted packet rate average = 0.00996875
	minimum = 0.005 (at node 4)
	maximum = 0.019 (at node 11)
Injected flit rate average = 0.01
	minimum = 0.002 (at node 4)
	maximum = 0.017 (at node 23)
Accepted flit rate average= 0.00996875
	minimum = 0.005 (at node 4)
	maximum = 0.019 (at node 11)
Injected packet length average = 1
Accepted packet length average = 1
Total in-flight flits = 30 (30 measured)
latency change    = 0.0295271
throughput change = 0.0548589
Class 0:
Packet latency average = 33.4996
	minimum = 7
	maximum = 75
Network latency average = 33.4996
	minimum = 7
	maximum = 75
Slowest packet = 34461
Flit latency average = 33.6522
	minimum = 7
	maximum = 75
Slowest flit = 33426
Fragmentation average = 0
	minimum = 0
	maximum = 0
Injected packet rate average = 0.01
	minimum = 0.005 (at node 51)
	maximum = 0.015 (at node 23)
Accepted packet rate average = 0.0100859
	minimum = 0.0045 (at node 40)
	maximum = 0.0155 (at node 3)
Injected flit rate average = 0.01
	minimum = 0.005 (at node 51)
	maximum = 0.015 (at node 23)
Accepted flit rate average= 0.0100859
	minimum = 0.0045 (at node 40)
	maximum = 0.0155 (at node 3)
Injected packet length average = 1
Accepted packet length average = 1
Total in-flight flits = 17 (17 measured)
latency change    = 0.0247499
throughput change = 0.0116189
Class 0:
Packet latency average = 33.6999
	minimum = 7
	maximum = 77
Network latency average = 33.6999
	minimum = 7
	maximum = 77
Slowest packet = 35272
Flit latency average = 33.7981
	minimum = 7
	maximum = 77
Slowest flit = 35272
Fragmentation average = 0
	minimum = 0
	maximum = 0
Injected packet rate average = 0.010099
	minimum = 0.005 (at node 51)
	maximum = 0.014 (at node 36)
Accepted packet rate average = 0.0101615
	minimum = 0.00666667 (at node 14)
	maximum = 0.0143333 (at node 10)
Injected flit rate average = 0.010099
	minimum = 0.005 (at node 51)
	maximum = 0.014 (at node 36)
Accepted flit rate average= 0.0101615
	minimum = 0.00666667 (at node 14)
	maximum = 0.0143333 (at node 10)
Injected packet length average = 1
Accepted packet length average = 1
Total in-flight flits = 16 (16 measured)
latency change    = 0.00594493
throughput change = 0.00743209
Class 0:
Packet latency average = 33.7227
	minimum = 7
	maximum = 77
Network latency average = 33.7227
	minimum = 7
	maximum = 77
Slowest packet = 35272
Flit latency average = 33.7967
	minimum = 7
	maximum = 77
Slowest flit = 35272
Fragmentation average = 0
	minimum = 0
	maximum = 0
Injected packet rate average = 0.0100469
	minimum = 0.006 (at node 51)
	maximum = 0.0135 (at node 36)
Accepted packet rate average = 0.0100703
	minimum = 0.00775 (at node 0)
	maximum = 0.014 (at node 3)
Injected flit rate average = 0.0100469
	minimum = 0.006 (at node 51)
	maximum = 0.0135 (at node 36)
Accepted flit rate average= 0.0100703
	minimum = 0.00775 (at node 0)
	maximum = 0.014 (at node 3)
Injected packet length average = 1
Accepted packet length average = 1
Total in-flight flits = 22 (22 measured)
latency change    = 0.000676016
throughput change = 0.00905094
Draining all recorded packets ...
Draining remaining packets ...
Time taken is 7112 cycles
Class 0:
Packet latency average = 33.5712
	minimum = 7
	maximum = 82
Network latency average = 33.5712
	minimum = 7
	maximum = 82
Slowest packet = 36678
Flit latency average = 33.5712
	minimum = 7
	maximum = 82
Slowest flit = 36678
Fragmentation average = 0
	minimum = 0
	maximum = 0
Injected packet rate average = 0.0103125
	minimum = 0.003 (at node 28)
	maximum = 0.016 (at node 0)
Accepted packet rate average = 0.00998438
	minimum = 0.004 (at node 12)
	maximum = 0.016 (at node 3)
Injected flit rate average = 0.0103125
	minimum = 0.003 (at node 28)
	maximum = 0.016 (at node 0)
Accepted flit rate average= 0.00998438
	minimum = 0.004 (at node 12)
	maximum = 0.016 (at node 3)
Injected packet length average = 1
Accepted packet length average = 1
Total in-flight flits = 21 (0 measured)
latency change    = 1
throughput change = 1
Class 0:
Packet latency average = 33.791
	minimum = 7
	maximum = 82
Network latency average = 33.791
	minimum = 7
	maximum = 82
Slowest packet = 36678
Flit latency average = 33.791
	minimum = 7
	maximum = 82
Slowest flit = 36678
Fragmentation average = 0
	minimum = 0
	maximum = 0
Injected packet rate average = 0.0102266
	minimum = 0.0065 (at node 2)
	maximum = 0.016 (at node 30)
Accepted packet rate average = 0.0100547
	minimum = 0.0045 (at node 21)
	maximum = 0.0145 (at node 16)
Injected flit rate average = 0.0102266
	minimum = 0.0065 (at node 2)
	maximum = 0.016 (at node 30)
Accepted flit rate average= 0.0100547
	minimum = 0.0045 (at node 21)
	maximum = 0.0145 (at node 16)
Injected packet length average = 1
Accepted packet length average = 1
Total in-flight flits = 22 (0 measured)
latency change    = 0.00650415
throughput change = 0.00699301
Class 0:
Packet latency average = 32.6211
	minimum = 7
	maximum = 73
Network latency average = 32.6211
	minimum = 7
	maximum = 73
Slowest packet = 37743
Flit latency average = 32.6211
	minimum = 7
	maximum = 73
Slowest flit = 37743
Fragmentation average = 0
	minimum = 0
	maximum = 0
Injected packet rate average = 0.0103594
	minimum = 0.003 (at node 54)
	maximum = 0.019 (at node 5)
Accepted packet rate average = 0.0103906
	minimum = 0.004 (at node 6)
	maximum = 0.018 (at node 53)
Injected flit rate average = 0.0103594
	minimum = 0.003 (at node 54)
	maximum = 0.019 (at node 5)
Accepted flit rate average= 0.0103906
	minimum = 0.004 (at node 6)
	maximum = 0.018 (at node 53)
Injected packet length average = 1
Accepted packet length average = 1
Total in-flight flits = 20 (0 measured)
latency change    = 0.0358644
throughput change = 0.0323308
Warmed up ...Time used is 3000 cycles
Class 0:
Packet latency average = 33.152
	minimum = 7
	maximum = 72
Network latency average = 33.152
	minimum = 7
	maximum = 72
Slowest packet = 38354
Flit latency average = 33.3085
	minimum = 7
	maximum = 72
Slowest flit = 38036
Fragmentation average = 0
	minimum = 0
	maximum = 0
Injected packet rate average = 0.00979688
	minimum = 0.004 (at node 55)
	maximum = 0.017 (at node 51)
Accepted packet rate average = 0.009875
	minimum = 0.004 (at node 0)
	maximum = 0.018 (at node 58)
Injected flit rate average = 0.00979688
	minimum = 0.004 (at node 55)
	maximum = 0.017 (at node 51)
Accepted flit rate average= 0.009875
	minimum = 0.004 (at node 0)
	maximum = 0.018 (at node 58)
Injected packet length average = 1
Accepted packet length average = 1
Total in-flight flits = 15 (15 measured)
latency change    = 0.0160144
throughput change = 0.0522152
Class 0:
Packet latency average = 33.5718
	minimum = 7
	maximum = 75
Network latency average = 33.5718
	minimum = 7
	maximum = 75
Slowest packet = 38835
Flit latency average = 33.6449
	minimum = 7
	maximum = 75
Slowest flit = 38835
Fragmentation average = 0
	minimum = 0
	maximum = 0
Injected packet rate average = 0.00973437
	minimum = 0.0045 (at node 37)
	maximum = 0.014 (at node 60)
Accepted packet rate average = 0.00967969
	minimum = 0.0055 (at node 61)
	maximum = 0.014 (at node 27)
Injected flit rate average = 0.00973437
	minimum = 0.0045 (at node 37)
	maximum = 0.014 (at node 60)
Accepted flit rate average= 0.00967969
	minimum = 0.0055 (at node 61)
	maximum = 0.014 (at node 27)
Injected packet length average = 1
Accepted packet length average = 1
Total in-flight flits = 27 (27 measured)
latency change    = 0.0125051
throughput change = 0.0201776
Class 0:
Packet latency average = 33.7175
	minimum = 7
	maximum = 79
Network latency average = 33.7175
	minimum = 7
	maximum = 79
Slowest packet = 39895
Flit latency average = 33.763
	minimum = 7
	maximum = 79
Slowest flit = 39895
Fragmentation average = 0
	minimum = 0
	maximum = 0
Injected packet rate average = 0.0100365
	minimum = 0.005 (at node 37)
	maximum = 0.013 (at node 31)
Accepted packet rate average = 0.0100417
	minimum = 0.00666667 (at node 46)
	maximum = 0.013 (at node 56)
Injected flit rate average = 0.0100365
	minimum = 0.005 (at node 37)
	maximum = 0.013 (at node 31)
Accepted flit rate average= 0.0100417
	minimum = 0.00666667 (at node 46)
	maximum = 0.013 (at node 56)
Injected packet length average = 1
Accepted packet length average = 1
Total in-flight flits = 19 (19 measured)
latency change    = 0.00432194
throughput change = 0.0360477
Class 0:
Packet latency average = 33.6611
	minimum = 7
	maximum = 79
Network latency average = 33.6611
	minimum = 7
	maximum = 79
Slowest packet = 39895
Flit latency average = 33.6952
	minimum = 7
	maximum = 79
Slowest flit = 39895
Fragmentation average = 0
	minimum = 0
	maximum = 0
Injected packet rate average = 0.0101875
	minimum = 0.0065 (at node 62)
	maximum = 0.01275 (at node 36)
Accepted packet rate average = 0.0101875
	minimum = 0.00725 (at node 46)
	maximum = 0.013 (at node 33)
Injected flit rate average = 0.0101875
	minimum = 0.0065 (at node 62)
	maximum = 0.01275 (at node 36)
Accepted flit rate average= 0.0101875
	minimum = 0.00725 (at node 46)
	maximum = 0.013 (at node 33)
Injected packet length average = 1
Accepted packet length average = 1
Total in-flight flits = 20 (20 measured)
latency change    = 0.00167484
throughput change = 0.0143149
Draining all recorded packets ...
Draining remaining packets ...
Time taken is 7102 cycles
Class 0:
Packet latency average = 32.5518
	minimum = 7
	maximum = 73
Network latency average = 32.5518
	minimum = 7
	maximum = 73
Slowest packet = 41232
Flit latency average = 32.5518
	minimum = 7
	maximum = 73
Slowest flit = 41232
Fragmentation average = 0
	minimum = 0
	maximum = 0
Injected packet rate average = 0.00960937
	minimum = 0.002 (at node 48)
	maximum = 0.018 (at node 40)
Accepted packet rate average = 0.00920312
	minimum = 0.004 (at node 4)
	maximum = 0.017 (at node 22)
Injected flit rate average = 0.00960937
	minimum = 0.002 (at node 48)
	maximum = 0.018 (at node 40)
Accepted flit rate average= 0.00920312
	minimum = 0.004 (at node 4)
	maximum = 0.017 (at node 22)
Injected packet length average = 1
Accepted packet length average = 1
Total in-flight flits = 26 (0 measured)
latency change    = 1
throughput change = 1
Class 0:
Packet latency average = 33.1519
	minimum = 7
	maximum = 73
Network latency average = 33.1519
	minimum = 7
	maximum = 73
Slowest packet = 41232
Flit latency average = 33.1519
	minimum = 7
	maximum = 73
Slowest flit = 41232
Fragmentation average = 0
	minimum = 0
	maximum = 0
Injected packet rate average = 0.00989063
	minimum = 0.005 (at node 14)
	maximum = 0.015 (at node 6)
Accepted packet rate average = 0.00977344
	minimum = 0.005 (at node 4)
	maximum = 0.0155 (at node 8)
Injected flit rate average = 0.00989063
	minimum = 0.005 (at node 14)
	maximum = 0.015 (at node 6)
Accepted flit rate average= 0.00977344
	minimum = 0.005 (at node 4)
	maximum = 0.0155 (at node 8)
Injected packet length average = 1
Accepted packet length average = 1
Total in-flight flits = 15 (0 measured)
latency change    = 0.0181014
throughput change = 0.0583533
Class 0:
Packet latency average = 34.0734
	minimum = 7
	maximum = 77
Network latency average = 34.0734
	minimum = 7
	maximum = 77
Slowest packet = 42502
Flit latency average = 34.0734
	minimum = 7
	maximum = 77
Slowest flit = 42502
Fragmentation average = 0
	minimum = 0
	maximum = 0
Injected packet rate average = 0.0104844
	minimum = 0.004 (at node 41)
	maximum = 0.021 (at node 61)
Accepted packet rate average = 0.0102188
	minimum = 0.004 (at node 16)
	maximum = 0.018 (at node 25)
Injected flit rate average = 0.0104844
	minimum = 0.004 (at node 41)
	maximum = 0.021 (at node 61)
Accepted flit rate average= 0.0102188
	minimum = 0.004 (at node 16)
	maximum = 0.018 (at node 25)
Injected packet length average = 1
Accepted packet length average = 1
Total in-flight flits = 32 (0 measured)
latency change    = 0.027045
throughput change = 0.043578
Warmed up ...Time used is 3000 cycles
Class 0:
Packet latency average = 33.1238
	minimum = 7
	maximum = 76
Network latency average = 33.1238
	minimum = 7
	maximum = 76
Slowest packet = 42641
Flit latency average = 33.4706
	minimum = 7
	maximum = 76
Slowest flit = 42641
Fragmentation average = 0
	minimum = 0
	maximum = 0
Injected packet rate average = 0.00984375
	minimum = 0.004 (at node 43)
	maximum = 0.018 (at node 30)
Accepted packet rate average = 0.0100938
	minimum = 0.003 (at node 9)
	maximum = 0.02 (at node 0)
Injected flit rate average = 0.00984375
	minimum = 0.004 (at node 43)
	maximum = 0.018 (at node 30)
Accepted flit rate average= 0.0100938
	minimum = 0.003 (at node 9)
	maximum = 0.02 (at node 0)
Injected packet length average = 1
Accepted packet length average = 1
Total in-flight flits = 16 (16 measured)
latency change    = 0.0286687
throughput change = 0.0123839
Class 0:
Packet latency average = 33.5146
	minimum = 7
	maximum = 77
Network latency average = 33.5146
	minimum = 7
	maximum = 77
Slowest packet = 43277
Flit latency average = 33.678
	minimum = 7
	maximum = 77
Slowest flit = 43277
Fragmentation average = 0
	minimum = 0
	maximum = 0
Injected packet rate average = 0.0100313
	minimum = 0.005 (at node 48)
	maximum = 0.015 (at node 30)
Accepted packet rate average = 0.0101172
	minimum = 0.005 (at node 9)
	maximum = 0.0145 (at node 22)
Injected flit rate average = 0.0100313
	minimum = 0.005 (at node 48)
	maximum = 0.015 (at node 30)
Accepted flit rate average= 0.0101172
	minimum = 0.005 (at node 9)
	maximum = 0.0145 (at node 22)
Injected packet length average = 1
Accepted packet length average = 1
Total in-flight flits = 21 (21 measured)
latency change    = 0.0116626
throughput change = 0.0023166
Class 0:
Packet latency average = 33.3034
	minimum = 7
	maximum = 77
Network latency average = 33.3034
	minimum = 7
	maximum = 77
Slowest packet = 43277
Flit latency average = 33.4176
	minimum = 7
	maximum = 77
Slowest flit = 43277
Fragmentation average = 0
	minimum = 0
	maximum = 0
Injected packet rate average = 0.00992188
	minimum = 0.006 (at node 59)
	maximum = 0.0143333 (at node 25)
Accepted packet rate average = 0.00995313
	minimum = 0.006 (at node 30)
	maximum = 0.0133333 (at node 8)
Injected flit rate average = 0.00992188
	minimum = 0.006 (at node 59)
	maximum = 0.0143333 (at node 25)
Accepted flit rate average= 0.00995313
	minimum = 0.006 (at node 30)
	maximum = 0.0133333 (at node 8)
Injected packet length average = 1
Accepted packet length average = 1
Total in-flight flits = 26 (26 measured)
latency change    = 0.00634455
throughput change = 0.0164835
Draining all recorded packets ...
Draining remaining packets ...
Time taken is 6111 cycles
Class 0:
Packet latency average = 33.0047
	minimum = 7
	maximum = 68
Network latency average = 33.0047
	minimum = 7
	maximum = 68
Slowest packet = 45160
Flit latency average = 33.0047
	minimum = 7
	maximum = 68
Slowest flit = 45160
Fragmentation average = 0
	minimum = 0
	maximum = 0
Injected packet rate average = 0.0102813
	minimum = 0.005 (at node 20)
	maximum = 0.017 (at node 10)
Accepted packet rate average = 0.009875
	minimum = 0.003 (at node 27)
	maximum = 0.017 (at node 34)
Injected flit rate average = 0.0102813
	minimum = 0.005 (at node 20)
	maximum = 0.017 (at node 10)
Accepted flit rate average= 0.009875
	minimum = 0.003 (at node 27)
	maximum = 0.017 (at node 34)
Injected packet length average = 1
Accepted packet length average = 1
Total in-flight flits = 26 (0 measured)
latency change    = 1
throughput change = 1
Class 0:
Packet latency average = 33.4157
	minimum = 7
	maximum = 77
Network latency average = 33.4157
	minimum = 7
	maximum = 77
Slowest packet = 45383
Flit latency average = 33.4157
	minimum = 7
	maximum = 77
Slowest flit = 45383
Fragmentation average = 0
	minimum = 0
	maximum = 0
Injected packet rate average = 0.0100313
	minimum = 0.005 (at node 26)
	maximum = 0.0185 (at node 10)
Accepted packet rate average = 0.00986719
	minimum = 0.004 (at node 6)
	maximum = 0.017 (at node 47)
Injected flit rate average = 0.0100313
	minimum = 0.005 (at node 26)
	maximum = 0.0185 (at node 10)
Accepted flit rate average= 0.00986719
	minimum = 0.004 (at node 6)
	maximum = 0.017 (at node 47)
Injected packet length average = 1
Accepted packet length average = 1
Total in-flight flits = 21 (0 measured)
latency change    = 0.0122975
throughput change = 0.000791766
Class 0:
Packet latency average = 33.6526
	minimum = 7
	maximum = 74
Network latency average = 33.6526
	minimum = 7
	maximum = 74
Slowest packet = 46347
Flit latency average = 33.6526
	minimum = 7
	maximum = 74
Slowest flit = 46347
Fragmentation average = 0
	minimum = 0
	maximum = 0
Injected packet rate average = 0.0095625
	minimum = 0.003 (at node 30)
	maximum = 0.016 (at node 27)
Accepted packet rate average = 0.009625
	minimum = 0.004 (at node 15)
	maximum = 0.017 (at node 18)
Injected flit rate average = 0.0095625
	minimum = 0.003 (at node 30)
	maximum = 0.016 (at node 27)
Accepted flit rate average= 0.009625
	minimum = 0.004 (at node 15)
	maximum = 0.017 (at node 18)
Injected packet length average = 1
Accepted packet length average = 1
Total in-flight flits = 17 (0 measured)
latency change    = 0.00704018
throughput change = 0.0251623
Warmed up ...Time used is 3000 cycles
Class 0:
Packet latency average = 32.3438
	minimum = 7
	maximum = 72
Network latency average = 32.3438
	minimum = 7
	maximum = 72
Slowest packet = 46845
Flit latency average = 32.6254
	minimum = 7
	maximum = 72
Slowest flit = 46451
Fragmentation average = 0
	minimum = 0
	maximum = 0
Injected packet rate average = 0.01025
	minimum = 0.005 (at node 11)
	maximum = 0.016 (at node 13)
Accepted packet rate average = 0.0102188
	minimum = 0.004 (at node 7)
	maximum = 0.019 (at node 54)
Injected flit rate average = 0.01025
	minimum = 0.005 (at node 11)
	maximum = 0.016 (at node 13)
Accepted flit rate average= 0.0102188
	minimum = 0.004 (at node 7)
	maximum = 0.019 (at node 54)
Injected packet length average = 1
Accepted packet length average = 1
Total in-flight flits = 19 (19 measured)
latency change    = 0.0404652
throughput change = 0.058104
Class 0:
Packet latency average = 32.9726
	minimum = 7
	maximum = 72
Network latency average = 32.9726
	minimum = 7
	maximum = 72
Slowest packet = 46845
Flit latency average = 33.1067
	minimum = 7
	maximum = 72
Slowest flit = 46451
Fragmentation average = 0
	minimum = 0
	maximum = 0
Injected packet rate average = 0.0100859
	minimum = 0.0045 (at node 0)
	maximum = 0.0155 (at node 48)
Accepted packet rate average = 0.0101016
	minimum = 0.006 (at node 31)
	maximum = 0.015 (at node 34)
Injected flit rate average = 0.0100859
	minimum = 0.0045 (at node 0)
	maximum = 0.0155 (at node 48)
Accepted flit rate average= 0.0101016
	minimum = 0.006 (at node 31)
	maximum = 0.015 (at node 34)
Injected packet length average = 1
Accepted packet length average = 1
Total in-flight flits = 15 (15 measured)
latency change    = 0.0190695
throughput change = 0.0116009
Class 0:
Packet latency average = 33.1712
	minimum = 7
	maximum = 72
Network latency average = 33.1712
	minimum = 7
	maximum = 72
Slowest packet = 46845
Flit latency average = 33.2601
	minimum = 7
	maximum = 72
Slowest flit = 46451
Fragmentation average = 0
	minimum = 0
	maximum = 0
Injected packet rate average = 0.0100052
	minimum = 0.005 (at node 38)
	maximum = 0.014 (at node 48)
Accepted packet rate average = 0.00997396
	minimum = 0.00666667 (at node 31)
	maximum = 0.0146667 (at node 2)
Injected flit rate average = 0.0100052
	minimum = 0.005 (at node 38)
	maximum = 0.014 (at node 48)
Accepted flit rate average= 0.00997396
	minimum = 0.00666667 (at node 31)
	maximum = 0.0146667 (at node 2)
Injected packet length average = 1
Accepted packet length average = 1
Total in-flight flits = 23 (23 measured)
latency change    = 0.00598899
throughput change = 0.0127937
Class 0:
Packet latency average = 33.4649
	minimum = 7
	maximum = 77
Network latency average = 33.4649
	minimum = 7
	maximum = 77
Slowest packet = 48526
Flit latency average = 33.5296
	minimum = 7
	maximum = 77
Slowest flit = 48526
Fragmentation average = 0
	minimum = 0
	maximum = 0
Injected packet rate average = 0.00994922
	minimum = 0.00675 (at node 38)
	maximum = 0.01325 (at node 8)
Accepted packet rate average = 0.00996484
	minimum = 0.0055 (at node 31)
	maximum = 0.0135 (at node 34)
Injected flit rate average = 0.00994922
	minimum = 0.00675 (at node 38)
	maximum = 0.01325 (at node 8)
Accepted flit rate average= 0.00996484
	minimum = 0.0055 (at node 31)
	maximum = 0.0135 (at node 34)
Injected packet length average = 1
Accepted packet length average = 1
Total in-flight flits = 13 (13 measured)
latency change    = 0.00877472
throughput change = 0.000914674
Draining all recorded packets ...
Draining remaining packets ...
Time taken is 7083 cycles
Class 0:
Packet latency average = 33.4619
	minimum = 7
	maximum = 77
Network latency average = 33.4619
	minimum = 7
	maximum = 77
Slowest packet = 49622
Flit latency average = 33.4619
	minimum = 7
	maximum = 77
Slowest flit = 49622
Fragmentation average = 0
	minimum = 0
	maximum = 0
Injected packet rate average = 0.0102188
	minimum = 0.002 (at node 31)
	maximum = 0.021 (at node 51)
Accepted packet rate average = 0.00984375
	minimum = 0.003 (at node 50)
	maximum = 0.016 (at node 48)
Injected flit rate average = 0.0102188
	minimum = 0.002 (at node 31)
	maximum = 0.021 (at node 51)
Accepted flit rate average= 0.00984375
	minimum = 0.003 (at node 50)
	maximum = 0.016 (at node 48)
Injected packet length average = 1
Accepted packet length average = 1
Total in-flight flits = 24 (0 measured)
latency change    = 1
throughput change = 1
Class 0:
Packet latency average = 33.4838
	minimum = 7
	maximum = 77
Network latency average = 33.4838
	minimum = 7
	maximum = 77
Slowest packet = 49622
Flit latency average = 33.4838
	minimum = 7
	maximum = 77
Slowest flit = 49622
Fragmentation average = 0
	minimum = 0
	maximum = 0
Injected packet rate average = 0.0103047
	minimum = 0.005 (at node 20)
	maximum = 0.017 (at node 44)
Accepted packet rate average = 0.0101406
	minimum = 0.005 (at node 16)
	maximum = 0.0145 (at node 54)
Injected flit rate average = 0.0103047
	minimum = 0.005 (at node 20)
	maximum = 0.017 (at node 44)
Accepted flit rate average= 0.0101406
	minimum = 0.005 (at node 16)
	maximum = 0.0145 (at node 54)
Injected packet length average = 1
Accepted packet length average = 1
Total in-flight flits = 21 (0 measured)
latency change    = 0.00065454
throughput change = 0.0292758
Class 0:
Packet latency average = 33.8835
	minimum = 7
	maximum = 77
Network latency average = 33.8835
	minimum = 7
	maximum = 77
Slowest packet = 50352
Flit latency average = 33.8835
	minimum = 7
	maximum = 77
Slowest flit = 50352
Fragmentation average = 0
	minimum = 0
	maximum = 0
Injected packet rate average = 0.00985938
	minimum = 0.003 (at node 52)
	maximum = 0.018 (at node 12)
Accepted packet rate average = 0.00992188
	minimum = 0.004 (at node 4)
	maximum = 0.018 (at node 30)
Injected flit rate average = 0.00985938
	minimum = 0.003 (at node 52)
	maximum = 0.018 (at node 12)
Accepted flit rate average= 0.00992188
	minimum = 0.004 (at node 4)
	maximum = 0.018 (at node 30)
Injected packet length average = 1
Accepted packet length average = 1
Total in-flight flits = 17 (0 measured)
latency change    = 0.0117946
throughput change = 0.0220472
Warmed up ...Time used is 3000 cycles
Class 0:
Packet latency average = 33.5645
	minimum = 7
	maximum = 72
Network latency average = 33.5645
	minimum = 7
	maximum = 72
Slowest packet = 51117
Flit latency average = 33.6678
	minimum = 7
	maximum = 72
Slowest flit = 50972
Fragmentation average = 0
	minimum = 0
	maximum = 0
Injected packet rate average = 0.00971875
	minimum = 0.004 (at node 50)
	maximum = 0.018 (at node 1)
Accepted packet rate average = 0.00959375
	minimum = 0.004 (at node 41)
	maximum = 0.016 (at node 1)
Injected flit rate average = 0.00971875
	minimum = 0.004 (at node 50)
	maximum = 0.018 (at node 1)
Accepted flit rate average= 0.00959375
	minimum = 0.004 (at node 41)
	maximum = 0.016 (at node 1)
Injected packet length average = 1
Accepted packet length average = 1
Total in-flight flits = 25 (25 measured)
latency change    = 0.00950336
throughput change = 0.034202
Class 0:
Packet latency average = 33.306
	minimum = 7
	maximum = 77
Network latency average = 33.306
	minimum = 7
	maximum = 77
Slowest packet = 52066
Flit latency average = 33.3614
	minimum = 7
	maximum = 77
Slowest flit = 52066
Fragmentation average = 0
	minimum = 0
	maximum = 0
Injected packet rate average = 0.00960937
	minimum = 0.0055 (at node 22)
	maximum = 0.0145 (at node 1)
Accepted packet rate average = 0.00955469
	minimum = 0.005 (at node 41)
	maximum = 0.014 (at node 20)
Injected flit rate average = 0.00960937
	minimum = 0.0055 (at node 22)
	maximum = 0.0145 (at node 1)
Accepted flit rate average= 0.00955469
	minimum = 0.005 (at node 41)
	maximum = 0.014 (at node 20)
Injected packet length average = 1
Accepted packet length average = 1
Total in-flight flits = 24 (24 measured)
latency change    = 0.00776194
throughput change = 0.00408831
Class 0:
Packet latency average = 33.4116
	minimum = 7
	maximum = 77
Network latency average = 33.4116
	minimum = 7
	maximum = 77
Slowest packet = 52066
Flit latency average = 33.4474
	minimum = 7
	maximum = 77
Slowest flit = 52066
Fragmentation average = 0
	minimum = 0
	maximum = 0
Injected packet rate average = 0.00958333
	minimum = 0.00566667 (at node 18)
	maximum = 0.0133333 (at node 25)
Accepted packet rate average = 0.00960417
	minimum = 0.00666667 (at node 5)
	maximum = 0.0126667 (at node 53)
Injected flit rate average = 0.00958333
	minimum = 0.00566667 (at node 18)
	maximum = 0.0133333 (at node 25)
Accepted flit rate average= 0.00960417
	minimum = 0.00666667 (at node 5)
	maximum = 0.0126667 (at node 53)
Injected packet length average = 1
Accepted packet length average = 1
Total in-flight flits = 13 (13 measured)
latency change    = 0.00316158
throughput change = 0.00515184
Draining all recorded packets ...
Draining remaining packets ...
Time taken is 6093 cycles
Class 0:
Packet latency average = 33.9651
	minimum = 7
	maximum = 72
Network latency average = 33.9651
	minimum = 7
	maximum = 72
Slowest packet = 53412
Flit latency average = 33.9651
	minimum = 7
	maximum = 72
Slowest flit = 53412
Fragmentation average = 0
	minimum = 0
	maximum = 0
Injected packet rate average = 0.00970312
	minimum = 0.002 (at node 4)
	maximum = 0.015 (at node 35)
Accepted packet rate average = 0.00939062
	minimum = 0.003 (at node 31)
	maximum = 0.016 (at node 34)
Injected flit rate average = 0.00970312
	minimum = 0.002 (at node 4)
	maximum = 0.015 (at node 35)
Accepted flit rate average= 0.00939062
	minimum = 0.003 (at node 31)
	maximum = 0.016 (at node 34)
Injected packet length average = 1
Accepted packet length average = 1
Total in-flight flits = 20 (0 measured)
latency change    = 1
throughput change = 1
Class 0:
Packet latency average = 33.7163
	minimum = 7
	maximum = 84
Network latency average = 33.7163
	minimum = 7
	maximum = 84
Slowest packet = 53843
Flit latency average = 33.7163
	minimum = 7
	maximum = 84
Slowest flit = 53843
Fragmentation average = 0
	minimum = 0
	maximum = 0
Injected packet rate average = 0.00967969
	minimum = 0.005 (at node 50)
	maximum = 0.0135 (at node 23)
Accepted packet rate average = 0.0095
	minimum = 0.0055 (at node 31)
	maximum = 0.0165 (at node 7)
Injected flit rate average = 0.00967969
	minimum = 0.005 (at node 50)
	maximum = 0.0135 (at node 23)
Accepted flit rate average= 0.0095
	minimum = 0.0055 (at node 31)
	maximum = 0.0165 (at node 7)
Injected packet length average = 1
Accepted packet length average = 1
Total in-flight flits = 23 (0 measured)
latency change    = 0.00737849
throughput change = 0.0115132
Class 0:
Packet latency average = 33.7237
	minimum = 7
	maximum = 69
Network latency average = 33.7237
	minimum = 7
	maximum = 69
Slowest packet = 54563
Flit latency average = 33.7237
	minimum = 7
	maximum = 69
Slowest flit = 54563
Fragmentation average = 0
	minimum = 0
	maximum = 0
Injected packet rate average = 0.0103906
	minimum = 0.005 (at node 8)
	maximum = 0.018 (at node 54)
Accepted packet rate average = 0.0102344
	minimum = 0.004 (at node 16)
	maximum = 0.019 (at node 21)
Injected flit rate average = 0.0103906
	minimum = 0.005 (at node 8)
	maximum = 0.018 (at node 54)
Accepted flit rate average= 0.0102344
	minimum = 0.004 (at node 16)
	maximum = 0.019 (at node 21)
Injected packet length average = 1
Accepted packet length average = 1
Total in-flight flits = 33 (0 measured)
latency change    = 0.000218874
throughput change = 0.0717557
Warmed up ...Time used is 3000 cycles
Class 0:
Packet latency average = 33.6854
	minimum = 7
	maximum = 72
Network latency average = 33.6854
	minimum = 7
	maximum = 72
Slowest packet = 54897
Flit latency average = 34.1021
	minimum = 7
	maximum = 75
Slowest flit = 54709
Fragmentation average = 0
	minimum = 0
	maximum = 0
Injected packet rate average = 0.0101094
	minimum = 0.003 (at node 40)
	maximum = 0.018 (at node 8)
Accepted packet rate average = 0.01025
	minimum = 0.006 (at node 12)
	maximum = 0.016 (at node 10)
Injected flit rate average = 0.0101094
	minimum = 0.003 (at node 40)
	maximum = 0.018 (at node 8)
Accepted flit rate average= 0.01025
	minimum = 0.006 (at node 12)
	maximum = 0.016 (at node 10)
Injected packet length average = 1
Accepted packet length average = 1
Total in-flight flits = 24 (24 measured)
latency change    = 0.00113613
throughput change = 0.00152439
Class 0:
Packet latency average = 34.0244
	minimum = 7
	maximum = 78
Network latency average = 34.0244
	minimum = 7
	maximum = 78
Slowest packet = 55753
Flit latency average = 34.2258
	minimum = 7
	maximum = 78
Slowest flit = 55753
Fragmentation average = 0
	minimum = 0
	maximum = 0
Injected packet rate average = 0.0100703
	minimum = 0.006 (at node 25)
	maximum = 0.0135 (at node 6)
Accepted packet rate average = 0.0101719
	minimum = 0.0065 (at node 12)
	maximum = 0.016 (at node 10)
Injected flit rate average = 0.0100703
	minimum = 0.006 (at node 25)
	maximum = 0.0135 (at node 6)
Accepted flit rate average= 0.0101719
	minimum = 0.0065 (at node 12)
	maximum = 0.016 (at node 10)
Injected packet length average = 1
Accepted packet length average = 1
Total in-flight flits = 20 (20 measured)
latency change    = 0.00996447
throughput change = 0.00768049
Class 0:
Packet latency average = 33.9404
	minimum = 7
	maximum = 78
Network latency average = 33.9404
	minimum = 7
	maximum = 78
Slowest packet = 55753
Flit latency average = 34.0742
	minimum = 7
	maximum = 78
Slowest flit = 55753
Fragmentation average = 0
	minimum = 0
	maximum = 0
Injected packet rate average = 0.0102396
	minimum = 0.006 (at node 59)
	maximum = 0.0143333 (at node 32)
Accepted packet rate average = 0.0103125
	minimum = 0.007 (at node 47)
	maximum = 0.016 (at node 51)
Injected flit rate average = 0.0102396
	minimum = 0.006 (at node 59)
	maximum = 0.0143333 (at node 32)
Accepted flit rate average= 0.0103125
	minimum = 0.007 (at node 47)
	maximum = 0.016 (at node 51)
Injected packet length average = 1
Accepted packet length average = 1
Total in-flight flits = 19 (19 measured)
latency change    = 0.00247515
throughput change = 0.0136364
Draining all recorded packets ...
Draining remaining packets ...
Time taken is 6086 cycles
Class 0:
Packet latency average = 33.5585
	minimum = 7
	maximum = 72
Network latency average = 33.5585
	minimum = 7
	maximum = 72
Slowest packet = 57120
Flit latency average = 33.5585
	minimum = 7
	maximum = 72
Slowest flit = 57120
Fragmentation average = 0
	minimum = 0
	maximum = 0
Injected packet rate average = 0.0105469
	minimum = 0.005 (at node 25)
	maximum = 0.02 (at node 63)
Accepted packet rate average = 0.0101563
	minimum = 0.003 (at node 59)
	maximum = 0.021 (at node 1)
Injected flit rate average = 0.0105469
	minimum = 0.005 (at node 25)
	maximum = 0.02 (at node 63)
Accepted flit rate average= 0.0101563
	minimum = 0.003 (at node 59)
	maximum = 0.021 (at node 1)
Injected packet length average = 1
Accepted packet length average = 1
Total in-flight flits = 25 (0 measured)
latency change    = 1
throughput change = 1
Class 0:
Packet latency average = 33.4104
	minimum = 7
	maximum = 77
Network latency average = 33.4104
	minimum = 7
	maximum = 77
Slowest packet = 57937
Flit latency average = 33.4104
	minimum = 7
	maximum = 77
Slowest flit = 57937
Fragmentation average = 0
	minimum = 0
	maximum = 0
Injected packet rate average = 0.0103828
	minimum = 0.006 (at node 25)
	maximum = 0.0165 (at node 46)
Accepted packet rate average = 0.0102031
	minimum = 0.0055 (at node 34)
	maximum = 0.0155 (at node 1)
Injected flit rate average = 0.0103828
	minimum = 0.006 (at node 25)
	maximum = 0.0165 (at node 46)
Accepted flit rate average= 0.0102031
	minimum = 0.0055 (at node 34)
	maximum = 0.0155 (at node 1)
Injected packet length average = 1
Accepted packet length average = 1
Total in-flight flits = 23 (0 measured)
latency change    = 0.0044312
throughput change = 0.00459418
Class 0:
Packet latency average = 33.8244
	minimum = 7
	maximum = 75
Network latency average = 33.8244
	minimum = 7
	maximum = 75
Slowest packet = 58284
Flit latency average = 33.8244
	minimum = 7
	maximum = 75
Slowest flit = 58284
Fragmentation average = 0
	minimum = 0
	maximum = 0
Injected packet rate average = 0.00990625
	minimum = 0.003 (at node 18)
	maximum = 0.018 (at node 42)
Accepted packet rate average = 0.009875
	minimum = 0.002 (at node 33)
	maximum = 0.021 (at node 0)
Injected flit rate average = 0.00990625
	minimum = 0.003 (at node 18)
	maximum = 0.018 (at node 42)
Accepted flit rate average= 0.009875
	minimum = 0.002 (at node 33)
	maximum = 0.021 (at node 0)
Injected packet length average = 1
Accepted packet length average = 1
[...]
	minimum = 0.0045 (at node 25)
	maximum = 0.0165 (at node 7)
Accepted flit rate average= 0.0100156
	minimum = 0.0045 (at node 35)
	maximum = 0.017 (at node 48)
Injected packet length average = 1
Accepted packet length average = 1
Total in-flight flits = 21 (21 measured)
latency change    = 0.0046225
throughput change = 0.0202808
Class 0:
Packet latency average = 33.1594
	minimum = 7
	maximum = 77
Network latency average = 33.1594
	minimum = 7
	maximum = 77
Slowest packet = 409424
Flit latency average = 33.2168
	minimum = 7
	maximum = 77
Slowest flit = 409424
Fragmentation average = 0
	minimum = 0
	maximum = 0
Injected packet rate average = 0.00985417
	minimum = 0.005 (at node 25)
	maximum = 0.0156667 (at node 7)
Accepted packet rate average = 0.009875
	minimum = 0.006 (at node 35)
	maximum = 0.0143333 (at node 48)
Injected flit rate average = 0.00985417
	minimum = 0.005 (at node 25)
	maximum = 0.0156667 (at node 7)
Accepted flit rate average= 0.009875
	minimum = 0.006 (at node 35)
	maximum = 0.0143333 (at node 48)
Injected packet length average = 1
Accepted packet length average = 1
Total in-flight flits = 22 (22 measured)
latency change    = 0.00269289
throughput change = 0.0142405
Draining all recorded packets ...
Draining remaining packets ...
Time taken is 6109 cycles
Class 0:
Packet latency average = 33.8645
	minimum = 7
	maximum = 72
Network latency average = 33.8645
	minimum = 7
	maximum = 72
Slowest packet = 411287
Flit latency average = 33.8645
	minimum = 7
	maximum = 72
Slowest flit = 411287
Fragmentation average = 0
	minimum = 0
	maximum = 0
Injected packet rate average = 0.009625
	minimum = 0.003 (at node 31)
	maximum = 0.02 (at node 13)
Accepted packet rate average = 0.00945312
	minimum = 0.004 (at node 7)
	maximum = 0.017 (at node 57)
Injected flit rate average = 0.009625
	minimum = 0.003 (at node 31)
	maximum = 0.02 (at node 13)
Accepted flit rate average= 0.00945312
	minimum = 0.004 (at node 7)
	maximum = 0.017 (at node 57)
Injected packet length average = 1
Accepted packet length average = 1
Total in-flight flits = 11 (0 measured)
latency change    = 1
throughput change = 1
Class 0:
Packet latency average = 33.6905
	minimum = 7
	maximum = 77
Network latency average = 33.6905
	minimum = 7
	maximum = 77
Slowest packet = 411758
Flit latency average = 33.6905
	minimum = 7
	maximum = 77
Slowest flit = 411758
Fragmentation average = 0
	minimum = 0
	maximum = 0
Injected packet rate average = 0.00982813
	minimum = 0.0045 (at node 40)
	maximum = 0.0165 (at node 5)
Accepted packet rate average = 0.00974219
	minimum = 0.005 (at node 42)
	maximum = 0.015 (at node 10)
Injected flit rate average = 0.00982813
	minimum = 0.0045 (at node 40)
	maximum = 0.0165 (at node 5)
Accepted flit rate average= 0.00974219
	minimum = 0.005 (at node 42)
	maximum = 0.015 (at node 10)
Injected packet length average = 1
Accepted packet length average = 1
Total in-flight flits = 11 (0 measured)
latency change    = 0.00516484
throughput change = 0.0296712
Class 0:
Packet latency average = 33.0141
	minimum = 7
	maximum = 72
Network latency average = 33.0141
	minimum = 7
	maximum = 72
Slowest packet = 412237
Flit latency average = 33.0141
	minimum = 7
	maximum = 72
Slowest flit = 412237
Fragmentation average = 0
	minimum = 0
	maximum = 0
Injected packet rate average = 0.0100625
	minimum = 0.004 (at node 4)
	maximum = 0.021 (at node 34)
Accepted packet rate average = 0.00996875
	minimum = 0.003 (at node 29)
	maximum = 0.017 (at node 51)
Injected flit rate average = 0.0100625
	minimum = 0.004 (at node 4)
	maximum = 0.021 (at node 34)
Accepted flit rate average= 0.00996875
	minimum = 0.003 (at node 29)
	maximum = 0.017 (at node 51)
Injected packet length average = 1
Accepted packet length average = 1
Total in-flight flits = 17 (0 measured)
latency change    = 0.0204867
throughput change = 0.0227273
Warmed up ...Time used is 3000 cycles
Class 0:
Packet latency average = 33.3935
	minimum = 7
	maximum = 75
Network latency average = 33.3935
	minimum = 7
	maximum = 75
Slowest packet = 412896
Flit latency average = 33.5613
	minimum = 7
	maximum = 75
Slowest flit = 412896
Fragmentation average = 0
	minimum = 0
	maximum = 0
Injected packet rate average = 0.0095625
	minimum = 0.004 (at node 6)
	maximum = 0.015 (at node 0)
Accepted packet rate average = 0.0094375
	minimum = 0.003 (at node 9)
	maximum = 0.015 (at node 23)
Injected flit rate average = 0.0095625
	minimum = 0.004 (at node 6)
	maximum = 0.015 (at node 0)
Accepted flit rate average= 0.0094375
	minimum = 0.003 (at node 9)
	maximum = 0.015 (at node 23)
Injected packet length average = 1
Accepted packet length average = 1
Total in-flight flits = 25 (25 measured)
latency change    = 0.0113621
throughput change = 0.0562914
Class 0:
Packet latency average = 33.5492
	minimum = 7
	maximum = 77
Network latency average = 33.5492
	minimum = 7
	maximum = 77
Slowest packet = 413291
Flit latency average = 33.6277
	minimum = 7
	maximum = 77
Slowest flit = 413291
Fragmentation average = 0
	minimum = 0
	maximum = 0
Injected packet rate average = 0.00986719
	minimum = 0.006 (at node 9)
	maximum = 0.014 (at node 39)
Accepted packet rate average = 0.00982031
	minimum = 0.004 (at node 52)
	maximum = 0.0155 (at node 43)
Injected flit rate average = 0.00986719
	minimum = 0.006 (at node 9)
	maximum = 0.014 (at node 39)
Accepted flit rate average= 0.00982031
	minimum = 0.004 (at node 52)
	maximum = 0.0155 (at node 43)
Injected packet length average = 1
Accepted packet length average = 1
Total in-flight flits = 23 (23 measured)
latency change    = 0.00463997
throughput change = 0.0389817
Class 0:
Packet latency average = 33.6452
	minimum = 7
	maximum = 77
Network latency average = 33.6452
	minimum = 7
	maximum = 77
Slowest packet = 413291
Flit latency average = 33.6972
	minimum = 7
	maximum = 77
Slowest flit = 413291
Fragmentation average = 0
	minimum = 0
	maximum = 0
Injected packet rate average = 0.00974479
	minimum = 0.00633333 (at node 33)
	maximum = 0.0126667 (at node 30)
Accepted packet rate average = 0.00973437
	minimum = 0.006 (at node 9)
	maximum = 0.015 (at node 51)
Injected flit rate average = 0.00974479
	minimum = 0.00633333 (at node 33)
	maximum = 0.0126667 (at node 30)
Accepted flit rate average= 0.00973437
	minimum = 0.006 (at node 9)
	maximum = 0.015 (at node 51)
Injected packet length average = 1
Accepted packet length average = 1
Total in-flight flits = 19 (19 measured)
latency change    = 0.00285493
throughput change = 0.00882825
Class 0:
Packet latency average = 33.4967
	minimum = 7
	maximum = 77
Network latency average = 33.4967
	minimum = 7
	maximum = 77
Slowest packet = 413291
Flit latency average = 33.5377
	minimum = 7
	maximum = 77
Slowest flit = 413291
Fragmentation average = 0
	minimum = 0
	maximum = 0
Injected packet rate average = 0.00953125
	minimum = 0.00675 (at node 33)
	maximum = 0.012 (at node 54)
Accepted packet rate average = 0.00948828
	minimum = 0.006 (at node 9)
	maximum = 0.01425 (at node 51)
Injected flit rate average = 0.00953125
	minimum = 0.00675 (at node 33)
	maximum = 0.012 (at node 54)
Accepted flit rate average= 0.00948828
	minimum = 0.006 (at node 9)
	maximum = 0.01425 (at node 51)
Injected packet length average = 1
Accepted packet length average = 1
Total in-flight flits = 28 (28 measured)
latency change    = 0.00443522
throughput change = 0.0259366
Draining all recorded packets ...
Draining remaining packets ...
Time taken is 7095 cycles
Class 0:
Packet latency average = 33.3186
	minimum = 7
	maximum = 72
Network latency average = 33.3186
	minimum = 7
	maximum = 72
Slowest packet = 415197
Flit latency average = 33.3186
	minimum = 7
	maximum = 72
Slowest flit = 415197
Fragmentation average = 0
	minimum = 0
	maximum = 0
Injected packet rate average = 0.00948437
	minimum = 0.003 (at node 0)
	maximum = 0.016 (at node 4)
Accepted packet rate average = 0.00921875
	minimum = 0.004 (at node 6)
	maximum = 0.016 (at node 17)
Injected flit rate average = 0.00948437
	minimum = 0.003 (at node 0)
	maximum = 0.016 (at node 4)
Accepted flit rate average= 0.00921875
	minimum = 0.004 (at node 6)
	maximum = 0.016 (at node 17)
Injected packet length average = 1
Accepted packet length average = 1
Total in-flight flits = 17 (0 measured)
latency change    = 1
throughput change = 1
Class 0:
Packet latency average = 33.0608
	minimum = 7
	maximum = 74
Network latency average = 33.0608
	minimum = 7
	maximum = 74
Slowest packet = 415988
Flit latency average = 33.0608
	minimum = 7
	maximum = 74
Slowest flit = 415988
Fragmentation average = 0
	minimum = 0
	maximum = 0
Injected packet rate average = 0.0102813
	minimum = 0.005 (at node 30)
	maximum = 0.0165 (at node 48)
Accepted packet rate average = 0.0101484
	minimum = 0.006 (at node 1)
	maximum = 0.018 (at node 61)
Injected flit rate average = 0.0102813
	minimum = 0.005 (at node 30)
	maximum = 0.0165 (at node 48)
Accepted flit rate average= 0.0101484
	minimum = 0.006 (at node 1)
	maximum = 0.018 (at node 61)
Injected packet length average = 1
Accepted packet length average = 1
Total in-flight flits = 17 (0 measured)
latency change    = 0.0077986
throughput change = 0.0916089
Class 0:
Packet latency average = 33.2417
	minimum = 7
	maximum = 72
Network latency average = 33.2417
	minimum = 7
	maximum = 72
Slowest packet = 416451
Flit latency average = 33.2417
	minimum = 7
	maximum = 72
Slowest flit = 416451
Fragmentation average = 0
	minimum = 0
	maximum = 0
Injected packet rate average = 0.00990625
	minimum = 0.003 (at node 19)
	maximum = 0.02 (at node 55)
Accepted packet rate average = 0.00982813
	minimum = 0.001 (at node 1)
	maximum = 0.019 (at node 13)
Injected flit rate average = 0.00990625
	minimum = 0.003 (at node 19)
	maximum = 0.02 (at node 55)
Accepted flit rate average= 0.00982813
	minimum = 0.001 (at node 1)
	maximum = 0.019 (at node 13)
Injected packet length average = 1
Accepted packet length average = 1
Total in-flight flits = 22 (0 measured)
latency change    = 0.00544008
throughput change = 0.0325914
Warmed up ...Time used is 3000 cycles
Class 0:
Packet latency average = 33.2898
	minimum = 7
	maximum = 77
Network latency average = 33.2898
	minimum = 7
	maximum = 77
Slowest packet = 417427
Flit latency average = 33.3257
	minimum = 7
	maximum = 77
Slowest flit = 417427
Fragmentation average = 0
	minimum = 0
	maximum = 0
Injected packet rate average = 0.0103125
	minimum = 0.002 (at node 46)
	maximum = 0.018 (at node 24)
Accepted packet rate average = 0.0102656
	minimum = 0.004 (at node 52)
	maximum = 0.018 (at node 14)
Injected flit rate average = 0.0103125
	minimum = 0.002 (at node 46)
	maximum = 0.018 (at node 24)
Accepted flit rate average= 0.0102656
	minimum = 0.004 (at node 52)
	maximum = 0.018 (at node 14)
Injected packet length average = 1
Accepted packet length average = 1
Total in-flight flits = 25 (25 measured)
latency change    = 0.0014452
throughput change = 0.042618
Class 0:
Packet latency average = 33.4985
	minimum = 7
	maximum = 77
Network latency average = 33.4985
	minimum = 7
	maximum = 77
Slowest packet = 417427
Flit latency average = 33.5125
	minimum = 7
	maximum = 77
Slowest flit = 417427
Fragmentation average = 0
	minimum = 0
	maximum = 0
Injected packet rate average = 0.0105625
	minimum = 0.0055 (at node 46)
	maximum = 0.019 (at node 24)
Accepted packet rate average = 0.0106563
	minimum = 0.0055 (at node 61)
	maximum = 0.017 (at node 14)
Injected flit rate average = 0.0105625
	minimum = 0.0055 (at node 46)
	maximum = 0.019 (at node 24)
Accepted flit rate average= 0.0106563
	minimum = 0.0055 (at node 61)
	maximum = 0.017 (at node 14)
Injected packet length average = 1
Accepted packet length average = 1
Total in-flight flits = 10 (10 measured)
latency change    = 0.0062315
throughput change = 0.0366569
Class 0:
Packet latency average = 33.4054
	minimum = 7
	maximum = 77
Network latency average = 33.4054
	minimum = 7
	maximum = 77
Slowest packet = 417427
Flit latency average = 33.4159
	minimum = 7
	maximum = 77
Slowest flit = 417427
Fragmentation average = 0
	minimum = 0
	maximum = 0
Injected packet rate average = 0.0104583
	minimum = 0.006 (at node 4)
	maximum = 0.016 (at node 24)
Accepted packet rate average = 0.0104063
	minimum = 0.00566667 (at node 61)
	maximum = 0.0166667 (at node 14)
Injected flit rate average = 0.0104583
	minimum = 0.006 (at node 4)
	maximum = 0.016 (at node 24)
Accepted flit rate average= 0.0104063
	minimum = 0.00566667 (at node 61)
	maximum = 0.0166667 (at node 14)
Injected packet length average = 1
Accepted packet length average = 1
Total in-flight flits = 32 (32 measured)
latency change    = 0.00278833
throughput change = 0.024024
Draining all recorded packets ...
Draining remaining packets ...
Time taken is 6088 cycles
Class 0:
Packet latency average = 33.1652
	minimum = 7
	maximum = 77
Network latency average = 33.1652
	minimum = 7
	maximum = 77
Slowest packet = 419448
Flit latency average = 33.1652
	minimum = 7
	maximum = 77
Slowest flit = 419448
Fragmentation average = 0
	minimum = 0
	maximum = 0
Injected packet rate average = 0.0106563
	minimum = 0.002 (at node 45)
	maximum = 0.02 (at node 39)
Accepted packet rate average = 0.0104063
	minimum = 0.005 (at node 20)
	maximum = 0.017 (at node 63)
Injected flit rate average = 0.0106563
	minimum = 0.002 (at node 45)
	maximum = 0.02 (at node 39)
Accepted flit rate average= 0.0104063
	minimum = 0.005 (at node 20)
	maximum = 0.017 (at node 63)
Injected packet length average = 1
Accepted packet length average = 1
Total in-flight flits = 16 (0 measured)
latency change    = 1
throughput change = 1
Class 0:
Packet latency average = 33.5312
	minimum = 7
	maximum = 79
Network latency average = 33.5312
	minimum = 7
	maximum = 79
Slowest packet = 420196
Flit latency average = 33.5312
	minimum = 7
	maximum = 79
Slowest flit = 420196
Fragmentation average = 0
	minimum = 0
	maximum = 0
Injected packet rate average = 0.0100547
	minimum = 0.0065 (at node 25)
	maximum = 0.017 (at node 39)
Accepted packet rate average = 0.00989844
	minimum = 0.005 (at node 10)
	maximum = 0.016 (at node 63)
Injected flit rate average = 0.0100547
	minimum = 0.0065 (at node 25)
	maximum = 0.017 (at node 39)
Accepted flit rate average= 0.00989844
	minimum = 0.005 (at node 10)
	maximum = 0.016 (at node 63)
Injected packet length average = 1
Accepted packet length average = 1
Total in-flight flits = 20 (0 measured)
latency change    = 0.0109155
throughput change = 0.0513023
Class 0:
Packet latency average = 32.8344
	minimum = 7
	maximum = 72
Network latency average = 32.8344
	minimum = 7
	maximum = 72
Slowest packet = 420561
Flit latency average = 32.8344
	minimum = 7
	maximum = 72
Slowest flit = 420561
Fragmentation average = 0
	minimum = 0
	maximum = 0
Injected packet rate average = 0.00959375
	minimum = 0.002 (at node 37)
	maximum = 0.02 (at node 47)
Accepted packet rate average = 0.00953125
	minimum = 0.004 (at node 3)
	maximum = 0.018 (at node 60)
Injected flit rate average = 0.00959375
	minimum = 0.002 (at node 37)
	maximum = 0.02 (at node 47)
Accepted flit rate average= 0.00953125
	minimum = 0.004 (at node 3)
	maximum = 0.018 (at node 60)
Injected packet length average = 1
Accepted packet length average = 1
Total in-flight flits = 24 (0 measured)
latency change    = 0.0212201
throughput change = 0.0385246
Warmed up ...Time used is 3000 cycles
Class 0:
Packet latency average = 32.4893
	minimum = 7
	maximum = 77
Network latency average = 32.4893
	minimum = 7
	maximum = 77
Slowest packet = 421362
Flit latency average = 32.795
	minimum = 7
	maximum = 77
Slowest flit = 421362
Fragmentation average = 0
	minimum = 0
	maximum = 0
Injected packet rate average = 0.0105156
	minimum = 0.003 (at node 12)
	maximum = 0.021 (at node 10)
Accepted packet rate average = 0.0105938
	minimum = 0.004 (at node 47)
	maximum = 0.018 (at node 17)
Injected flit rate average = 0.0105156
	minimum = 0.003 (at node 12)
	maximum = 0.021 (at node 10)
Accepted flit rate average= 0.0105938
	minimum = 0.004 (at node 47)
	maximum = 0.018 (at node 17)
Injected packet length average = 1
Accepted packet length average = 1
Total in-flight flits = 19 (19 measured)
latency change    = 0.0106229
throughput change = 0.100295
Class 0:
Packet latency average = 33.0424
	minimum = 7
	maximum = 88
Network latency average = 33.0424
	minimum = 7
	maximum = 88
Slowest packet = 422214
Flit latency average = 33.192
	minimum = 7
	maximum = 88
Slowest flit = 422214
Fragmentation average = 0
	minimum = 0
	maximum = 0
Injected packet rate average = 0.0101953
	minimum = 0.005 (at node 34)
	maximum = 0.0195 (at node 17)
Accepted packet rate average = 0.0101328
	minimum = 0.005 (at node 53)
	maximum = 0.0155 (at node 39)
Injected flit rate average = 0.0101953
	minimum = 0.005 (at node 34)
	maximum = 0.0195 (at node 17)
Accepted flit rate average= 0.0101328
	minimum = 0.005 (at node 53)
	maximum = 0.0155 (at node 39)
Injected packet length average = 1
Accepted packet length average = 1
Total in-flight flits = 32 (32 measured)
latency change    = 0.0167398
throughput change = 0.0454896
Class 0:
Packet latency average = 33.2606
	minimum = 7
	maximum = 88
Network latency average = 33.2606
	minimum = 7
	maximum = 88
Slowest packet = 422214
Flit latency average = 33.3566
	minimum = 7
	maximum = 88
Slowest flit = 422214
Fragmentation average = 0
	minimum = 0
	maximum = 0
Injected packet rate average = 0.0102865
	minimum = 0.00533333 (at node 34)
	maximum = 0.016 (at node 17)
Accepted packet rate average = 0.0102396
	minimum = 0.00633333 (at node 47)
	maximum = 0.0143333 (at node 39)
Injected flit rate average = 0.0102865
	minimum = 0.00533333 (at node 34)
	maximum = 0.016 (at node 17)
Accepted flit rate average= 0.0102396
	minimum = 0.00633333 (at node 47)
	maximum = 0.0143333 (at node 39)
Injected packet length average = 1
Accepted packet length average = 1
Total in-flight flits = 33 (33 measured)
latency change    = 0.00655842
throughput change = 0.0104273
Class 0:
Packet latency average = 33.3918
	minimum = 7
	maximum = 88
Network latency average = 33.3918
	minimum = 7
	maximum = 88
Slowest packet = 422214
Flit latency average = 33.4636
	minimum = 7
	maximum = 88
Slowest flit = 422214
Fragmentation average = 0
	minimum = 0
	maximum = 0
Injected packet rate average = 0.010082
	minimum = 0.00525 (at node 34)
	maximum = 0.014 (at node 17)
Accepted packet rate average = 0.0100938
	minimum = 0.00625 (at node 53)
	maximum = 0.01375 (at node 39)
Injected flit rate average = 0.010082
	minimum = 0.00525 (at node 34)
	maximum = 0.014 (at node 17)
Accepted flit rate average= 0.0100938
	minimum = 0.00625 (at node 53)
	maximum = 0.01375 (at node 39)
Injected packet length average = 1
Accepted packet length average = 1
Total in-flight flits = 21 (21 measured)
latency change    = 0.00393033
throughput change = 0.0144479
Draining all recorded packets ...
Draining remaining packets ...
Time taken is 7114 cycles
====== Overall Traffic Statistics ======
====== Traffic class 0 ======
Packet latency average = 33.4984 (100 samples)
	minimum = 7 (100 samples)
	maximum = 78.34 (100 samples)
Network latency average = 33.4984 (100 samples)
	minimum = 7 (100 samples)
	maximum = 78.34 (100 samples)
Flit latency average = 33.5504 (100 samples)
	minimum = 7 (100 samples)
	maximum = 78.35 (100 samples)
Fragmentation average = 0 (100 samples)
	minimum = 0 (100 samples)
	maximum = 0 (100 samples)
Injected packet rate average = 0.0100002 (100 samples)
	minimum = 0.00628167 (100 samples)
	maximum = 0.0141568 (100 samples)
Accepted packet rate average = 0.0100016 (100 samples)
	minimum = 0.006256 (100 samples)
	maximum = 0.0141382 (100 samples)
Injected flit rate average = 0.0100002 (100 samples)
	minimum = 0.00628167 (100 samples)
	maximum = 0.0141568 (100 samples)
Accepted flit rate average = 0.0100016 (100 samples)
	minimum = 0.006256 (100 samples)
	maximum = 0.0141382 (100 samples)
Injected packet size average = 1 (100 samples)
Accepted packet size average = 1 (100 samples)
Hops average = 6.25198 (100 samples)
Total run time 46.7676
