BEGIN Configuration File: /tmp/tmpe54rneay.cfg
topology = mesh;
k = 4;
n = 2;
routing_function = gnn_port_score_route_4x4;
num_vcs = 4;
vc_buf_size = 4;
wait_for_tail_credit = 1;
vc_allocator = islip;
sw_allocator = islip;
alloc_iters = 1;
credit_delay = 2;
routing_delay = 1;
vc_alloc_delay = 1;
sw_alloc_delay = 1;
input_speedup = 2;
output_speedup = 1;
internal_speedup = 1.0;
traffic = hotspot;
packet_size = 1;
sim_type = latency;
injection_rate = 0.02;
warmup_periods = 3;
sample_period = 1000;
sim_count = 100;
seed = 4;

END Configuration File: /tmp/tmpe54rneay.cfg
Class 0:
Packet latency average = 36.2562
	minimum = 7
	maximum = 252
Network latency average = 36.108
	minimum = 7
	maximum = 252
Slowest packet = 199
Flit latency average = 36.108
	minimum = 7
	maximum = 252
Slowest flit = 199
Fragmentation average = 0
	minimum = 0
	maximum = 0
Injected packet rate average = 0.021
	minimum = 0.012 (at node 0)
	maximum = 0.031 (at node 5)
Accepted packet rate average = 0.02025
	minimum = 0 (at node 0)
	maximum = 0.324 (at node 11)
Injected flit rate average = 0.021
	minimum = 0.012 (at node 0)
	maximum = 0.031 (at node 5)
Accepted flit rate average= 0.02025
	minimum = 0 (at node 0)
	maximum = 0.324 (at node 11)
Injected packet length average = 1
Accepted packet length average = 1
Total in-flight flits = 12 (0 measured)
latency change    = 1
throughput change = 1
Class 0:
Packet latency average = 34.9359
	minimum = 7
	maximum = 252
Network latency average = 34.8626
	minimum = 7
	maximum = 252
Slowest packet = 199
Flit latency average = 34.8626
	minimum = 7
	maximum = 252
Slowest flit = 199
Fragmentation average = 0
	minimum = 0
	maximum = 0
Injected packet rate average = 0.0207188
	minimum = 0.014 (at node 0)
	maximum = 0.0255 (at node 3)
Accepted packet rate average = 0.0204688
	minimum = 0 (at node 0)
	maximum = 0.3275 (at node 11)
Injected flit rate average = 0.0207188
	minimum = 0.014 (at node 0)
	maximum = 0.0255 (at node 3)
Accepted flit rate average= 0.0204688
	minimum = 0 (at node 0)
	maximum = 0.3275 (at node 11)
Injected packet length average = 1
Accepted packet length average = 1
Total in-flight flits = 8 (0 measured)
latency change    = 0.037792
throughput change = 0.010687
Class 0:
Packet latency average = 28.1981
	minimum = 7
	maximum = 153
Network latency average = 28.1981
	minimum = 7
	maximum = 153
Slowest packet = 921
Flit latency average = 28.1981
	minimum = 7
	maximum = 153
Slowest flit = 921
Fragmentation average = 0
	minimum = 0
	maximum = 0
Injected packet rate average = 0.0204375
	minimum = 0.011 (at node 6)
	maximum = 0.031 (at node 14)
Accepted packet rate average = 0.0195625
	minimum = 0 (at node 0)
	maximum = 0.313 (at node 11)
Injected flit rate average = 0.0204375
	minimum = 0.011 (at node 6)
	maximum = 0.031 (at node 14)
Accepted flit rate average= 0.0195625
	minimum = 0 (at node 0)
	maximum = 0.313 (at node 11)
Injected packet length average = 1
Accepted packet length average = 1
Total in-flight flits = 22 (0 measured)
latency change    = 0.238945
throughput change = 0.0463259
Warmed up ...Time used is 3000 cycles
Class 0:
Packet latency average = 43.9295
	minimum = 7
	maximum = 501
Network latency average = 43.6378
	minimum = 7
	maximum = 501
Slowest packet = 1016
Flit latency average = 49.9431
	minimum = 7
	maximum = 501
Slowest flit = 1016
Fragmentation average = 0
	minimum = 0
	maximum = 0
Injected packet rate average = 0.019875
	minimum = 0.013 (at node 12)
	maximum = 0.024 (at node 3)
Accepted packet rate average = 0.020875
	minimum = 0 (at node 0)
	maximum = 0.334 (at node 11)
Injected flit rate average = 0.019875
	minimum = 0.013 (at node 12)
	maximum = 0.024 (at node 3)
Accepted flit rate average= 0.020875
	minimum = 0 (at node 0)
	maximum = 0.334 (at node 11)
Injected packet length average = 1
Accepted packet length average = 1
Total in-flight flits = 6 (6 measured)
latency change    = 0.358106
throughput change = 0.0628743
Class 0:
Packet latency average = 36.5112
	minimum = 7
	maximum = 501
Network latency average = 36.3654
	minimum = 7
	maximum = 501
Slowest packet = 1016
Flit latency average = 39.8731
	minimum = 7
	maximum = 501
Slowest flit = 1016
Fragmentation average = 0
	minimum = 0
	maximum = 0
Injected packet rate average = 0.0197813
	minimum = 0.0115 (at node 4)
	maximum = 0.027 (at node 13)
Accepted packet rate average = 0.0201875
	minimum = 0 (at node 0)
	maximum = 0.323 (at node 11)
Injected flit rate average = 0.0197813
	minimum = 0.0115 (at node 4)
	maximum = 0.027 (at node 13)
Accepted flit rate average= 0.0201875
	minimum = 0 (at node 0)
	maximum = 0.323 (at node 11)
Injected packet length average = 1
Accepted packet length average = 1
Total in-flight flits = 9 (9 measured)
latency change    = 0.203178
throughput change = 0.0340557
Class 0:
Packet latency average = 33.1551
	minimum = 7
	maximum = 501
Network latency average = 33.0591
	minimum = 7
	maximum = 501
Slowest packet = 1016
Flit latency average = 35.4701
	minimum = 7
	maximum = 501
Slowest flit = 1016
Fragmentation average = 0
	minimum = 0
	maximum = 0
Injected packet rate average = 0.0199792
	minimum = 0.0133333 (at node 4)
	maximum = 0.0253333 (at node 13)
Accepted packet rate average = 0.0202083
	minimum = 0 (at node 0)
	maximum = 0.323333 (at node 11)
Injected flit rate average = 0.0199792
	minimum = 0.0133333 (at node 4)
	maximum = 0.0253333 (at node 13)
Accepted flit rate average= 0.0202083
	minimum = 0 (at node 0)
	maximum = 0.323333 (at node 11)
Injected packet length average = 1
Accepted packet length average = 1
Total in-flight flits = 11 (11 measured)
latency change    = 0.101226
throughput change = 0.00103093
Class 0:
Packet latency average = 32.6122
	minimum = 7
	maximum = 501
Network latency average = 32.541
	minimum = 7
	maximum = 501
Slowest packet = 1016
Flit latency average = 34.3474
	minimum = 7
	maximum = 501
Slowest flit = 1016
Fragmentation average = 0
	minimum = 0
	maximum = 0
Injected packet rate average = 0.0200625
	minimum = 0.0155 (at node 4)
	maximum = 0.02375 (at node 13)
Accepted packet rate average = 0.0203281
	minimum = 0 (at node 0)
	maximum = 0.32525 (at node 11)
Injected flit rate average = 0.0200625
	minimum = 0.0155 (at node 4)
	maximum = 0.02375 (at node 13)
Accepted flit rate average= 0.0203281
	minimum = 0 (at node 0)
	maximum = 0.32525 (at node 11)
Injected packet length average = 1
Accepted packet length average = 1
Total in-flight flits = 5 (5 measured)
latency change    = 0.0166461
throughput change = 0.0058929
Class 0:
Packet latency average = 32.878
	minimum = 7
	maximum = 501
Network latency average = 32.8211
	minimum = 7
	maximum = 501
Slowest packet = 1016
Flit latency average = 34.2671
	minimum = 7
	maximum = 501
Slowest flit = 1016
Fragmentation average = 0
	minimum = 0
	maximum = 0
Injected packet rate average = 0.0201
	minimum = 0.0168 (at node 8)
	maximum = 0.0238 (at node 10)
Accepted packet rate average = 0.0202625
	minimum = 0 (at node 0)
	maximum = 0.3242 (at node 11)
Injected flit rate average = 0.0201
	minimum = 0.0168 (at node 8)
	maximum = 0.0238 (at node 10)
Accepted flit rate average= 0.0202625
	minimum = 0 (at node 0)
	maximum = 0.3242 (at node 11)
Injected packet length average = 1
Accepted packet length average = 1
Total in-flight flits = 9 (9 measured)
latency change    = 0.008086
throughput change = 0.00323874
Class 0:
Packet latency average = 31.8514
	minimum = 7
	maximum = 501
Network latency average = 31.804
	minimum = 7
	maximum = 501
Slowest packet = 1016
Flit latency average = 33.0237
	minimum = 7
	maximum = 501
Slowest flit = 1016
Fragmentation average = 0
	minimum = 0
	maximum = 0
Injected packet rate average = 0.0200729
	minimum = 0.0168333 (at node 8)
	maximum = 0.0236667 (at node 10)
Accepted packet rate average = 0.0202083
	minimum = 0 (at node 0)
	maximum = 0.323333 (at node 11)
Injected flit rate average = 0.0200729
	minimum = 0.0168333 (at node 8)
	maximum = 0.0236667 (at node 10)
Accepted flit rate average= 0.0202083
	minimum = 0 (at node 0)
	maximum = 0.323333 (at node 11)
Injected packet length average = 1
Accepted packet length average = 1
Total in-flight flits = 9 (9 measured)
latency change    = 0.0322322
throughput change = 0.00268041
Draining all recorded packets ...
Draining remaining packets ...
Time taken is 9070 cycles
Class 0:
Packet latency average = 26.3438
	minimum = 7
	maximum = 110
Network latency average = 26.3299
	minimum = 7
	maximum = 110
Slowest packet = 3003
Flit latency average = 26.3299
	minimum = 7
	maximum = 110
Slowest flit = 3003
Fragmentation average = 0
	minimum = 0
	maximum = 0
Injected packet rate average = 0.0181875
	minimum = 0.012 (at node 3)
	maximum = 0.029 (at node 12)
Accepted packet rate average = 0.018
	minimum = 0 (at node 0)
	maximum = 0.288 (at node 11)
Injected flit rate average = 0.0181875
	minimum = 0.012 (at node 3)
	maximum = 0.029 (at node 12)
Accepted flit rate average= 0.018
	minimum = 0 (at node 0)
	maximum = 0.288 (at node 11)
Injected packet length average = 1
Accepted packet length average = 1
Total in-flight flits = 3 (0 measured)
latency change    = 1
throughput change = 1
Class 0:
Packet latency average = 25.4471
	minimum = 7
	maximum = 110
Network latency average = 25.4403
	minimum = 7
	maximum = 110
Slowest packet = 3003
Flit latency average = 25.4403
	minimum = 7
	maximum = 110
Slowest flit = 3003
Fragmentation average = 0
	minimum = 0
	maximum = 0
Injected packet rate average = 0.0184062
	minimum = 0.014 (at node 7)
	maximum = 0.025 (at node 15)
Accepted packet rate average = 0.0183125
	minimum = 0 (at node 0)
	maximum = 0.293 (at node 11)
Injected flit rate average = 0.0184062
	minimum = 0.014 (at node 7)
	maximum = 0.025 (at node 15)
Accepted flit rate average= 0.0183125
	minimum = 0 (at node 0)
	maximum = 0.293 (at node 11)
Injected packet length average = 1
Accepted packet length average = 1
Total in-flight flits = 3 (0 measured)
latency change    = 0.0352359
throughput change = 0.0170648
Class 0:
Packet latency average = 27.7097
	minimum = 7
	maximum = 166
Network latency average = 27.7097
	minimum = 7
	maximum = 166
Slowest packet = 3605
Flit latency average = 27.7097
	minimum = 7
	maximum = 166
Slowest flit = 3605
Fragmentation average = 0
	minimum = 0
	maximum = 0
Injected packet rate average = 0.0179375
	minimum = 0.011 (at node 2)
	maximum = 0.029 (at node 11)
Accepted packet rate average = 0.0174375
	minimum = 0 (at node 0)
	maximum = 0.279 (at node 11)
Injected flit rate average = 0.0179375
	minimum = 0.011 (at node 2)
	maximum = 0.029 (at node 11)
Accepted flit rate average= 0.0174375
	minimum = 0 (at node 0)
	maximum = 0.279 (at node 11)
Injected packet length average = 1
Accepted packet length average = 1
Total in-flight flits = 11 (0 measured)
latency change    = 0.081653
throughput change = 0.0501792
Warmed up ...Time used is 3000 cycles
Class 0:
Packet latency average = 34.8475
	minimum = 7
	maximum = 238
Network latency average = 34.6102
	minimum = 7
	maximum = 238
Slowest packet = 4016
Flit latency average = 34.9902
	minimum = 7
	maximum = 238
Slowest flit = 4016
Fragmentation average = 0
	minimum = 0
	maximum = 0
Injected packet rate average = 0.0195
	minimum = 0.013 (at node 7)
	maximum = 0.027 (at node 15)
Accepted packet rate average = 0.019125
	minimum = 0 (at node 0)
	maximum = 0.306 (at node 11)
Injected flit rate average = 0.0195
	minimum = 0.013 (at node 7)
	maximum = 0.027 (at node 15)
Accepted flit rate average= 0.019125
	minimum = 0 (at node 0)
	maximum = 0.306 (at node 11)
Injected packet length average = 1
Accepted packet length average = 1
Total in-flight flits = 17 (17 measured)
latency change    = 0.204829
throughput change = 0.0882353
Class 0:
Packet latency average = 42.6677
	minimum = 7
	maximum = 418
Network latency average = 42.0272
	minimum = 7
	maximum = 411
Slowest packet = 4260
Flit latency average = 42.0816
	minimum = 7
	maximum = 411
Slowest flit = 4306
Fragmentation average = 0
	minimum = 0
	maximum = 0
Injected packet rate average = 0.0202188
	minimum = 0.015 (at node 7)
	maximum = 0.0275 (at node 15)
Accepted packet rate average = 0.0199063
	minimum = 0 (at node 0)
	maximum = 0.3185 (at node 11)
Injected flit rate average = 0.0202188
	minimum = 0.015 (at node 7)
	maximum = 0.0275 (at node 15)
Accepted flit rate average= 0.0199063
	minimum = 0 (at node 0)
	maximum = 0.3185 (at node 11)
Injected packet length average = 1
Accepted packet length average = 1
Total in-flight flits = 22 (22 measured)
latency change    = 0.183283
throughput change = 0.0392465
Class 0:
Packet latency average = 44.4504
	minimum = 7
	maximum = 544
Network latency average = 43.3082
	minimum = 7
	maximum = 517
Slowest packet = 4296
Flit latency average = 43.3301
	minimum = 7
	maximum = 517
Slowest flit = 4378
Fragmentation average = 0
	minimum = 0
	maximum = 0
Injected packet rate average = 0.0195
	minimum = 0.0153333 (at node 7)
	maximum = 0.0253333 (at node 15)
Accepted packet rate average = 0.0195625
	minimum = 0 (at node 0)
	maximum = 0.313 (at node 11)
Injected flit rate average = 0.0195
	minimum = 0.0153333 (at node 7)
	maximum = 0.0253333 (at node 15)
Accepted flit rate average= 0.0195625
	minimum = 0 (at node 0)
	maximum = 0.313 (at node 11)
Injected packet length average = 1
Accepted packet length average = 1
Total in-flight flits = 8 (8 measured)
latency change    = 0.0401053
throughput change = 0.0175719
Class 0:
Packet latency average = 39.2394
	minimum = 7
	maximum = 544
Network latency average = 38.3791
	minimum = 7
	maximum = 517
Slowest packet = 4296
Flit latency average = 38.4393
	minimum = 7
	maximum = 517
Slowest flit = 4378
Fragmentation average = 0
	minimum = 0
	maximum = 0
Injected packet rate average = 0.0193437
	minimum = 0.0165 (at node 4)
	maximum = 0.0245 (at node 15)
Accepted packet rate average = 0.0194219
	minimum = 0 (at node 0)
	maximum = 0.31075 (at node 11)
Injected flit rate average = 0.0193437
	minimum = 0.0165 (at node 4)
	maximum = 0.0245 (at node 15)
Accepted flit rate average= 0.0194219
	minimum = 0 (at node 0)
	maximum = 0.31075 (at node 11)
Injected packet length average = 1
Accepted packet length average = 1
Total in-flight flits = 6 (6 measured)
latency change    = 0.1328
throughput change = 0.00724055
Class 0:
Packet latency average = 36.613
	minimum = 7
	maximum = 544
Network latency average = 35.9305
	minimum = 7
	maximum = 517
Slowest packet = 4296
Flit latency average = 35.9955
	minimum = 7
	maximum = 517
Slowest flit = 4378
Fragmentation average = 0
	minimum = 0
	maximum = 0
Injected packet rate average = 0.019525
	minimum = 0.017 (at node 7)
	maximum = 0.0248 (at node 15)
Accepted packet rate average = 0.01955
	minimum = 0 (at node 0)
	maximum = 0.3128 (at node 11)
Injected flit rate average = 0.019525
	minimum = 0.017 (at node 7)
	maximum = 0.0248 (at node 15)
Accepted flit rate average= 0.01955
	minimum = 0 (at node 0)
	maximum = 0.3128 (at node 11)
Injected packet length average = 1
Accepted packet length average = 1
Total in-flight flits = 9 (9 measured)
latency change    = 0.0717352
throughput change = 0.00655371
Class 0:
Packet latency average = 36.6535
	minimum = 7
	maximum = 544
Network latency average = 36.0876
	minimum = 7
	maximum = 517
Slowest packet = 4296
Flit latency average = 36.1407
	minimum = 7
	maximum = 517
Slowest flit = 4378
Fragmentation average = 0
	minimum = 0
	maximum = 0
Injected packet rate average = 0.0195938
	minimum = 0.0168333 (at node 7)
	maximum = 0.0253333 (at node 15)
Accepted packet rate average = 0.019625
	minimum = 0 (at node 0)
	maximum = 0.314 (at node 11)
Injected flit rate average = 0.0195938
	minimum = 0.0168333 (at node 7)
	maximum = 0.0253333 (at node 15)
Accepted flit rate average= 0.019625
	minimum = 0 (at node 0)
	maximum = 0.314 (at node 11)
Injected packet length average = 1
Accepted packet length average = 1
Total in-flight flits = 8 (8 measured)
latency change    = 0.00110467
throughput change = 0.00382166
Class 0:
Packet latency average = 36.5613
	minimum = 7
	maximum = 544
Network latency average = 36.0819
	minimum = 7
	maximum = 517
Slowest packet = 4296
Flit latency average = 36.1269
	minimum = 7
	maximum = 517
Slowest flit = 4378
Fragmentation average = 0
	minimum = 0
	maximum = 0
Injected packet rate average = 0.0198571
	minimum = 0.0175714 (at node 11)
	maximum = 0.0247143 (at node 15)
Accepted packet rate average = 0.0198393
	minimum = 0 (at node 0)
	maximum = 0.317429 (at node 11)
Injected flit rate average = 0.0198571
	minimum = 0.0175714 (at node 11)
	maximum = 0.0247143 (at node 15)
Accepted flit rate average= 0.0198393
	minimum = 0 (at node 0)
	maximum = 0.317429 (at node 11)
Injected packet length average = 1
Accepted packet length average = 1
Total in-flight flits = 13 (13 measured)
latency change    = 0.00252214
throughput change = 0.0108011
Draining all recorded packets ...
Draining remaining packets ...
Time taken is 10104 cycles
Class 0:
Packet latency average = 33.7444
	minimum = 7
	maximum = 231
Network latency average = 33.7444
	minimum = 7
	maximum = 231
Slowest packet = 6157
Flit latency average = 33.7444
	minimum = 7
	maximum = 231
Slowest flit = 6157
Fragmentation average = 0
	minimum = 0
	maximum = 0
Injected packet rate average = 0.0201875
	minimum = 0.015 (at node 5)
	maximum = 0.029 (at node 10)
Accepted packet rate average = 0.0195625
	minimum = 0 (at node 0)
	maximum = 0.313 (at node 11)
Injected flit rate average = 0.0201875
	minimum = 0.015 (at node 5)
	maximum = 0.029 (at node 10)
Accepted flit rate average= 0.0195625
	minimum = 0 (at node 0)
	maximum = 0.313 (at node 11)
Injected packet length average = 1
Accepted packet length average = 1
Total in-flight flits = 10 (0 measured)
latency change    = 1
throughput change = 1
Class 0:
Packet latency average = 30.8929
	minimum = 7
	maximum = 231
Network latency average = 30.8929
	minimum = 7
	maximum = 231
Slowest packet = 6157
Flit latency average = 30.8929
	minimum = 7
	maximum = 231
Slowest flit = 6157
Fragmentation average = 0
	minimum = 0
	maximum = 0
Injected packet rate average = 0.0200938
	minimum = 0.0145 (at node 5)
	maximum = 0.0235 (at node 1)
Accepted packet rate average = 0.0198438
	minimum = 0 (at node 0)
	maximum = 0.3175 (at node 11)
Injected flit rate average = 0.0200938
	minimum = 0.0145 (at node 5)
	maximum = 0.0235 (at node 1)
Accepted flit rate average= 0.0198438
	minimum = 0 (at node 0)
	maximum = 0.3175 (at node 11)
Injected packet length average = 1
Accepted packet length average = 1
Total in-flight flits = 8 (0 measured)
latency change    = 0.0923026
throughput change = 0.0141732
Class 0:
Packet latency average = 31.8727
	minimum = 7
	maximum = 193
Network latency average = 31.618
	minimum = 7
	maximum = 193
Slowest packet = 6937
Flit latency average = 31.618
	minimum = 7
	maximum = 193
Slowest flit = 6937
Fragmentation average = 0
	minimum = 0
	maximum = 0
Injected packet rate average = 0.021
	minimum = 0.012 (at node 12)
	maximum = 0.03 (at node 4)
Accepted packet rate average = 0.020125
	minimum = 0 (at node 0)
	maximum = 0.322 (at node 11)
Injected flit rate average = 0.021
	minimum = 0.012 (at node 12)
	maximum = 0.03 (at node 4)
Accepted flit rate average= 0.020125
	minimum = 0 (at node 0)
	maximum = 0.322 (at node 11)
Injected packet length average = 1
Accepted packet length average = 1
Total in-flight flits = 23 (0 measured)
latency change    = 0.0307397
throughput change = 0.0139752
Warmed up ...Time used is 3000 cycles
Class 0:
Packet latency average = 30.9863
	minimum = 7
	maximum = 233
Network latency average = 30.9452
	minimum = 7
	maximum = 221
Slowest packet = 7058
Flit latency average = 39.6032
	minimum = 7
	maximum = 384
Slowest flit = 6971
Fragmentation average = 0
	minimum = 0
	maximum = 0
Injected packet rate average = 0.018625
	minimum = 0.013 (at node 14)
	maximum = 0.026 (at node 11)
Accepted packet rate average = 0.0196875
	minimum = 0 (at node 0)
	maximum = 0.315 (at node 11)
Injected flit rate average = 0.018625
	minimum = 0.013 (at node 14)
	maximum = 0.026 (at node 11)
Accepted flit rate average= 0.0196875
	minimum = 0 (at node 0)
	maximum = 0.315 (at node 11)
Injected packet length average = 1
Accepted packet length average = 1
Total in-flight flits = 5 (5 measured)
latency change    = 0.0286052
throughput change = 0.0222222
Class 0:
Packet latency average = 33.4681
	minimum = 7
	maximum = 233
Network latency average = 33.4484
	minimum = 7
	maximum = 221
Slowest packet = 7058
Flit latency average = 37.6593
	minimum = 7
	maximum = 384
Slowest flit = 6971
Fragmentation average = 0
	minimum = 0
	maximum = 0
Injected packet rate average = 0.0195938
	minimum = 0.0145 (at node 7)
	maximum = 0.0265 (at node 11)
Accepted packet rate average = 0.0198125
	minimum = 0 (at node 0)
	maximum = 0.317 (at node 11)
Injected flit rate average = 0.0195938
	minimum = 0.0145 (at node 7)
	maximum = 0.0265 (at node 11)
Accepted flit rate average= 0.0198125
	minimum = 0 (at node 0)
	maximum = 0.317 (at node 11)
Injected packet length average = 1
Accepted packet length average = 1
Total in-flight flits = 15 (15 measured)
latency change    = 0.0741537
throughput change = 0.00630915
Class 0:
Packet latency average = 32.6257
	minimum = 7
	maximum = 233
Network latency average = 32.5209
	minimum = 7
	maximum = 221
Slowest packet = 7058
Flit latency average = 35.3299
	minimum = 7
	maximum = 384
Slowest flit = 6971
Fragmentation average = 0
	minimum = 0
	maximum = 0
Injected packet rate average = 0.0197917
	minimum = 0.0166667 (at node 9)
	maximum = 0.024 (at node 11)
Accepted packet rate average = 0.0199583
	minimum = 0 (at node 0)
	maximum = 0.319333 (at node 11)
Injected flit rate average = 0.0197917
	minimum = 0.0166667 (at node 9)
	maximum = 0.024 (at node 11)
Accepted flit rate average= 0.0199583
	minimum = 0 (at node 0)
	maximum = 0.319333 (at node 11)
Injected packet length average = 1
Accepted packet length average = 1
Total in-flight flits = 14 (14 measured)
latency change    = 0.0258207
throughput change = 0.00730689
Class 0:
Packet latency average = 33.7625
	minimum = 7
	maximum = 260
Network latency average = 33.6847
	minimum = 7
	maximum = 260
Slowest packet = 8154
Flit latency average = 35.7629
	minimum = 7
	maximum = 384
Slowest flit = 6971
Fragmentation average = 0
	minimum = 0
	maximum = 0
Injected packet rate average = 0.0198438
	minimum = 0.0175 (at node 7)
	maximum = 0.0225 (at node 6)
Accepted packet rate average = 0.0200313
	minimum = 0 (at node 0)
	maximum = 0.3205 (at node 11)
Injected flit rate average = 0.0198438
	minimum = 0.0175 (at node 7)
	maximum = 0.0225 (at node 6)
Accepted flit rate average= 0.0200313
	minimum = 0 (at node 0)
	maximum = 0.3205 (at node 11)
Injected packet length average = 1
Accepted packet length average = 1
Total in-flight flits = 10 (10 measured)
latency change    = 0.0336717
throughput change = 0.00364015
Class 0:
Packet latency average = 34.4586
	minimum = 7
	maximum = 277
Network latency average = 34.3716
	minimum = 7
	maximum = 277
Slowest packet = 8375
Flit latency average = 36.0074
	minimum = 7
	maximum = 384
Slowest flit = 6971
Fragmentation average = 0
	minimum = 0
	maximum = 0
Injected packet rate average = 0.02
	minimum = 0.018 (at node 3)
	maximum = 0.0222 (at node 6)
Accepted packet rate average = 0.0202375
	minimum = 0 (at node 0)
	maximum = 0.3238 (at node 11)
Injected flit rate average = 0.02
	minimum = 0.018 (at node 3)
	maximum = 0.0222 (at node 6)
Accepted flit rate average= 0.0202375
	minimum = 0 (at node 0)
	maximum = 0.3238 (at node 11)
Injected packet length average = 1
Accepted packet length average = 1
Total in-flight flits = 3 (3 measured)
latency change    = 0.0202021
throughput change = 0.0101915
Draining all recorded packets ...
Draining remaining packets ...
Time taken is 8059 cycles
Class 0:
Packet latency average = 30.8388
	minimum = 7
	maximum = 161
Network latency average = 30.7862
	minimum = 7
	maximum = 161
Slowest packet = 8696
Flit latency average = 30.7862
	minimum = 7
	maximum = 161
Slowest flit = 8696
Fragmentation average = 0
	minimum = 0
	maximum = 0
Injected packet rate average = 0.019875
	minimum = 0.014 (at node 14)
	maximum = 0.027 (at node 5)
Accepted packet rate average = 0.019
	minimum = 0 (at node 0)
	maximum = 0.304 (at node 11)
Injected flit rate average = 0.019875
	minimum = 0.014 (at node 14)
	maximum = 0.027 (at node 5)
Accepted flit rate average= 0.019
	minimum = 0 (at node 0)
	maximum = 0.304 (at node 11)
Injected packet length average = 1
Accepted packet length average = 1
Total in-flight flits = 14 (0 measured)
latency change    = 1
throughput change = 1
Class 0:
Packet latency average = 27.7619
	minimum = 7
	maximum = 161
Network latency average = 27.7365
	minimum = 7
	maximum = 161
Slowest packet = 8696
Flit latency average = 27.7365
	minimum = 7
	maximum = 161
Slowest flit = 8696
Fragmentation average = 0
	minimum = 0
	maximum = 0
Injected packet rate average = 0.0199063
	minimum = 0.0145 (at node 13)
	maximum = 0.0245 (at node 1)
Accepted packet rate average = 0.0196875
	minimum = 0 (at node 0)
	maximum = 0.315 (at node 11)
Injected flit rate average = 0.0199063
	minimum = 0.0145 (at node 13)
	maximum = 0.0245 (at node 1)
Accepted flit rate average= 0.0196875
	minimum = 0 (at node 0)
	maximum = 0.315 (at node 11)
Injected packet length average = 1
Accepted packet length average = 1
Total in-flight flits = 7 (0 measured)
latency change    = 0.110832
throughput change = 0.0349206
Class 0:
Packet latency average = 35.5893
	minimum = 7
	maximum = 261
Network latency average = 35.5141
	minimum = 7
	maximum = 261
Slowest packet = 9434
Flit latency average = 35.5141
	minimum = 7
	maximum = 261
Slowest flit = 9434
Fragmentation average = 0
	minimum = 0
	maximum = 0
Injected packet rate average = 0.01975
	minimum = 0.014 (at node 9)
	maximum = 0.028 (at node 7)
Accepted packet rate average = 0.0199375
	minimum = 0 (at node 0)
	maximum = 0.319 (at node 11)
Injected flit rate average = 0.01975
	minimum = 0.014 (at node 9)
	maximum = 0.028 (at node 7)
Accepted flit rate average= 0.0199375
	minimum = 0 (at node 0)
	maximum = 0.319 (at node 11)
Injected packet length average = 1
Accepted packet length average = 1
Total in-flight flits = 4 (0 measured)
latency change    = 0.219938
throughput change = 0.0125392
Warmed up ...Time used is 3000 cycles
Class 0:
Packet latency average = 36.0187
	minimum = 7
	maximum = 186
Network latency average = 36.0031
	minimum = 7
	maximum = 186
Slowest packet = 9736
Flit latency average = 35.7908
	minimum = 7
	maximum = 186
Slowest flit = 9736
Fragmentation average = 0
	minimum = 0
	maximum = 0
Injected packet rate average = 0.021
	minimum = 0.013 (at node 11)
	maximum = 0.033 (at node 5)
Accepted packet rate average = 0.0203125
	minimum = 0 (at node 0)
	maximum = 0.325 (at node 11)
Injected flit rate average = 0.021
	minimum = 0.013 (at node 11)
	maximum = 0.033 (at node 5)
Accepted flit rate average= 0.0203125
	minimum = 0 (at node 0)
	maximum = 0.325 (at node 11)
Injected packet length average = 1
Accepted packet length average = 1
Total in-flight flits = 15 (15 measured)
latency change    = 0.0119202
throughput change = 0.0184615
Class 0:
Packet latency average = 39.6044
	minimum = 7
	maximum = 320
Network latency average = 39.1727
	minimum = 7
	maximum = 287
Slowest packet = 9985
Flit latency average = 39.0452
	minimum = 7
	maximum = 287
Slowest flit = 9985
Fragmentation average = 0
	minimum = 0
	maximum = 0
Injected packet rate average = 0.0201875
	minimum = 0.013 (at node 11)
	maximum = 0.0275 (at node 6)
Accepted packet rate average = 0.0200313
	minimum = 0 (at node 0)
	maximum = 0.3205 (at node 11)
Injected flit rate average = 0.0201875
	minimum = 0.013 (at node 11)
	maximum = 0.0275 (at node 6)
Accepted flit rate average= 0.0200313
	minimum = 0 (at node 0)
	maximum = 0.3205 (at node 11)
Injected packet length average = 1
Accepted packet length average = 1
Total in-flight flits = 9 (9 measured)
latency change    = 0.090538
throughput change = 0.0140406
Class 0:
Packet latency average = 40.9276
	minimum = 7
	maximum = 320
Network latency average = 40.5576
	minimum = 7
	maximum = 293
Slowest packet = 9985
Flit latency average = 40.469
	minimum = 7
	maximum = 293
Slowest flit = 10382
Fragmentation average = 0
	minimum = 0
	maximum = 0
Injected packet rate average = 0.0209167
	minimum = 0.0146667 (at node 3)
	maximum = 0.0256667 (at node 6)
Accepted packet rate average = 0.0205208
	minimum = 0 (at node 0)
	maximum = 0.328333 (at node 11)
Injected flit rate average = 0.0209167
	minimum = 0.0146667 (at node 3)
	maximum = 0.0256667 (at node 6)
Accepted flit rate average= 0.0205208
	minimum = 0 (at node 0)
	maximum = 0.328333 (at node 11)
Injected packet length average = 1
Accepted packet length average = 1
Total in-flight flits = 23 (23 measured)
latency change    = 0.032331
throughput change = 0.0238579
Class 0:
Packet latency average = 38.7617
	minimum = 7
	maximum = 320
Network latency average = 38.4605
	minimum = 7
	maximum = 293
Slowest packet = 9985
Flit latency average = 38.4003
	minimum = 7
	maximum = 293
Slowest flit = 10382
Fragmentation average = 0
	minimum = 0
	maximum = 0
Injected packet rate average = 0.0205156
	minimum = 0.0155 (at node 3)
	maximum = 0.0245 (at node 6)
Accepted packet rate average = 0.0204531
	minimum = 0 (at node 0)
	maximum = 0.32725 (at node 11)
Injected flit rate average = 0.0205156
	minimum = 0.0155 (at node 3)
	maximum = 0.0245 (at node 6)
Accepted flit rate average= 0.0204531
	minimum = 0 (at node 0)
	maximum = 0.32725 (at node 11)
Injected packet length average = 1
Accepted packet length average = 1
Total in-flight flits = 8 (8 measured)
latency change    = 0.0558784
throughput change = 0.00331042
Class 0:
Packet latency average = 41.2438
	minimum = 7
	maximum = 519
Network latency average = 40.5344
	minimum = 7
	maximum = 519
Slowest packet = 10969
Flit latency average = 40.4815
	minimum = 7
	maximum = 519
Slowest flit = 10969
Fragmentation average = 0
	minimum = 0
	maximum = 0
Injected packet rate average = 0.020775
	minimum = 0.0152 (at node 3)
	maximum = 0.0246 (at node 6)
Accepted packet rate average = 0.0205625
	minimum = 0 (at node 0)
	maximum = 0.329 (at node 11)
Injected flit rate average = 0.020775
	minimum = 0.0152 (at node 3)
	maximum = 0.0246 (at node 6)
Accepted flit rate average= 0.0205625
	minimum = 0 (at node 0)
	maximum = 0.329 (at node 11)
Injected packet length average = 1
Accepted packet length average = 1
Total in-flight flits = 21 (21 measured)
latency change    = 0.0601805
throughput change = 0.00531915
Class 0:
Packet latency average = 42.1198
	minimum = 7
	maximum = 570
Network latency average = 41.1511
	minimum = 7
	maximum = 519
Slowest packet = 10969
Flit latency average = 41.1059
	minimum = 7
	maximum = 519
Slowest flit = 10969
Fragmentation average = 0
	minimum = 0
	maximum = 0
Injected packet rate average = 0.0207708
	minimum = 0.0165 (at node 3)
	maximum = 0.0245 (at node 6)
Accepted packet rate average = 0.0206563
	minimum = 0 (at node 0)
	maximum = 0.3305 (at node 11)
Injected flit rate average = 0.0207708
	minimum = 0.0165 (at node 3)
	maximum = 0.0245 (at node 6)
Accepted flit rate average= 0.0206563
	minimum = 0 (at node 0)
	maximum = 0.3305 (at node 11)
Injected packet length average = 1
Accepted packet length average = 1
Total in-flight flits = 15 (15 measured)
latency change    = 0.0207979
throughput change = 0.00453858
Class 0:
Packet latency average = 42.2196
	minimum = 7
	maximum = 570
Network latency average = 41.3378
	minimum = 7
	maximum = 519
Slowest packet = 10969
Flit latency average = 41.2987
	minimum = 7
	maximum = 519
Slowest flit = 10969
Fragmentation average = 0
	minimum = 0
	maximum = 0
Injected packet rate average = 0.0207857
	minimum = 0.0165714 (at node 3)
	maximum = 0.0237143 (at node 5)
Accepted packet rate average = 0.0206518
	minimum = 0 (at node 0)
	maximum = 0.330429 (at node 11)
Injected flit rate average = 0.0207857
	minimum = 0.0165714 (at node 3)
	maximum = 0.0237143 (at node 5)
Accepted flit rate average= 0.0206518
	minimum = 0 (at node 0)
	maximum = 0.330429 (at node 11)
Injected packet length average = 1
Accepted packet length average = 1
Total in-flight flits = 19 (19 measured)
latency change    = 0.00236426
throughput change = 0.000216169
Draining all recorded packets ...
Draining remaining packets ...
Time taken is 10152 cycles
Class 0:
Packet latency average = 27.5847
	minimum = 7
	maximum = 124
Network latency average = 27.5847
	minimum = 7
	maximum = 124
Slowest packet = 12034
Flit latency average = 27.5847
	minimum = 7
	maximum = 124
Slowest flit = 12034
Fragmentation average = 0
	minimum = 0
	maximum = 0
Injected packet rate average = 0.019125
	minimum = 0.013 (at node 14)
	maximum = 0.03 (at node 0)
Accepted packet rate average = 0.0188125
	minimum = 0 (at node 0)
	maximum = 0.301 (at node 11)
Injected flit rate average = 0.019125
	minimum = 0.013 (at node 14)
	maximum = 0.03 (at node 0)
Accepted flit rate average= 0.0188125
	minimum = 0 (at node 0)
	maximum = 0.301 (at node 11)
Injected packet length average = 1
Accepted packet length average = 1
Total in-flight flits = 5 (0 measured)
latency change    = 1
throughput change = 1
Class 0:
Packet latency average = 25.5286
	minimum = 7
	maximum = 124
Network latency average = 25.5286
	minimum = 7
	maximum = 124
Slowest packet = 12034
Flit latency average = 25.5286
	minimum = 7
	maximum = 124
Slowest flit = 12034
Fragmentation average = 0
	minimum = 0
	maximum = 0
Injected packet rate average = 0.0191562
	minimum = 0.014 (at node 6)
	maximum = 0.0235 (at node 0)
Accepted packet rate average = 0.0185625
	minimum = 0 (at node 0)
	maximum = 0.297 (at node 11)
Injected flit rate average = 0.0191562
	minimum = 0.014 (at node 6)
	maximum = 0.0235 (at node 0)
Accepted flit rate average= 0.0185625
	minimum = 0 (at node 0)
	maximum = 0.297 (at node 11)
Injected packet length average = 1
Accepted packet length average = 1
Total in-flight flits = 19 (0 measured)
latency change    = 0.0805409
throughput change = 0.013468
Class 0:
Packet latency average = 41.7729
	minimum = 7
	maximum = 240
Network latency average = 41.6183
	minimum = 7
	maximum = 240
Slowest packet = 12661
Flit latency average = 41.6183
	minimum = 7
	maximum = 240
Slowest flit = 12661
Fragmentation average = 0
	minimum = 0
	maximum = 0
Injected packet rate average = 0.0190625
	minimum = 0.01 (at node 14)
	maximum = 0.028 (at node 7)
Accepted packet rate average = 0.0198125
	minimum = 0 (at node 0)
	maximum = 0.317 (at node 11)
Injected flit rate average = 0.0190625
	minimum = 0.01 (at node 14)
	maximum = 0.028 (at node 7)
Accepted flit rate average= 0.0198125
	minimum = 0 (at node 0)
	maximum = 0.317 (at node 11)
Injected packet length average = 1
Accepted packet length average = 1
Total in-flight flits = 7 (0 measured)
latency change    = 0.388871
throughput change = 0.0630915
Warmed up ...Time used is 3000 cycles
Class 0:
Packet latency average = 29.6364
	minimum = 7
	maximum = 91
Network latency average = 29.6364
	minimum = 7
	maximum = 91
Slowest packet = 13144
Flit latency average = 29.6413
	minimum = 7
	maximum = 91
Slowest flit = 13144
Fragmentation average = 0
	minimum = 0
	maximum = 0
Injected packet rate average = 0.02
	minimum = 0.012 (at node 1)
	maximum = 0.032 (at node 0)
Accepted packet rate average = 0.0196875
	minimum = 0 (at node 0)
	maximum = 0.315 (at node 11)
Injected flit rate average = 0.02
	minimum = 0.012 (at node 1)
	maximum = 0.032 (at node 0)
Accepted flit rate average= 0.0196875
	minimum = 0 (at node 0)
	maximum = 0.315 (at node 11)
Injected packet length average = 1
Accepted packet length average = 1
Total in-flight flits = 12 (12 measured)
latency change    = 0.409514
throughput change = 0.00634921
Class 0:
Packet latency average = 50.0982
	minimum = 7
	maximum = 575
Network latency average = 47.2734
	minimum = 7
	maximum = 566
Slowest packet = 13302
Flit latency average = 47.0912
	minimum = 7
	maximum = 566
Slowest flit = 13302
Fragmentation average = 0
	minimum = 0
	maximum = 0
Injected packet rate average = 0.0214688
	minimum = 0.0175 (at node 7)
	maximum = 0.0305 (at node 0)
Accepted packet rate average = 0.0209063
	minimum = 0 (at node 0)
	maximum = 0.3345 (at node 11)
Injected flit rate average = 0.0214688
	minimum = 0.0175 (at node 7)
	maximum = 0.0305 (at node 0)
Accepted flit rate average= 0.0209063
	minimum = 0 (at node 0)
	maximum = 0.3345 (at node 11)
Injected packet length average = 1
Accepted packet length average = 1
Total in-flight flits = 25 (25 measured)
latency change    = 0.408434
throughput change = 0.058296
Class 0:
Packet latency average = 48.6694
	minimum = 7
	maximum = 575
Network latency average = 45.6643
	minimum = 7
	maximum = 566
Slowest packet = 13302
Flit latency average = 45.5536
	minimum = 7
	maximum = 566
Slowest flit = 13302
Fragmentation average = 0
	minimum = 0
	maximum = 0
Injected packet rate average = 0.0209375
	minimum = 0.0176667 (at node 1)
	maximum = 0.0276667 (at node 0)
Accepted packet rate average = 0.0208125
	minimum = 0 (at node 0)
	maximum = 0.333 (at node 11)
Injected flit rate average = 0.0209375
	minimum = 0.0176667 (at node 1)
	maximum = 0.0276667 (at node 0)
Accepted flit rate average= 0.0208125
	minimum = 0 (at node 0)
	maximum = 0.333 (at node 11)
Injected packet length average = 1
Accepted packet length average = 1
Total in-flight flits = 13 (13 measured)
latency change    = 0.0293579
throughput change = 0.0045045
Class 0:
Packet latency average = 46.2695
	minimum = 7
	maximum = 575
Network latency average = 43.9955
	minimum = 7
	maximum = 566
Slowest packet = 13302
Flit latency average = 43.9209
	minimum = 7
	maximum = 566
Slowest flit = 13302
Fragmentation average = 0
	minimum = 0
	maximum = 0
Injected packet rate average = 0.0207656
	minimum = 0.01725 (at node 1)
	maximum = 0.026 (at node 0)
Accepted packet rate average = 0.02075
	minimum = 0 (at node 0)
	maximum = 0.332 (at node 11)
Injected flit rate average = 0.0207656
	minimum = 0.01725 (at node 1)
	maximum = 0.026 (at node 0)
Accepted flit rate average= 0.02075
	minimum = 0 (at node 0)
	maximum = 0.332 (at node 11)
Injected packet length average = 1
Accepted packet length average = 1
Total in-flight flits = 8 (8 measured)
latency change    = 0.051867
throughput change = 0.00301205
Class 0:
Packet latency average = 41.9361
	minimum = 7
	maximum = 575
Network latency average = 40.0909
	minimum = 7
	maximum = 566
Slowest packet = 13302
Flit latency average = 40.0471
	minimum = 7
	maximum = 566
Slowest flit = 13302
Fragmentation average = 0
	minimum = 0
	maximum = 0
Injected packet rate average = 0.02045
	minimum = 0.0168 (at node 1)
	maximum = 0.025 (at node 8)
Accepted packet rate average = 0.0204375
	minimum = 0 (at node 0)
	maximum = 0.327 (at node 11)
Injected flit rate average = 0.02045
	minimum = 0.0168 (at node 1)
	maximum = 0.025 (at node 8)
Accepted flit rate average= 0.0204375
	minimum = 0 (at node 0)
	maximum = 0.327 (at node 11)
Injected packet length average = 1
Accepted packet length average = 1
Total in-flight flits = 8 (8 measured)
latency change    = 0.103333
throughput change = 0.0152905
Class 0:
Packet latency average = 40.3286
	minimum = 7
	maximum = 575
Network latency average = 38.8029
	minimum = 7
	maximum = 566
Slowest packet = 13302
Flit latency average = 38.7713
	minimum = 7
	maximum = 566
Slowest flit = 13302
Fragmentation average = 0
	minimum = 0
	maximum = 0
Injected packet rate average = 0.0206146
	minimum = 0.017 (at node 1)
	maximum = 0.025 (at node 8)
Accepted packet rate average = 0.0205833
	minimum = 0 (at node 0)
	maximum = 0.329333 (at node 11)
Injected flit rate average = 0.0206146
	minimum = 0.017 (at node 1)
	maximum = 0.025 (at node 8)
Accepted flit rate average= 0.0205833
	minimum = 0 (at node 0)
	maximum = 0.329333 (at node 11)
Injected packet length average = 1
Accepted packet length average = 1
Total in-flight flits = 10 (10 measured)
latency change    = 0.0398607
throughput change = 0.00708502
Class 0:
Packet latency average = 38.467
	minimum = 7
	maximum = 575
Network latency average = 37.1436
	minimum = 7
	maximum = 566
Slowest packet = 13302
Flit latency average = 37.1212
	minimum = 7
	maximum = 566
Slowest flit = 13302
Fragmentation average = 0
	minimum = 0
	maximum = 0
Injected packet rate average = 0.0203125
	minimum = 0.0162857 (at node 1)
	maximum = 0.0241429 (at node 8)
Accepted packet rate average = 0.0203304
	minimum = 0 (at node 0)
	maximum = 0.325286 (at node 11)
Injected flit rate average = 0.0203125
	minimum = 0.0162857 (at node 1)
	maximum = 0.0241429 (at node 8)
Accepted flit rate average= 0.0203304
	minimum = 0 (at node 0)
	maximum = 0.325286 (at node 11)
Injected packet length average = 1
Accepted packet length average = 1
Total in-flight flits = 5 (5 measured)
latency change    = 0.0483956
throughput change = 0.0124433
Draining all recorded packets ...
Draining remaining packets ...
Time taken is 10052 cycles
Class 0:
Packet latency average = 28.0137
	minimum = 7
	maximum = 113
Network latency average = 28.0137
	minimum = 7
	maximum = 113
Slowest packet = 15393
Flit latency average = 28.0137
	minimum = 7
	maximum = 113
Slowest flit = 15393
Fragmentation average = 0
	minimum = 0
	maximum = 0
Injected packet rate average = 0.0185625
	minimum = 0.008 (at node 1)
	maximum = 0.026 (at node 7)
Accepted packet rate average = 0.0181875
	minimum = 0 (at node 0)
	maximum = 0.291 (at node 11)
Injected flit rate average = 0.0185625
	minimum = 0.008 (at node 1)
	maximum = 0.026 (at node 7)
Accepted flit rate average= 0.0181875
	minimum = 0 (at node 0)
	maximum = 0.291 (at node 11)
Injected packet length average = 1
Accepted packet length average = 1
Total in-flight flits = 6 (0 measured)
latency change    = 1
throughput change = 1
Class 0:
Packet latency average = 25.8827
	minimum = 7
	maximum = 113
Network latency average = 25.8827
	minimum = 7
	maximum = 113
Slowest packet = 15393
Flit latency average = 25.8827
	minimum = 7
	maximum = 113
Slowest flit = 15393
Fragmentation average = 0
	minimum = 0
	maximum = 0
Injected packet rate average = 0.0188125
	minimum = 0.013 (at node 13)
	maximum = 0.0255 (at node 7)
Accepted packet rate average = 0.0186562
	minimum = 0 (at node 0)
	maximum = 0.2985 (at node 11)
Injected flit rate average = 0.0188125
	minimum = 0.013 (at node 13)
	maximum = 0.0255 (at node 7)
Accepted flit rate average= 0.0186562
	minimum = 0 (at node 0)
	maximum = 0.2985 (at node 11)
Injected packet length average = 1
Accepted packet length average = 1
Total in-flight flits = 5 (0 measured)
latency change    = 0.0823328
throughput change = 0.0251256
Class 0:
Packet latency average = 29.1419
	minimum = 7
	maximum = 157
Network latency average = 29.1419
	minimum = 7
	maximum = 157
Slowest packet = 15835
Flit latency average = 29.1419
	minimum = 7
	maximum = 157
Slowest flit = 15835
Fragmentation average = 0
	minimum = 0
	maximum = 0
Injected packet rate average = 0.0190625
	minimum = 0.014 (at node 2)
	maximum = 0.027 (at node 3)
Accepted packet rate average = 0.0185
	minimum = 0 (at node 0)
	maximum = 0.296 (at node 11)
Injected flit rate average = 0.0190625
	minimum = 0.014 (at node 2)
	maximum = 0.027 (at node 3)
Accepted flit rate average= 0.0185
	minimum = 0 (at node 0)
	maximum = 0.296 (at node 11)
Injected packet length average = 1
Accepted packet length average = 1
Total in-flight flits = 14 (0 measured)
latency change    = 0.111837
throughput change = 0.00844595
Warmed up ...Time used is 3000 cycles
Class 0:
Packet latency average = 37.0126
	minimum = 7
	maximum = 217
Network latency average = 37.0126
	minimum = 7
	maximum = 217
Slowest packet = 16232
Flit latency average = 39.1571
	minimum = 7
	maximum = 217
Slowest flit = 16232
Fragmentation average = 0
	minimum = 0
	maximum = 0
Injected packet rate average = 0.020375
	minimum = 0.009 (at node 9)
	maximum = 0.028 (at node 3)
Accepted packet rate average = 0.0206875
	minimum = 0 (at node 0)
	maximum = 0.331 (at node 11)
Injected flit rate average = 0.020375
	minimum = 0.009 (at node 9)
	maximum = 0.028 (at node 3)
Accepted flit rate average= 0.0206875
	minimum = 0 (at node 0)
	maximum = 0.331 (at node 11)
Injected packet length average = 1
Accepted packet length average = 1
Total in-flight flits = 9 (9 measured)
latency change    = 0.21265
throughput change = 0.10574
Class 0:
Packet latency average = 34.7994
	minimum = 7
	maximum = 259
Network latency average = 34.7963
	minimum = 7
	maximum = 259
Slowest packet = 16484
Flit latency average = 35.9239
	minimum = 7
	maximum = 259
Slowest flit = 16484
Fragmentation average = 0
	minimum = 0
	maximum = 0
Injected packet rate average = 0.0203438
	minimum = 0.014 (at node 9)
	maximum = 0.0255 (at node 3)
Accepted packet rate average = 0.0205313
	minimum = 0 (at node 0)
	maximum = 0.3285 (at node 11)
Injected flit rate average = 0.0203438
	minimum = 0.014 (at node 9)
	maximum = 0.0255 (at node 3)
Accepted flit rate average= 0.0205313
	minimum = 0 (at node 0)
	maximum = 0.3285 (at node 11)
Injected packet length average = 1
Accepted packet length average = 1
Total in-flight flits = 8 (8 measured)
latency change    = 0.0636
throughput change = 0.00761035
Class 0:
Packet latency average = 31.4942
	minimum = 7
	maximum = 259
Network latency average = 31.4921
	minimum = 7
	maximum = 259
Slowest packet = 16484
Flit latency average = 32.3044
	minimum = 7
	maximum = 259
Slowest flit = 16484
Fragmentation average = 0
	minimum = 0
	maximum = 0
Injected packet rate average = 0.0200417
	minimum = 0.0153333 (at node 6)
	maximum = 0.0263333 (at node 10)
Accepted packet rate average = 0.0201875
	minimum = 0 (at node 0)
	maximum = 0.323 (at node 11)
Injected flit rate average = 0.0200417
	minimum = 0.0153333 (at node 6)
	maximum = 0.0263333 (at node 10)
Accepted flit rate average= 0.0201875
	minimum = 0 (at node 0)
	maximum = 0.323 (at node 11)
Injected packet length average = 1
Accepted packet length average = 1
Total in-flight flits = 7 (7 measured)
latency change    = 0.104944
throughput change = 0.0170279
Class 0:
Packet latency average = 29.9195
	minimum = 7
	maximum = 259
Network latency average = 29.9179
	minimum = 7
	maximum = 259
Slowest packet = 16484
Flit latency average = 30.5496
	minimum = 7
	maximum = 259
Slowest flit = 16484
Fragmentation average = 0
	minimum = 0
	maximum = 0
Injected packet rate average = 0.0199219
	minimum = 0.0155 (at node 6)
	maximum = 0.0245 (at node 3)
Accepted packet rate average = 0.0200156
	minimum = 0 (at node 0)
	maximum = 0.32025 (at node 11)
Injected flit rate average = 0.0199219
	minimum = 0.0155 (at node 6)
	maximum = 0.0245 (at node 3)
Accepted flit rate average= 0.0200156
	minimum = 0 (at node 0)
	maximum = 0.32025 (at node 11)
Injected packet length average = 1
Accepted packet length average = 1
Total in-flight flits = 8 (8 measured)
latency change    = 0.0526328
throughput change = 0.00858704
Class 0:
Packet latency average = 29.1208
	minimum = 7
	maximum = 259
Network latency average = 29.1195
	minimum = 7
	maximum = 259
Slowest packet = 16484
Flit latency average = 29.642
	minimum = 7
	maximum = 259
Slowest flit = 16484
Fragmentation average = 0
	minimum = 0
	maximum = 0
Injected packet rate average = 0.0195125
	minimum = 0.0158 (at node 6)
	maximum = 0.0232 (at node 3)
Accepted packet rate average = 0.019625
	minimum = 0 (at node 0)
	maximum = 0.314 (at node 11)
Injected flit rate average = 0.0195125
	minimum = 0.0158 (at node 6)
	maximum = 0.0232 (at node 3)
Accepted flit rate average= 0.019625
	minimum = 0 (at node 0)
	maximum = 0.314 (at node 11)
Injected packet length average = 1
Accepted packet length average = 1
Total in-flight flits = 5 (5 measured)
latency change    = 0.0274262
throughput change = 0.0199045
Class 0:
Packet latency average = 29.3688
	minimum = 7
	maximum = 259
Network latency average = 29.3677
	minimum = 7
	maximum = 259
Slowest packet = 16484
Flit latency average = 29.8011
	minimum = 7
	maximum = 259
Slowest flit = 16484
Fragmentation average = 0
	minimum = 0
	maximum = 0
Injected packet rate average = 0.0195729
	minimum = 0.0158333 (at node 6)
	maximum = 0.023 (at node 3)
Accepted packet rate average = 0.0196354
	minimum = 0 (at node 0)
	maximum = 0.314167 (at node 11)
Injected flit rate average = 0.0195729
	minimum = 0.0158333 (at node 6)
	maximum = 0.023 (at node 3)
Accepted flit rate average= 0.0196354
	minimum = 0 (at node 0)
	maximum = 0.314167 (at node 11)
Injected packet length average = 1
Accepted packet length average = 1
Total in-flight flits = 8 (8 measured)
latency change    = 0.00844312
throughput change = 0.000530504
Class 0:
Packet latency average = 28.8975
	minimum = 7
	maximum = 259
Network latency average = 28.8966
	minimum = 7
	maximum = 259
Slowest packet = 16484
Flit latency average = 29.271
	minimum = 7
	maximum = 259
Slowest flit = 16484
Fragmentation average = 0
	minimum = 0
	maximum = 0
Injected packet rate average = 0.0197143
	minimum = 0.0161429 (at node 6)
	maximum = 0.0232857 (at node 3)
Accepted packet rate average = 0.0196339
	minimum = 0 (at node 0)
	maximum = 0.314143 (at node 11)
Injected flit rate average = 0.0197143
	minimum = 0.0161429 (at node 6)
	maximum = 0.0232857 (at node 3)
Accepted flit rate average= 0.0196339
	minimum = 0 (at node 0)
	maximum = 0.314143 (at node 11)
Injected packet length average = 1
Accepted packet length average = 1
Total in-flight flits = 24 (24 measured)
latency change    = 0.0163095
throughput change = 7.5792e-05
Draining all recorded packets ...
Draining remaining packets ...
Time taken is 10458 cycles
Class 0:
Packet latency average = 40.3323
	minimum = 7
	maximum = 286
Network latency average = 40.3323
	minimum = 7
	maximum = 286
Slowest packet = 18527
Flit latency average = 40.3323
	minimum = 7
	maximum = 286
Slowest flit = 18527
Fragmentation average = 0
	minimum = 0
	maximum = 0
Injected packet rate average = 0.020625
	minimum = 0.015 (at node 3)
	maximum = 0.029 (at node 1)
Accepted packet rate average = 0.0203125
	minimum = 0 (at node 0)
	maximum = 0.325 (at node 11)
Injected flit rate average = 0.020625
	minimum = 0.015 (at node 3)
	maximum = 0.029 (at node 1)
Accepted flit rate average= 0.0203125
	minimum = 0 (at node 0)
	maximum = 0.325 (at node 11)
Injected packet length average = 1
Accepted packet length average = 1
Total in-flight flits = 5 (0 measured)
latency change    = 1
throughput change = 1
Class 0:
Packet latency average = 32.9014
	minimum = 7
	maximum = 286
Network latency average = 32.9014
	minimum = 7
	maximum = 286
Slowest packet = 18527
Flit latency average = 32.9014
	minimum = 7
	maximum = 286
Slowest flit = 18527
Fragmentation average = 0
	minimum = 0
	maximum = 0
Injected packet rate average = 0.0198125
	minimum = 0.013 (at node 13)
	maximum = 0.024 (at node 5)
Accepted packet rate average = 0.0196563
	minimum = 0 (at node 0)
	maximum = 0.3145 (at node 11)
Injected flit rate average = 0.0198125
	minimum = 0.013 (at node 13)
	maximum = 0.024 (at node 5)
Accepted flit rate average= 0.0196563
	minimum = 0 (at node 0)
	maximum = 0.3145 (at node 11)
Injected packet length average = 1
Accepted packet length average = 1
Total in-flight flits = 5 (0 measured)
latency change    = 0.225853
throughput change = 0.0333863
Class 0:
Packet latency average = 31.3693
	minimum = 7
	maximum = 232
Network latency average = 31.3693
	minimum = 7
	maximum = 232
Slowest packet = 19084
Flit latency average = 31.3693
	minimum = 7
	maximum = 232
Slowest flit = 19084
Fragmentation average = 0
	minimum = 0
	maximum = 0
Injected packet rate average = 0.018
	minimum = 0.013 (at node 7)
	maximum = 0.023 (at node 3)
Accepted packet rate average = 0.0179375
	minimum = 0 (at node 0)
	maximum = 0.287 (at node 11)
Injected flit rate average = 0.018
	minimum = 0.013 (at node 7)
	maximum = 0.023 (at node 3)
Accepted flit rate average= 0.0179375
	minimum = 0 (at node 0)
	maximum = 0.287 (at node 11)
Injected packet length average = 1
Accepted packet length average = 1
Total in-flight flits = 6 (0 measured)
latency change    = 0.0488405
throughput change = 0.0958188
Warmed up ...Time used is 3000 cycles
Class 0:
Packet latency average = 36.2194
	minimum = 7
	maximum = 269
Network latency average = 36.2194
	minimum = 7
	maximum = 269
Slowest packet = 19393
Flit latency average = 35.9969
	minimum = 7
	maximum = 269
Slowest flit = 19393
Fragmentation average = 0
	minimum = 0
	maximum = 0
Injected packet rate average = 0.0206875
	minimum = 0.015 (at node 9)
	maximum = 0.027 (at node 4)
Accepted packet rate average = 0.0203125
	minimum = 0 (at node 0)
	maximum = 0.325 (at node 11)
Injected flit rate average = 0.0206875
	minimum = 0.015 (at node 9)
	maximum = 0.027 (at node 4)
Accepted flit rate average= 0.0203125
	minimum = 0 (at node 0)
	maximum = 0.325 (at node 11)
Injected packet length average = 1
Accepted packet length average = 1
Total in-flight flits = 12 (12 measured)
latency change    = 0.133909
throughput change = 0.116923
Class 0:
Packet latency average = 33.1525
	minimum = 7
	maximum = 269
Network latency average = 33.1525
	minimum = 7
	maximum = 269
Slowest packet = 19393
Flit latency average = 33.0726
	minimum = 7
	maximum = 269
Slowest flit = 19393
Fragmentation average = 0
	minimum = 0
	maximum = 0
Injected packet rate average = 0.0214375
	minimum = 0.017 (at node 15)
	maximum = 0.0265 (at node 4)
Accepted packet rate average = 0.0210938
	minimum = 0 (at node 0)
	maximum = 0.3375 (at node 11)
Injected flit rate average = 0.0214375
	minimum = 0.017 (at node 15)
	maximum = 0.0265 (at node 4)
Accepted flit rate average= 0.0210938
	minimum = 0 (at node 0)
	maximum = 0.3375 (at node 11)
Injected packet length average = 1
Accepted packet length average = 1
Total in-flight flits = 17 (17 measured)
latency change    = 0.092511
throughput change = 0.037037
Class 0:
Packet latency average = 34.0619
	minimum = 7
	maximum = 269
Network latency average = 34.0619
	minimum = 7
	maximum = 269
Slowest packet = 19393
Flit latency average = 34.002
	minimum = 7
	maximum = 269
Slowest flit = 19393
Fragmentation average = 0
	minimum = 0
	maximum = 0
Injected packet rate average = 0.0206875
	minimum = 0.0163333 (at node 13)
	maximum = 0.024 (at node 4)
Accepted packet rate average = 0.0206458
	minimum = 0 (at node 0)
	maximum = 0.330333 (at node 11)
Injected flit rate average = 0.0206875
	minimum = 0.0163333 (at node 13)
	maximum = 0.024 (at node 4)
Accepted flit rate average= 0.0206458
	minimum = 0 (at node 0)
	maximum = 0.330333 (at node 11)
Injected packet length average = 1
Accepted packet length average = 1
Total in-flight flits = 8 (8 measured)
latency change    = 0.0267003
throughput change = 0.0216953
Class 0:
Packet latency average = 34.9746
	minimum = 7
	maximum = 269
Network latency average = 34.917
	minimum = 7
	maximum = 269
Slowest packet = 19393
Flit latency average = 34.8676
	minimum = 7
	maximum = 269
Slowest flit = 19393
Fragmentation average = 0
	minimum = 0
	maximum = 0
Injected packet rate average = 0.0205
	minimum = 0.0165 (at node 13)
	maximum = 0.023 (at node 7)
Accepted packet rate average = 0.0204219
	minimum = 0 (at node 0)
	maximum = 0.32675 (at node 11)
Injected flit rate average = 0.0205
	minimum = 0.0165 (at node 13)
	maximum = 0.023 (at node 7)
Accepted flit rate average= 0.0204219
	minimum = 0 (at node 0)
	maximum = 0.32675 (at node 11)
Injected packet length average = 1
Accepted packet length average = 1
Total in-flight flits = 11 (11 measured)
latency change    = 0.0260962
throughput change = 0.0109666
Class 0:
Packet latency average = 33.0037
	minimum = 7
	maximum = 269
Network latency average = 32.9577
	minimum = 7
	maximum = 269
Slowest packet = 19393
Flit latency average = 32.9255
	minimum = 7
	maximum = 269
Slowest flit = 19393
Fragmentation average = 0
	minimum = 0
	maximum = 0
Injected packet rate average = 0.020475
	minimum = 0.0174 (at node 13)
	maximum = 0.023 (at node 0)
Accepted packet rate average = 0.0204625
	minimum = 0 (at node 0)
	maximum = 0.3274 (at node 11)
Injected flit rate average = 0.020475
	minimum = 0.0174 (at node 13)
	maximum = 0.023 (at node 0)
Accepted flit rate average= 0.0204625
	minimum = 0 (at node 0)
	maximum = 0.3274 (at node 11)
Injected packet length average = 1
Accepted packet length average = 1
Total in-flight flits = 7 (7 measured)
latency change    = 0.0597193
throughput change = 0.00198534
Class 0:
Packet latency average = 32.2569
	minimum = 7
	maximum = 269
Network latency average = 32.2184
	minimum = 7
	maximum = 269
Slowest packet = 19393
Flit latency average = 32.1936
	minimum = 7
	maximum = 269
Slowest flit = 19393
Fragmentation average = 0
	minimum = 0
	maximum = 0
Injected packet rate average = 0.0203333
	minimum = 0.0171667 (at node 13)
	maximum = 0.0233333 (at node 7)
Accepted packet rate average = 0.0203333
	minimum = 0 (at node 0)
	maximum = 0.325333 (at node 11)
Injected flit rate average = 0.0203333
	minimum = 0.0171667 (at node 13)
	maximum = 0.0233333 (at node 7)
Accepted flit rate average= 0.0203333
	minimum = 0 (at node 0)
	maximum = 0.325333 (at node 11)
Injected packet length average = 1
Accepted packet length average = 1
Total in-flight flits = 6 (6 measured)
latency change    = 0.0231498
throughput change = 0.00635246
Class 0:
Packet latency average = 32.6154
	minimum = 7
	maximum = 278
Network latency average = 32.5226
	minimum = 7
	maximum = 278
Slowest packet = 21504
Flit latency average = 32.5007
	minimum = 7
	maximum = 278
Slowest flit = 21504
Fragmentation average = 0
	minimum = 0
	maximum = 0
Injected packet rate average = 0.0204821
	minimum = 0.0172857 (at node 13)
	maximum = 0.0228571 (at node 7)
Accepted packet rate average = 0.0204375
	minimum = 0 (at node 0)
	maximum = 0.327 (at node 11)
Injected flit rate average = 0.0204821
	minimum = 0.0172857 (at node 13)
	maximum = 0.0228571 (at node 7)
Accepted flit rate average= 0.0204375
	minimum = 0 (at node 0)
	maximum = 0.327 (at node 11)
Injected packet length average = 1
Accepted packet length average = 1
Total in-flight flits = 11 (11 measured)
latency change    = 0.0109912
throughput change = 0.00509684
Draining all recorded packets ...
Draining remaining packets ...
Time taken is 10099 cycles
Class 0:
Packet latency average = 31.4253
	minimum = 7
	maximum = 136
Network latency average = 31.4253
	minimum = 7
	maximum = 136
Slowest packet = 21859
Flit latency average = 31.4253
	minimum = 7
	maximum = 136
Slowest flit = 21859
Fragmentation average = 0
	minimum = 0
	maximum = 0
Injected packet rate average = 0.019625
	minimum = 0.015 (at node 14)
	maximum = 0.027 (at node 10)
Accepted packet rate average = 0.01925
	minimum = 0 (at node 0)
	maximum = 0.308 (at node 11)
Injected flit rate average = 0.019625
	minimum = 0.015 (at node 14)
	maximum = 0.027 (at node 10)
Accepted flit rate average= 0.01925
	minimum = 0 (at node 0)
	maximum = 0.308 (at node 11)
Injected packet length average = 1
Accepted packet length average = 1
Total in-flight flits = 6 (0 measured)
latency change    = 1
throughput change = 1
Class 0:
Packet latency average = 28.1301
	minimum = 7
	maximum = 136
Network latency average = 28.1301
	minimum = 7
	maximum = 136
Slowest packet = 21859
Flit latency average = 28.1301
	minimum = 7
	maximum = 136
Slowest flit = 21859
Fragmentation average = 0
	minimum = 0
	maximum = 0
Injected packet rate average = 0.0192187
	minimum = 0.016 (at node 4)
	maximum = 0.0235 (at node 1)
Accepted packet rate average = 0.0189687
	minimum = 0 (at node 0)
	maximum = 0.3035 (at node 11)
Injected flit rate average = 0.0192187
	minimum = 0.016 (at node 4)
	maximum = 0.0235 (at node 1)
Accepted flit rate average= 0.0189687
	minimum = 0 (at node 0)
	maximum = 0.3035 (at node 11)
Injected packet length average = 1
Accepted packet length average = 1
Total in-flight flits = 8 (0 measured)
latency change    = 0.11714
throughput change = 0.014827
Class 0:
Packet latency average = 26.8162
	minimum = 7
	maximum = 133
Network latency average = 26.8162
	minimum = 7
	maximum = 133
Slowest packet = 22477
Flit latency average = 26.8162
	minimum = 7
	maximum = 133
Slowest flit = 22477
Fragmentation average = 0
	minimum = 0
	maximum = 0
Injected packet rate average = 0.0200625
	minimum = 0.014 (at node 12)
	maximum = 0.025 (at node 10)
Accepted packet rate average = 0.0200625
	minimum = 0 (at node 0)
	maximum = 0.321 (at node 11)
Injected flit rate average = 0.0200625
	minimum = 0.014 (at node 12)
	maximum = 0.025 (at node 10)
Accepted flit rate average= 0.0200625
	minimum = 0 (at node 0)
	maximum = 0.321 (at node 11)
Injected packet length average = 1
Accepted packet length average = 1
Total in-flight flits = 8 (0 measured)
latency change    = 0.0489983
throughput change = 0.0545171
Warmed up ...Time used is 3000 cycles
Class 0:
Packet latency average = 30.7081
	minimum = 7
	maximum = 137
Network latency average = 30.7081
	minimum = 7
	maximum = 137
Slowest packet = 22830
Flit latency average = 31.6909
	minimum = 7
	maximum = 181
Slowest flit = 22493
Fragmentation average = 0
	minimum = 0
	maximum = 0
Injected packet rate average = 0.0209375
	minimum = 0.015 (at node 8)
	maximum = 0.026 (at node 0)
Accepted packet rate average = 0.020625
	minimum = 0 (at node 0)
	maximum = 0.33 (at node 11)
Injected flit rate average = 0.0209375
	minimum = 0.015 (at node 8)
	maximum = 0.026 (at node 0)
Accepted flit rate average= 0.020625
	minimum = 0 (at node 0)
	maximum = 0.33 (at node 11)
Injected packet length average = 1
Accepted packet length average = 1
Total in-flight flits = 13 (13 measured)
latency change    = 0.126738
throughput change = 0.0272727
Class 0:
Packet latency average = 30.7016
	minimum = 7
	maximum = 157
Network latency average = 30.7016
	minimum = 7
	maximum = 157
Slowest packet = 22835
Flit latency average = 31.2022
	minimum = 7
	maximum = 181
Slowest flit = 22493
Fragmentation average = 0
	minimum = 0
	maximum = 0
Injected packet rate average = 0.0203125
	minimum = 0.0155 (at node 15)
	maximum = 0.0255 (at node 4)
Accepted packet rate average = 0.02025
	minimum = 0 (at node 0)
	maximum = 0.324 (at node 11)
Injected flit rate average = 0.0203125
	minimum = 0.0155 (at node 15)
	maximum = 0.0255 (at node 4)
Accepted flit rate average= 0.02025
	minimum = 0 (at node 0)
	maximum = 0.324 (at node 11)
Injected packet length average = 1
Accepted packet length average = 1
Total in-flight flits = 10 (10 measured)
latency change    = 0.000212108
throughput change = 0.0185185
Class 0:
Packet latency average = 30.17
	minimum = 7
	maximum = 157
Network latency average = 30.17
	minimum = 7
	maximum = 157
Slowest packet = 22835
Flit latency average = 30.5098
	minimum = 7
	maximum = 181
Slowest flit = 22493
Fragmentation average = 0
	minimum = 0
	maximum = 0
Injected packet rate average = 0.0200625
	minimum = 0.0163333 (at node 10)
	maximum = 0.0243333 (at node 4)
Accepted packet rate average = 0.0201458
	minimum = 0 (at node 0)
	maximum = 0.322333 (at node 11)
Injected flit rate average = 0.0200625
	minimum = 0.0163333 (at node 10)
	maximum = 0.0243333 (at node 4)
Accepted flit rate average= 0.0201458
	minimum = 0 (at node 0)
	maximum = 0.322333 (at node 11)
Injected packet length average = 1
Accepted packet length average = 1
Total in-flight flits = 4 (4 measured)
latency change    = 0.01762
throughput change = 0.00517063
Class 0:
Packet latency average = 29.1145
	minimum = 7
	maximum = 157
Network latency average = 29.1145
	minimum = 7
	maximum = 157
Slowest packet = 22835
Flit latency average = 29.3736
	minimum = 7
	maximum = 181
Slowest flit = 22493
Fragmentation average = 0
	minimum = 0
	maximum = 0
Injected packet rate average = 0.0203125
	minimum = 0.016 (at node 10)
	maximum = 0.02425 (at node 4)
Accepted packet rate average = 0.0203281
	minimum = 0 (at node 0)
	maximum = 0.32525 (at node 11)
Injected flit rate average = 0.0203125
	minimum = 0.016 (at node 10)
	maximum = 0.02425 (at node 4)
Accepted flit rate average= 0.0203281
	minimum = 0 (at node 0)
	maximum = 0.32525 (at node 11)
Injected packet length average = 1
Accepted packet length average = 1
Total in-flight flits = 7 (7 measured)
latency change    = 0.0362537
throughput change = 0.00896746
Draining all recorded packets ...
Draining remaining packets ...
Time taken is 7085 cycles
Class 0:
Packet latency average = 26.505
	minimum = 7
	maximum = 100
Network latency average = 26.505
	minimum = 7
	maximum = 100
Slowest packet = 23994
Flit latency average = 26.505
	minimum = 7
	maximum = 100
Slowest flit = 23994
Fragmentation average = 0
	minimum = 0
	maximum = 0
Injected packet rate average = 0.019375
	minimum = 0.012 (at node 3)
	maximum = 0.024 (at node 7)
Accepted packet rate average = 0.0188125
	minimum = 0 (at node 0)
	maximum = 0.301 (at node 11)
Injected flit rate average = 0.019375
	minimum = 0.012 (at node 3)
	maximum = 0.024 (at node 7)
Accepted flit rate average= 0.0188125
	minimum = 0 (at node 0)
	maximum = 0.301 (at node 11)
Injected packet length average = 1
Accepted packet length average = 1
Total in-flight flits = 9 (0 measured)
latency change    = 1
throughput change = 1
Class 0:
Packet latency average = 25.2361
	minimum = 7
	maximum = 100
Network latency average = 25.2361
	minimum = 7
	maximum = 100
Slowest packet = 23994
Flit latency average = 25.2361
	minimum = 7
	maximum = 100
Slowest flit = 23994
Fragmentation average = 0
	minimum = 0
	maximum = 0
Injected packet rate average = 0.0186875
	minimum = 0.0135 (at node 3)
	maximum = 0.0255 (at node 1)
Accepted packet rate average = 0.0185312
	minimum = 0 (at node 0)
	maximum = 0.2965 (at node 11)
Injected flit rate average = 0.0186875
	minimum = 0.0135 (at node 3)
	maximum = 0.0255 (at node 1)
Accepted flit rate average= 0.0185312
	minimum = 0 (at node 0)
	maximum = 0.2965 (at node 11)
Injected packet length average = 1
Accepted packet length average = 1
Total in-flight flits = 5 (0 measured)
latency change    = 0.050281
throughput change = 0.0151771
Class 0:
Packet latency average = 28.6495
	minimum = 7
	maximum = 166
Network latency average = 28.6495
	minimum = 7
	maximum = 166
Slowest packet = 24634
Flit latency average = 28.6495
	minimum = 7
	maximum = 166
Slowest flit = 24634
Fragmentation average = 0
	minimum = 0
	maximum = 0
Injected packet rate average = 0.019625
	minimum = 0.013 (at node 3)
	maximum = 0.032 (at node 14)
Accepted packet rate average = 0.0194375
	minimum = 0 (at node 0)
	maximum = 0.311 (at node 11)
Injected flit rate average = 0.019625
	minimum = 0.013 (at node 3)
	maximum = 0.032 (at node 14)
Accepted flit rate average= 0.0194375
	minimum = 0 (at node 0)
	maximum = 0.311 (at node 11)
Injected packet length average = 1
Accepted packet length average = 1
Total in-flight flits = 8 (0 measured)
latency change    = 0.119144
throughput change = 0.0466238
Warmed up ...Time used is 3000 cycles
Class 0:
Packet latency average = 36.6098
	minimum = 7
	maximum = 206
Network latency average = 36.6098
	minimum = 7
	maximum = 206
Slowest packet = 24919
Flit latency average = 36.5446
	minimum = 7
	maximum = 206
Slowest flit = 24919
Fragmentation average = 0
	minimum = 0
	maximum = 0
Injected packet rate average = 0.0210625
	minimum = 0.013 (at node 15)
	maximum = 0.028 (at node 7)
Accepted packet rate average = 0.021
	minimum = 0 (at node 0)
	maximum = 0.336 (at node 11)
Injected flit rate average = 0.0210625
	minimum = 0.013 (at node 15)
	maximum = 0.028 (at node 7)
Accepted flit rate average= 0.021
	minimum = 0 (at node 0)
	maximum = 0.336 (at node 11)
Injected packet length average = 1
Accepted packet length average = 1
Total in-flight flits = 9 (9 measured)
latency change    = 0.217435
throughput change = 0.0744048
Class 0:
Packet latency average = 32.0583
	minimum = 7
	maximum = 206
Network latency average = 32.0583
	minimum = 7
	maximum = 206
Slowest packet = 24919
Flit latency average = 32.0809
	minimum = 7
	maximum = 206
Slowest flit = 24919
Fragmentation average = 0
	minimum = 0
	maximum = 0
Injected packet rate average = 0.0202188
	minimum = 0.015 (at node 15)
	maximum = 0.0255 (at node 7)
Accepted packet rate average = 0.0200938
	minimum = 0 (at node 0)
	maximum = 0.3215 (at node 11)
Injected flit rate average = 0.0202188
	minimum = 0.015 (at node 15)
	maximum = 0.0255 (at node 7)
Accepted flit rate average= 0.0200938
	minimum = 0 (at node 0)
	maximum = 0.3215 (at node 11)
Injected packet length average = 1
Accepted packet length average = 1
Total in-flight flits = 12 (12 measured)
latency change    = 0.141975
throughput change = 0.0451011
Class 0:
Packet latency average = 34.1777
	minimum = 7
	maximum = 276
Network latency average = 34.1281
	minimum = 7
	maximum = 276
Slowest packet = 25570
Flit latency average = 34.126
	minimum = 7
	maximum = 276
Slowest flit = 25570
Fragmentation average = 0
	minimum = 0
	maximum = 0
Injected packet rate average = 0.0205417
	minimum = 0.0146667 (at node 15)
	maximum = 0.025 (at node 7)
Accepted packet rate average = 0.0203333
	minimum = 0 (at node 0)
	maximum = 0.325333 (at node 11)
Injected flit rate average = 0.0205417
	minimum = 0.0146667 (at node 15)
	maximum = 0.025 (at node 7)
Accepted flit rate average= 0.0203333
	minimum = 0 (at node 0)
	maximum = 0.325333 (at node 11)
Injected packet length average = 1
Accepted packet length average = 1
Total in-flight flits = 18 (18 measured)
latency change    = 0.0620118
throughput change = 0.0117828
Class 0:
Packet latency average = 37.0176
	minimum = 7
	maximum = 276
Network latency average = 36.8967
	minimum = 7
	maximum = 276
Slowest packet = 25570
Flit latency average = 36.8783
	minimum = 7
	maximum = 276
Slowest flit = 25570
Fragmentation average = 0
	minimum = 0
	maximum = 0
Injected packet rate average = 0.0205313
	minimum = 0.0165 (at node 15)
	maximum = 0.0235 (at node 10)
Accepted packet rate average = 0.0205469
	minimum = 0 (at node 0)
	maximum = 0.32875 (at node 11)
Injected flit rate average = 0.0205313
	minimum = 0.0165 (at node 15)
	maximum = 0.0235 (at node 10)
Accepted flit rate average= 0.0205469
	minimum = 0 (at node 0)
	maximum = 0.32875 (at node 11)
Injected packet length average = 1
Accepted packet length average = 1
Total in-flight flits = 7 (7 measured)
latency change    = 0.0767179
throughput change = 0.0103929
Class 0:
Packet latency average = 35.0589
	minimum = 7
	maximum = 276
Network latency average = 34.961
	minimum = 7
	maximum = 276
Slowest packet = 25570
Flit latency average = 34.9556
	minimum = 7
	maximum = 276
Slowest flit = 25570
Fragmentation average = 0
	minimum = 0
	maximum = 0
Injected packet rate average = 0.0203125
	minimum = 0.0172 (at node 2)
	maximum = 0.0234 (at node 10)
Accepted packet rate average = 0.020275
	minimum = 0 (at node 0)
	maximum = 0.3244 (at node 11)
Injected flit rate average = 0.0203125
	minimum = 0.0172 (at node 2)
	maximum = 0.0234 (at node 10)
Accepted flit rate average= 0.020275
	minimum = 0 (at node 0)
	maximum = 0.3244 (at node 11)
Injected packet length average = 1
Accepted packet length average = 1
Total in-flight flits = 11 (11 measured)
latency change    = 0.05587
throughput change = 0.0134094
Class 0:
Packet latency average = 34.5628
	minimum = 7
	maximum = 276
Network latency average = 34.4818
	minimum = 7
	maximum = 276
Slowest packet = 25570
Flit latency average = 34.4793
	minimum = 7
	maximum = 276
Slowest flit = 25570
Fragmentation average = 0
	minimum = 0
	maximum = 0
Injected packet rate average = 0.0205208
	minimum = 0.018 (at node 2)
	maximum = 0.0233333 (at node 11)
Accepted packet rate average = 0.0204063
	minimum = 0 (at node 0)
	maximum = 0.3265 (at node 11)
Injected flit rate average = 0.0205208
	minimum = 0.018 (at node 2)
	maximum = 0.0233333 (at node 11)
Accepted flit rate average= 0.0204063
	minimum = 0 (at node 0)
	maximum = 0.3265 (at node 11)
Injected packet length average = 1
Accepted packet length average = 1
Total in-flight flits = 19 (19 measured)
latency change    = 0.0143528
throughput change = 0.00643185
Class 0:
Packet latency average = 34.7253
	minimum = 7
	maximum = 276
Network latency average = 34.6558
	minimum = 7
	maximum = 276
Slowest packet = 25570
Flit latency average = 34.6531
	minimum = 7
	maximum = 276
Slowest flit = 25570
Fragmentation average = 0
	minimum = 0
	maximum = 0
Injected packet rate average = 0.0203929
	minimum = 0.0187143 (at node 5)
	maximum = 0.0224286 (at node 7)
Accepted packet rate average = 0.0203839
	minimum = 0 (at node 0)
	maximum = 0.326143 (at node 11)
Injected flit rate average = 0.0203929
	minimum = 0.0187143 (at node 5)
	maximum = 0.0224286 (at node 7)
Accepted flit rate average= 0.0203839
	minimum = 0 (at node 0)
	maximum = 0.326143 (at node 11)
Injected packet length average = 1
Accepted packet length average = 1
Total in-flight flits = 9 (9 measured)
latency change    = 0.0046792
throughput change = 0.00109505
Draining all recorded packets ...
Draining remaining packets ...
Time taken is 10068 cycles
Class 0:
Packet latency average = 31.675
	minimum = 7
	maximum = 152
Network latency average = 31.675
	minimum = 7
	maximum = 152
Slowest packet = 27343
Flit latency average = 31.675
	minimum = 7
	maximum = 152
Slowest flit = 27343
Fragmentation average = 0
	minimum = 0
	maximum = 0
Injected packet rate average = 0.0205
	minimum = 0.014 (at node 0)
	maximum = 0.028 (at node 3)
Accepted packet rate average = 0.02
	minimum = 0 (at node 0)
	maximum = 0.32 (at node 11)
Injected flit rate average = 0.0205
	minimum = 0.014 (at node 0)
	maximum = 0.028 (at node 3)
Accepted flit rate average= 0.02
	minimum = 0 (at node 0)
	maximum = 0.32 (at node 11)
Injected packet length average = 1
Accepted packet length average = 1
Total in-flight flits = 8 (0 measured)
latency change    = 1
throughput change = 1
Class 0:
Packet latency average = 36.0761
	minimum = 7
	maximum = 315
Network latency average = 36.0076
	minimum = 7
	maximum = 315
Slowest packet = 27464
Flit latency average = 36.0076
	minimum = 7
	maximum = 315
Slowest flit = 27464
Fragmentation average = 0
	minimum = 0
	maximum = 0
Injected packet rate average = 0.0208438
	minimum = 0.0155 (at node 7)
	maximum = 0.0275 (at node 3)
Accepted packet rate average = 0.0205313
	minimum = 0 (at node 0)
	maximum = 0.3285 (at node 11)
Injected flit rate average = 0.0208438
	minimum = 0.0155 (at node 7)
	maximum = 0.0275 (at node 3)
Accepted flit rate average= 0.0205313
	minimum = 0 (at node 0)
	maximum = 0.3285 (at node 11)
Injected packet length average = 1
Accepted packet length average = 1
Total in-flight flits = 10 (0 measured)
latency change    = 0.121995
throughput change = 0.0258752
Class 0:
Packet latency average = 34.5185
	minimum = 7
	maximum = 229
Network latency average = 34.5185
	minimum = 7
	maximum = 229
Slowest packet = 27966
Flit latency average = 34.5185
	minimum = 7
	maximum = 229
Slowest flit = 27966
Fragmentation average = 0
	minimum = 0
	maximum = 0
Injected packet rate average = 0.0206875
	minimum = 0.014 (at node 1)
	maximum = 0.024 (at node 8)
Accepted packet rate average = 0.02025
	minimum = 0 (at node 0)
	maximum = 0.324 (at node 11)
Injected flit rate average = 0.0206875
	minimum = 0.014 (at node 1)
	maximum = 0.024 (at node 8)
Accepted flit rate average= 0.02025
	minimum = 0 (at node 0)
	maximum = 0.324 (at node 11)
Injected packet length average = 1
Accepted packet length average = 1
Total in-flight flits = 17 (0 measured)
latency change    = 0.0451232
throughput change = 0.0138889
Warmed up ...Time used is 3000 cycles
Class 0:
Packet latency average = 24.957
	minimum = 7
	maximum = 118
Network latency average = 24.957
	minimum = 7
	maximum = 118
Slowest packet = 28079
Flit latency average = 27.3668
	minimum = 7
	maximum = 249
Slowest flit = 27970
Fragmentation average = 0
	minimum = 0
	maximum = 0
Injected packet rate average = 0.0196875
	minimum = 0.012 (at node 0)
	maximum = 0.03 (at node 3)
Accepted packet rate average = 0.0199375
	minimum = 0 (at node 0)
	maximum = 0.319 (at node 11)
Injected flit rate average = 0.0196875
	minimum = 0.012 (at node 0)
	maximum = 0.03 (at node 3)
Accepted flit rate average= 0.0199375
	minimum = 0 (at node 0)
	maximum = 0.319 (at node 11)
Injected packet length average = 1
Accepted packet length average = 1
Total in-flight flits = 13 (13 measured)
latency change    = 0.383122
throughput change = 0.015674
Class 0:
Packet latency average = 25.9373
	minimum = 7
	maximum = 118
Network latency average = 25.9373
	minimum = 7
	maximum = 118
Slowest packet = 28079
Flit latency average = 27.1763
	minimum = 7
	maximum = 249
Slowest flit = 27970
Fragmentation average = 0
	minimum = 0
	maximum = 0
Injected packet rate average = 0.018625
	minimum = 0.0135 (at node 0)
	maximum = 0.0235 (at node 3)
Accepted packet rate average = 0.0189687
	minimum = 0 (at node 0)
	maximum = 0.3035 (at node 11)
Injected flit rate average = 0.018625
	minimum = 0.0135 (at node 0)
	maximum = 0.0235 (at node 3)
Accepted flit rate average= 0.0189687
	minimum = 0 (at node 0)
	maximum = 0.3035 (at node 11)
Injected packet length average = 1
Accepted packet length average = 1
Total in-flight flits = 6 (6 measured)
latency change    = 0.0377963
throughput change = 0.0510708
Class 0:
Packet latency average = 28.2833
	minimum = 7
	maximum = 226
Network latency average = 28.2833
	minimum = 7
	maximum = 226
Slowest packet = 28882
Flit latency average = 29.0781
	minimum = 7
	maximum = 249
Slowest flit = 27970
Fragmentation average = 0
	minimum = 0
	maximum = 0
Injected packet rate average = 0.0185
	minimum = 0.015 (at node 7)
	maximum = 0.0223333 (at node 2)
Accepted packet rate average = 0.0186667
	minimum = 0 (at node 0)
	maximum = 0.298667 (at node 11)
Injected flit rate average = 0.0185
	minimum = 0.015 (at node 7)
	maximum = 0.0223333 (at node 2)
Accepted flit rate average= 0.0186667
	minimum = 0 (at node 0)
	maximum = 0.298667 (at node 11)
Injected packet length average = 1
Accepted packet length average = 1
Total in-flight flits = 9 (9 measured)
latency change    = 0.0829461
throughput change = 0.016183
Class 0:
Packet latency average = 33.2623
	minimum = 7
	maximum = 320
Network latency average = 33.1299
	minimum = 7
	maximum = 320
Slowest packet = 29160
Flit latency average = 33.6374
	minimum = 7
	maximum = 320
Slowest flit = 29160
Fragmentation average = 0
	minimum = 0
	maximum = 0
Injected packet rate average = 0.0193437
	minimum = 0.015 (at node 7)
	maximum = 0.0235 (at node 14)
Accepted packet rate average = 0.0193906
	minimum = 0 (at node 0)
	maximum = 0.31025 (at node 11)
Injected flit rate average = 0.0193437
	minimum = 0.015 (at node 7)
	maximum = 0.0235 (at node 14)
Accepted flit rate average= 0.0193906
	minimum = 0 (at node 0)
	maximum = 0.31025 (at node 11)
Injected packet length average = 1
Accepted packet length average = 1
Total in-flight flits = 14 (14 measured)
latency change    = 0.149689
throughput change = 0.0373355
Class 0:
Packet latency average = 32.4981
	minimum = 7
	maximum = 320
Network latency average = 32.3937
	minimum = 7
	maximum = 320
Slowest packet = 29160
Flit latency average = 32.8031
	minimum = 7
	maximum = 320
Slowest flit = 29160
Fragmentation average = 0
	minimum = 0
	maximum = 0
Injected packet rate average = 0.019625
	minimum = 0.016 (at node 13)
	maximum = 0.0228 (at node 14)
Accepted packet rate average = 0.0196125
	minimum = 0 (at node 0)
	maximum = 0.3138 (at node 11)
Injected flit rate average = 0.019625
	minimum = 0.016 (at node 13)
	maximum = 0.0228 (at node 14)
Accepted flit rate average= 0.0196125
	minimum = 0 (at node 0)
	maximum = 0.3138 (at node 11)
Injected packet length average = 1
Accepted packet length average = 1
Total in-flight flits = 18 (18 measured)
latency change    = 0.0235149
throughput change = 0.0113129
Class 0:
Packet latency average = 32.9397
	minimum = 7
	maximum = 320
Network latency average = 32.8533
	minimum = 7
	maximum = 320
Slowest packet = 29160
Flit latency average = 33.1888
	minimum = 7
	maximum = 320
Slowest flit = 29160
Fragmentation average = 0
	minimum = 0
	maximum = 0
Injected packet rate average = 0.019625
	minimum = 0.0165 (at node 13)
	maximum = 0.022 (at node 2)
Accepted packet rate average = 0.0196979
	minimum = 0 (at node 0)
	maximum = 0.315167 (at node 11)
Injected flit rate average = 0.019625
	minimum = 0.0165 (at node 13)
[...]
Slowest packet = 292477
Flit latency average = 37.0243
	minimum = 7
	maximum = 342
Slowest flit = 292477
Fragmentation average = 0
	minimum = 0
	maximum = 0
Injected packet rate average = 0.0208333
	minimum = 0.0176667 (at node 14)
	maximum = 0.0253333 (at node 2)
Accepted packet rate average = 0.0205417
	minimum = 0 (at node 0)
	maximum = 0.328667 (at node 11)
Injected flit rate average = 0.0208333
	minimum = 0.0176667 (at node 14)
	maximum = 0.0253333 (at node 2)
Accepted flit rate average= 0.0205417
	minimum = 0 (at node 0)
	maximum = 0.328667 (at node 11)
Injected packet length average = 1
Accepted packet length average = 1
Total in-flight flits = 18 (18 measured)
latency change    = 0.0190752
throughput change = 0.0233266
Class 0:
Packet latency average = 38.0368
	minimum = 7
	maximum = 342
Network latency average = 37.9865
	minimum = 7
	maximum = 342
Slowest packet = 292477
Flit latency average = 37.9393
	minimum = 7
	maximum = 342
Slowest flit = 292477
Fragmentation average = 0
	minimum = 0
	maximum = 0
Injected packet rate average = 0.0210625
	minimum = 0.018 (at node 14)
	maximum = 0.02525 (at node 2)
Accepted packet rate average = 0.0208438
	minimum = 0 (at node 0)
	maximum = 0.3335 (at node 11)
Injected flit rate average = 0.0210625
	minimum = 0.018 (at node 14)
	maximum = 0.02525 (at node 2)
Accepted flit rate average= 0.0208438
	minimum = 0 (at node 0)
	maximum = 0.3335 (at node 11)
Injected packet length average = 1
Accepted packet length average = 1
Total in-flight flits = 18 (18 measured)
latency change    = 0.0241801
throughput change = 0.0144928
Class 0:
Packet latency average = 37.3705
	minimum = 7
	maximum = 342
Network latency average = 37.3303
	minimum = 7
	maximum = 342
Slowest packet = 292477
Flit latency average = 37.2943
	minimum = 7
	maximum = 342
Slowest flit = 292477
Fragmentation average = 0
	minimum = 0
	maximum = 0
Injected packet rate average = 0.0210125
	minimum = 0.0188 (at node 11)
	maximum = 0.0238 (at node 10)
Accepted packet rate average = 0.0209
	minimum = 0 (at node 0)
	maximum = 0.3344 (at node 11)
Injected flit rate average = 0.0210125
	minimum = 0.0188 (at node 11)
	maximum = 0.0238 (at node 10)
Accepted flit rate average= 0.0209
	minimum = 0 (at node 0)
	maximum = 0.3344 (at node 11)
Injected packet length average = 1
Accepted packet length average = 1
Total in-flight flits = 13 (13 measured)
latency change    = 0.0178306
throughput change = 0.00269139
Draining all recorded packets ...
Draining remaining packets ...
Time taken is 8087 cycles
Class 0:
Packet latency average = 25.0543
	minimum = 7
	maximum = 82
Network latency average = 25.0543
	minimum = 7
	maximum = 82
Slowest packet = 293917
Flit latency average = 25.0543
	minimum = 7
	maximum = 82
Slowest flit = 293917
Fragmentation average = 0
	minimum = 0
	maximum = 0
Injected packet rate average = 0.0201875
	minimum = 0.01 (at node 8)
	maximum = 0.029 (at node 12)
Accepted packet rate average = 0.0195625
	minimum = 0 (at node 0)
	maximum = 0.313 (at node 11)
Injected flit rate average = 0.0201875
	minimum = 0.01 (at node 8)
	maximum = 0.029 (at node 12)
Accepted flit rate average= 0.0195625
	minimum = 0 (at node 0)
	maximum = 0.313 (at node 11)
Injected packet length average = 1
Accepted packet length average = 1
Total in-flight flits = 10 (0 measured)
latency change    = 1
throughput change = 1
Class 0:
Packet latency average = 26.1222
	minimum = 7
	maximum = 126
Network latency average = 26.1222
	minimum = 7
	maximum = 126
Slowest packet = 294276
Flit latency average = 26.1222
	minimum = 7
	maximum = 126
Slowest flit = 294276
Fragmentation average = 0
	minimum = 0
	maximum = 0
Injected packet rate average = 0.020125
	minimum = 0.0145 (at node 9)
	maximum = 0.0255 (at node 12)
Accepted packet rate average = 0.0196875
	minimum = 0 (at node 0)
	maximum = 0.315 (at node 11)
Injected flit rate average = 0.020125
	minimum = 0.0145 (at node 9)
	maximum = 0.0255 (at node 12)
Accepted flit rate average= 0.0196875
	minimum = 0 (at node 0)
	maximum = 0.315 (at node 11)
Injected packet length average = 1
Accepted packet length average = 1
Total in-flight flits = 14 (0 measured)
latency change    = 0.0408813
throughput change = 0.00634921
Class 0:
Packet latency average = 33.1832
	minimum = 7
	maximum = 263
Network latency average = 33.0932
	minimum = 7
	maximum = 263
Slowest packet = 294399
Flit latency average = 33.0932
	minimum = 7
	maximum = 263
Slowest flit = 294399
Fragmentation average = 0
	minimum = 0
	maximum = 0
Injected packet rate average = 0.019625
	minimum = 0.014 (at node 4)
	maximum = 0.027 (at node 3)
Accepted packet rate average = 0.020125
	minimum = 0 (at node 0)
	maximum = 0.322 (at node 11)
Injected flit rate average = 0.019625
	minimum = 0.014 (at node 4)
	maximum = 0.027 (at node 3)
Accepted flit rate average= 0.020125
	minimum = 0 (at node 0)
	maximum = 0.322 (at node 11)
Injected packet length average = 1
Accepted packet length average = 1
Total in-flight flits = 6 (0 measured)
latency change    = 0.212788
throughput change = 0.0217391
Warmed up ...Time used is 3000 cycles
Class 0:
Packet latency average = 23.6103
	minimum = 7
	maximum = 62
Network latency average = 23.6103
	minimum = 7
	maximum = 62
Slowest packet = 294719
Flit latency average = 23.7534
	minimum = 7
	maximum = 62
Slowest flit = 294719
Fragmentation average = 0
	minimum = 0
	maximum = 0
Injected packet rate average = 0.0188125
	minimum = 0.013 (at node 12)
	maximum = 0.031 (at node 6)
Accepted packet rate average = 0.0185
	minimum = 0 (at node 0)
	maximum = 0.296 (at node 11)
Injected flit rate average = 0.0188125
	minimum = 0.013 (at node 12)
	maximum = 0.031 (at node 6)
Accepted flit rate average= 0.0185
	minimum = 0 (at node 0)
	maximum = 0.296 (at node 11)
Injected packet length average = 1
Accepted packet length average = 1
Total in-flight flits = 11 (11 measured)
latency change    = 0.405453
throughput change = 0.0878378
Class 0:
Packet latency average = 23.1939
	minimum = 7
	maximum = 69
Network latency average = 23.1939
	minimum = 7
	maximum = 69
Slowest packet = 295277
Flit latency average = 23.2688
	minimum = 7
	maximum = 69
Slowest flit = 295277
Fragmentation average = 0
	minimum = 0
	maximum = 0
Injected packet rate average = 0.0187812
	minimum = 0.0135 (at node 10)
	maximum = 0.026 (at node 11)
Accepted packet rate average = 0.0187187
	minimum = 0 (at node 0)
	maximum = 0.2995 (at node 11)
Injected flit rate average = 0.0187812
	minimum = 0.0135 (at node 10)
	maximum = 0.026 (at node 11)
Accepted flit rate average= 0.0187187
	minimum = 0 (at node 0)
	maximum = 0.2995 (at node 11)
Injected packet length average = 1
Accepted packet length average = 1
Total in-flight flits = 8 (8 measured)
latency change    = 0.0179536
throughput change = 0.0116861
Class 0:
Packet latency average = 25.51
	minimum = 7
	maximum = 136
Network latency average = 25.51
	minimum = 7
	maximum = 136
Slowest packet = 295509
Flit latency average = 25.5442
	minimum = 7
	maximum = 136
Slowest flit = 295509
Fragmentation average = 0
	minimum = 0
	maximum = 0
Injected packet rate average = 0.0189375
	minimum = 0.0143333 (at node 12)
	maximum = 0.0253333 (at node 6)
Accepted packet rate average = 0.018875
	minimum = 0 (at node 0)
	maximum = 0.302 (at node 11)
Injected flit rate average = 0.0189375
	minimum = 0.0143333 (at node 12)
	maximum = 0.0253333 (at node 6)
Accepted flit rate average= 0.018875
	minimum = 0 (at node 0)
	maximum = 0.302 (at node 11)
Injected packet length average = 1
Accepted packet length average = 1
Total in-flight flits = 9 (9 measured)
latency change    = 0.0907907
throughput change = 0.00827815
Class 0:
Packet latency average = 27.2604
	minimum = 7
	maximum = 208
Network latency average = 27.2521
	minimum = 7
	maximum = 208
Slowest packet = 295702
Flit latency average = 27.269
	minimum = 7
	maximum = 208
Slowest flit = 295702
Fragmentation average = 0
	minimum = 0
	maximum = 0
Injected packet rate average = 0.0189687
	minimum = 0.01625 (at node 10)
	maximum = 0.0245 (at node 6)
Accepted packet rate average = 0.0189375
	minimum = 0 (at node 0)
	maximum = 0.303 (at node 11)
Injected flit rate average = 0.0189687
	minimum = 0.01625 (at node 10)
	maximum = 0.0245 (at node 6)
Accepted flit rate average= 0.0189375
	minimum = 0 (at node 0)
	maximum = 0.303 (at node 11)
Injected packet length average = 1
Accepted packet length average = 1
Total in-flight flits = 8 (8 measured)
latency change    = 0.0642091
throughput change = 0.00330033
Class 0:
Packet latency average = 28.6013
	minimum = 7
	maximum = 208
Network latency average = 28.5948
	minimum = 7
	maximum = 208
Slowest packet = 295702
Flit latency average = 28.6028
	minimum = 7
	maximum = 208
Slowest flit = 295702
Fragmentation average = 0
	minimum = 0
	maximum = 0
Injected packet rate average = 0.019375
	minimum = 0.0166 (at node 9)
	maximum = 0.0226 (at node 6)
Accepted packet rate average = 0.019325
	minimum = 0 (at node 0)
	maximum = 0.3092 (at node 11)
Injected flit rate average = 0.019375
	minimum = 0.0166 (at node 9)
	maximum = 0.0226 (at node 6)
Accepted flit rate average= 0.019325
	minimum = 0 (at node 0)
	maximum = 0.3092 (at node 11)
Injected packet length average = 1
Accepted packet length average = 1
Total in-flight flits = 10 (10 measured)
latency change    = 0.0468837
throughput change = 0.0200517
Class 0:
Packet latency average = 28.1118
	minimum = 7
	maximum = 208
Network latency average = 28.1063
	minimum = 7
	maximum = 208
Slowest packet = 295702
Flit latency average = 28.1147
	minimum = 7
	maximum = 208
Slowest flit = 295702
Fragmentation average = 0
	minimum = 0
	maximum = 0
Injected packet rate average = 0.0193229
	minimum = 0.0176667 (at node 9)
	maximum = 0.0216667 (at node 6)
Accepted packet rate average = 0.0192604
	minimum = 0 (at node 0)
	maximum = 0.308167 (at node 11)
Injected flit rate average = 0.0193229
	minimum = 0.0176667 (at node 9)
	maximum = 0.0216667 (at node 6)
Accepted flit rate average= 0.0192604
	minimum = 0 (at node 0)
	maximum = 0.308167 (at node 11)
Injected packet length average = 1
Accepted packet length average = 1
Total in-flight flits = 12 (12 measured)
latency change    = 0.0174135
throughput change = 0.00335316
Class 0:
Packet latency average = 28.3093
	minimum = 7
	maximum = 208
Network latency average = 28.3047
	minimum = 7
	maximum = 208
Slowest packet = 295702
Flit latency average = 28.3112
	minimum = 7
	maximum = 208
Slowest flit = 295702
Fragmentation average = 0
	minimum = 0
	maximum = 0
Injected packet rate average = 0.01925
	minimum = 0.0177143 (at node 2)
	maximum = 0.0218571 (at node 0)
Accepted packet rate average = 0.01925
	minimum = 0 (at node 0)
	maximum = 0.308 (at node 11)
Injected flit rate average = 0.01925
	minimum = 0.0177143 (at node 2)
	maximum = 0.0218571 (at node 0)
Accepted flit rate average= 0.01925
	minimum = 0 (at node 0)
	maximum = 0.308 (at node 11)
Injected packet length average = 1
Accepted packet length average = 1
Total in-flight flits = 6 (6 measured)
latency change    = 0.0069775
throughput change = 0.000541126
Draining all recorded packets ...
Draining remaining packets ...
Time taken is 10093 cycles
Class 0:
Packet latency average = 24.8185
	minimum = 7
	maximum = 117
Network latency average = 24.8185
	minimum = 7
	maximum = 117
Slowest packet = 297158
Flit latency average = 24.8185
	minimum = 7
	maximum = 117
Slowest flit = 297158
Fragmentation average = 0
	minimum = 0
	maximum = 0
Injected packet rate average = 0.0195
	minimum = 0.013 (at node 4)
	maximum = 0.03 (at node 5)
Accepted packet rate average = 0.0189375
	minimum = 0 (at node 0)
	maximum = 0.303 (at node 11)
Injected flit rate average = 0.0195
	minimum = 0.013 (at node 4)
	maximum = 0.03 (at node 5)
Accepted flit rate average= 0.0189375
	minimum = 0 (at node 0)
	maximum = 0.303 (at node 11)
Injected packet length average = 1
Accepted packet length average = 1
Total in-flight flits = 9 (0 measured)
latency change    = 1
throughput change = 1
Class 0:
Packet latency average = 28.816
	minimum = 7
	maximum = 152
Network latency average = 28.816
	minimum = 7
	maximum = 152
Slowest packet = 297251
Flit latency average = 28.816
	minimum = 7
	maximum = 152
Slowest flit = 297251
Fragmentation average = 0
	minimum = 0
	maximum = 0
Injected packet rate average = 0.0200625
	minimum = 0.0165 (at node 15)
	maximum = 0.0235 (at node 3)
Accepted packet rate average = 0.019875
	minimum = 0 (at node 0)
	maximum = 0.318 (at node 11)
Injected flit rate average = 0.0200625
	minimum = 0.0165 (at node 15)
	maximum = 0.0235 (at node 3)
Accepted flit rate average= 0.019875
	minimum = 0 (at node 0)
	maximum = 0.318 (at node 11)
Injected packet length average = 1
Accepted packet length average = 1
Total in-flight flits = 6 (0 measured)
latency change    = 0.138727
throughput change = 0.0471698
Class 0:
Packet latency average = 27.4078
	minimum = 7
	maximum = 115
Network latency average = 27.4078
	minimum = 7
	maximum = 115
Slowest packet = 297550
Flit latency average = 27.4078
	minimum = 7
	maximum = 115
Slowest flit = 297550
Fragmentation average = 0
	minimum = 0
	maximum = 0
Injected packet rate average = 0.0229375
	minimum = 0.016 (at node 9)
	maximum = 0.031 (at node 1)
Accepted packet rate average = 0.022375
	minimum = 0 (at node 0)
	maximum = 0.358 (at node 11)
Injected flit rate average = 0.0229375
	minimum = 0.016 (at node 9)
	maximum = 0.031 (at node 1)
Accepted flit rate average= 0.022375
	minimum = 0 (at node 0)
	maximum = 0.358 (at node 11)
Injected packet length average = 1
Accepted packet length average = 1
Total in-flight flits = 15 (0 measured)
latency change    = 0.0513801
throughput change = 0.111732
Warmed up ...Time used is 3000 cycles
Class 0:
Packet latency average = 27.534
	minimum = 7
	maximum = 147
Network latency average = 27.534
	minimum = 7
	maximum = 147
Slowest packet = 297953
Flit latency average = 29.7573
	minimum = 7
	maximum = 147
Slowest flit = 297953
Fragmentation average = 0
	minimum = 0
	maximum = 0
Injected packet rate average = 0.019
	minimum = 0.013 (at node 10)
	maximum = 0.027 (at node 1)
Accepted packet rate average = 0.0193125
	minimum = 0 (at node 0)
	maximum = 0.309 (at node 11)
Injected flit rate average = 0.019
	minimum = 0.013 (at node 10)
	maximum = 0.027 (at node 1)
Accepted flit rate average= 0.0193125
	minimum = 0 (at node 0)
	maximum = 0.309 (at node 11)
Injected packet length average = 1
Accepted packet length average = 1
Total in-flight flits = 10 (10 measured)
latency change    = 0.00458314
throughput change = 0.158576
Class 0:
Packet latency average = 35.0793
	minimum = 7
	maximum = 300
Network latency average = 35.0544
	minimum = 7
	maximum = 300
Slowest packet = 298420
Flit latency average = 35.9271
	minimum = 7
	maximum = 300
Slowest flit = 298420
Fragmentation average = 0
	minimum = 0
	maximum = 0
Injected packet rate average = 0.0204063
	minimum = 0.014 (at node 9)
	maximum = 0.027 (at node 14)
Accepted packet rate average = 0.0205625
	minimum = 0 (at node 0)
	maximum = 0.329 (at node 11)
Injected flit rate average = 0.0204063
	minimum = 0.014 (at node 9)
	maximum = 0.027 (at node 14)
Accepted flit rate average= 0.0205625
	minimum = 0 (at node 0)
	maximum = 0.329 (at node 11)
Injected packet length average = 1
Accepted packet length average = 1
Total in-flight flits = 10 (10 measured)
latency change    = 0.215093
throughput change = 0.0607903
Class 0:
Packet latency average = 33.2236
	minimum = 7
	maximum = 300
Network latency average = 33.2068
	minimum = 7
	maximum = 300
Slowest packet = 298420
Flit latency average = 33.8318
	minimum = 7
	maximum = 300
Slowest flit = 298420
Fragmentation average = 0
	minimum = 0
	maximum = 0
Injected packet rate average = 0.0200208
	minimum = 0.0156667 (at node 9)
	maximum = 0.0243333 (at node 14)
Accepted packet rate average = 0.0200625
	minimum = 0 (at node 0)
	maximum = 0.321 (at node 11)
Injected flit rate average = 0.0200208
	minimum = 0.0156667 (at node 9)
	maximum = 0.0243333 (at node 14)
Accepted flit rate average= 0.0200625
	minimum = 0 (at node 0)
	maximum = 0.321 (at node 11)
Injected packet length average = 1
Accepted packet length average = 1
Total in-flight flits = 13 (13 measured)
latency change    = 0.0558544
throughput change = 0.0249221
Class 0:
Packet latency average = 33.4275
	minimum = 7
	maximum = 300
Network latency average = 33.415
	minimum = 7
	maximum = 300
Slowest packet = 298420
Flit latency average = 33.8766
	minimum = 7
	maximum = 300
Slowest flit = 298420
Fragmentation average = 0
	minimum = 0
	maximum = 0
Injected packet rate average = 0.0202344
	minimum = 0.0175 (at node 9)
	maximum = 0.024 (at node 14)
Accepted packet rate average = 0.0202656
	minimum = 0 (at node 0)
	maximum = 0.32425 (at node 11)
Injected flit rate average = 0.0202344
	minimum = 0.0175 (at node 9)
	maximum = 0.024 (at node 14)
Accepted flit rate average= 0.0202656
	minimum = 0 (at node 0)
	maximum = 0.32425 (at node 11)
Injected packet length average = 1
Accepted packet length average = 1
Total in-flight flits = 13 (13 measured)
latency change    = 0.00609763
throughput change = 0.0100231
Class 0:
Packet latency average = 32.102
	minimum = 7
	maximum = 300
Network latency average = 32.092
	minimum = 7
	maximum = 300
Slowest packet = 298420
Flit latency average = 32.4755
	minimum = 7
	maximum = 300
Slowest flit = 298420
Fragmentation average = 0
	minimum = 0
	maximum = 0
Injected packet rate average = 0.02025
	minimum = 0.018 (at node 15)
	maximum = 0.0222 (at node 3)
Accepted packet rate average = 0.0201625
	minimum = 0 (at node 0)
	maximum = 0.3226 (at node 11)
Injected flit rate average = 0.02025
	minimum = 0.018 (at node 15)
	maximum = 0.0222 (at node 3)
Accepted flit rate average= 0.0201625
	minimum = 0 (at node 0)
	maximum = 0.3226 (at node 11)
Injected packet length average = 1
Accepted packet length average = 1
Total in-flight flits = 22 (22 measured)
latency change    = 0.0412888
throughput change = 0.00511469
Class 0:
Packet latency average = 33.5348
	minimum = 7
	maximum = 300
Network latency average = 33.4723
	minimum = 7
	maximum = 300
Slowest packet = 298420
Flit latency average = 33.7763
	minimum = 7
	maximum = 300
Slowest flit = 298420
Fragmentation average = 0
	minimum = 0
	maximum = 0
Injected packet rate average = 0.0205521
	minimum = 0.0181667 (at node 10)
	maximum = 0.0228333 (at node 3)
Accepted packet rate average = 0.0204896
	minimum = 0 (at node 0)
	maximum = 0.327833 (at node 11)
Injected flit rate average = 0.0205521
	minimum = 0.0181667 (at node 10)
	maximum = 0.0228333 (at node 3)
Accepted flit rate average= 0.0204896
	minimum = 0 (at node 0)
	maximum = 0.327833 (at node 11)
Injected packet length average = 1
Accepted packet length average = 1
Total in-flight flits = 21 (21 measured)
latency change    = 0.0427267
throughput change = 0.0159634
Draining all recorded packets ...
Draining remaining packets ...
Time taken is 9154 cycles
====== Overall Traffic Statistics ======
====== Traffic class 0 ======
Packet latency average = 33.3391 (100 samples)
	minimum = 7 (100 samples)
	maximum = 352.63 (100 samples)
Network latency average = 33.0541 (100 samples)
	minimum = 7 (100 samples)
	maximum = 343.14 (100 samples)
Flit latency average = 33.2844 (100 samples)
	minimum = 7 (100 samples)
	maximum = 352.3 (100 samples)
Fragmentation average = 0 (100 samples)
	minimum = 0 (100 samples)
	maximum = 0 (100 samples)
Injected packet rate average = 0.020034 (100 samples)
	minimum = 0.0170294 (100 samples)
	maximum = 0.0232847 (100 samples)
Accepted packet rate average = 0.0200406 (100 samples)
	minimum = 0 (100 samples)
	maximum = 0.32065 (100 samples)
Injected flit rate average = 0.020034 (100 samples)
	minimum = 0.0170294 (100 samples)
	maximum = 0.0232847 (100 samples)
Accepted flit rate average = 0.0200406 (100 samples)
	minimum = 0 (100 samples)
	maximum = 0.32065 (100 samples)
Injected packet size average = 1 (100 samples)
Accepted packet size average = 1 (100 samples)
Hops average = 3.50345 (100 samples)
Total run time 14.4615
