BEGIN Configuration File: /tmp/tmp8k1pw9ls.cfg
topology = mesh;
k = 4;
n = 2;
routing_function = romm;
num_vcs = 4;
vc_buf_size = 4;
wait_for_tail_credit = 1;
vc_allocator = islip;
sw_allocator = islip;
alloc_iters = 1;
credit_delay = 2;
routing_delay = 1;
vc_alloc_delay = 1;
sw_alloc_delay = 1;
input_speedup = 2;
output_speedup = 1;
internal_speedup = 1.0;
traffic = uniform;
packet_size = 1;
sim_type = latency;
injection_rate = 0.1;
warmup_periods = 3;
sample_period = 1000;
sim_count = 100;
seed = 2;

END Configuration File: /tmp/tmp8k1pw9ls.cfg
Class 0:
Packet latency average = 20.3044
	minimum = 7
	maximum = 54
Network latency average = 20.2992
	minimum = 7
	maximum = 54
Slowest packet = 1114
Flit latency average = 20.2992
	minimum = 7
	maximum = 54
Slowest flit = 1114
Fragmentation average = 0
	minimum = 0
	maximum = 0
Injected packet rate average = 0.097875
	minimum = 0.077 (at node 9)
	maximum = 0.116 (at node 6)
Accepted packet rate average = 0.0956875
	minimum = 0.083 (at node 3)
	maximum = 0.105 (at node 10)
Injected flit rate average = 0.097875
	minimum = 0.077 (at node 9)
	maximum = 0.116 (at node 6)
Accepted flit rate average= 0.0956875
	minimum = 0.083 (at node 3)
	maximum = 0.105 (at node 10)
Injected packet length average = 1
Accepted packet length average = 1
Total in-flight flits = 35 (0 measured)
latency change    = 1
throughput change = 1
Class 0:
Packet latency average = 20.1784
	minimum = 7
	maximum = 54
Network latency average = 20.1753
	minimum = 7
	maximum = 54
Slowest packet = 1114
Flit latency average = 20.1753
	minimum = 7
	maximum = 54
Slowest flit = 1114
Fragmentation average = 0
	minimum = 0
	maximum = 0
Injected packet rate average = 0.0997187
	minimum = 0.0845 (at node 1)
	maximum = 0.12 (at node 10)
Accepted packet rate average = 0.0987813
	minimum = 0.093 (at node 3)
	maximum = 0.1105 (at node 0)
Injected flit rate average = 0.0997187
	minimum = 0.0845 (at node 1)
	maximum = 0.12 (at node 10)
Accepted flit rate average= 0.0987813
	minimum = 0.093 (at node 3)
	maximum = 0.1105 (at node 0)
Injected packet length average = 1
Accepted packet length average = 1
Total in-flight flits = 30 (0 measured)
latency change    = 0.0062419
throughput change = 0.0313192
Class 0:
Packet latency average = 20.0492
	minimum = 7
	maximum = 45
Network latency average = 20.0492
	minimum = 7
	maximum = 45
Slowest packet = 4692
Flit latency average = 20.0492
	minimum = 7
	maximum = 45
Slowest flit = 4692
Fragmentation average = 0
	minimum = 0
	maximum = 0
Injected packet rate average = 0.0983125
	minimum = 0.086 (at node 6)
	maximum = 0.119 (at node 10)
Accepted packet rate average = 0.0978125
	minimum = 0.087 (at node 1)
	maximum = 0.116 (at node 5)
Injected flit rate average = 0.0983125
	minimum = 0.086 (at node 6)
	maximum = 0.119 (at node 10)
Accepted flit rate average= 0.0978125
	minimum = 0.087 (at node 1)
	maximum = 0.116 (at node 5)
Injected packet length average = 1
Accepted packet length average = 1
Total in-flight flits = 38 (0 measured)
latency change    = 0.00644531
throughput change = 0.00990415
Warmed up ...Time used is 3000 cycles
Class 0:
Packet latency average = 20.1655
	minimum = 7
	maximum = 59
Network latency average = 20.1631
	minimum = 7
	maximum = 59
Slowest packet = 5223
Flit latency average = 20.1876
	minimum = 7
	maximum = 59
Slowest flit = 5223
Fragmentation average = 0
	minimum = 0
	maximum = 0
Injected packet rate average = 0.103875
	minimum = 0.085 (at node 1)
	maximum = 0.12 (at node 10)
Accepted packet rate average = 0.103938
	minimum = 0.093 (at node 11)
	maximum = 0.124 (at node 10)
Injected flit rate average = 0.103875
	minimum = 0.085 (at node 1)
	maximum = 0.12 (at node 10)
Accepted flit rate average= 0.103938
	minimum = 0.093 (at node 11)
	maximum = 0.124 (at node 10)
Injected packet length average = 1
Accepted packet length average = 1
Total in-flight flits = 37 (37 measured)
latency change    = 0.00576911
throughput change = 0.0589296
Class 0:
Packet latency average = 20.3235
	minimum = 7
	maximum = 59
Network latency average = 20.3214
	minimum = 7
	maximum = 59
Slowest packet = 5223
Flit latency average = 20.3318
	minimum = 7
	maximum = 59
Slowest flit = 5223
Fragmentation average = 0
	minimum = 0
	maximum = 0
Injected packet rate average = 0.104219
	minimum = 0.094 (at node 2)
	maximum = 0.111 (at node 6)
Accepted packet rate average = 0.104063
	minimum = 0.09 (at node 9)
	maximum = 0.1175 (at node 8)
Injected flit rate average = 0.104219
	minimum = 0.094 (at node 2)
	maximum = 0.111 (at node 6)
Accepted flit rate average= 0.104063
	minimum = 0.09 (at node 9)
	maximum = 0.1175 (at node 8)
Injected packet length average = 1
Accepted packet length average = 1
Total in-flight flits = 43 (43 measured)
latency change    = 0.00777292
throughput change = 0.0012012
Class 0:
Packet latency average = 20.2165
	minimum = 7
	maximum = 59
Network latency average = 20.2142
	minimum = 7
	maximum = 59
Slowest packet = 5223
Flit latency average = 20.2221
	minimum = 7
	maximum = 59
Slowest flit = 5223
Fragmentation average = 0
	minimum = 0
	maximum = 0
Injected packet rate average = 0.102354
	minimum = 0.0963333 (at node 9)
	maximum = 0.109 (at node 7)
Accepted packet rate average = 0.102521
	minimum = 0.0936667 (at node 9)
	maximum = 0.114 (at node 7)
Injected flit rate average = 0.102354
	minimum = 0.0963333 (at node 9)
	maximum = 0.109 (at node 7)
Accepted flit rate average= 0.102521
	minimum = 0.0936667 (at node 9)
	maximum = 0.114 (at node 7)
Injected packet length average = 1
Accepted packet length average = 1
Total in-flight flits = 30 (30 measured)
latency change    = 0.005295
throughput change = 0.0150376
Class 0:
Packet latency average = 20.2475
	minimum = 7
	maximum = 59
Network latency average = 20.2453
	minimum = 7
	maximum = 59
Slowest packet = 5223
Flit latency average = 20.2512
	minimum = 7
	maximum = 59
Slowest flit = 5223
Fragmentation average = 0
	minimum = 0
	maximum = 0
Injected packet rate average = 0.101219
	minimum = 0.095 (at node 12)
	maximum = 0.1075 (at node 7)
Accepted packet rate average = 0.101156
	minimum = 0.09125 (at node 9)
	maximum = 0.111 (at node 8)
Injected flit rate average = 0.101219
	minimum = 0.095 (at node 12)
	maximum = 0.1075 (at node 7)
Accepted flit rate average= 0.101156
	minimum = 0.09125 (at node 9)
	maximum = 0.111 (at node 8)
Injected packet length average = 1
Accepted packet length average = 1
Total in-flight flits = 42 (42 measured)
latency change    = 0.00153346
throughput change = 0.0134899
Draining all recorded packets ...
Draining remaining packets ...
Time taken is 7085 cycles
Class 0:
Packet latency average = 20.391
	minimum = 7
	maximum = 66
Network latency average = 20.3891
	minimum = 7
	maximum = 66
Slowest packet = 11445
Flit latency average = 20.3891
	minimum = 7
	maximum = 66
Slowest flit = 11445
Fragmentation average = 0
	minimum = 0
	maximum = 0
Injected packet rate average = 0.100562
	minimum = 0.085 (at node 9)
	maximum = 0.114 (at node 12)
Accepted packet rate average = 0.0989375
	minimum = 0.085 (at node 0)
	maximum = 0.116 (at node 2)
Injected flit rate average = 0.100562
	minimum = 0.085 (at node 9)
	maximum = 0.114 (at node 12)
Accepted flit rate average= 0.0989375
	minimum = 0.085 (at node 0)
	maximum = 0.116 (at node 2)
Injected packet length average = 1
Accepted packet length average = 1
Total in-flight flits = 26 (0 measured)
latency change    = 1
throughput change = 1
Class 0:
Packet latency average = 20.4838
	minimum = 7
	maximum = 66
Network latency average = 20.4822
	minimum = 7
	maximum = 66
Slowest packet = 11445
Flit latency average = 20.4822
	minimum = 7
	maximum = 66
Slowest flit = 11445
Fragmentation average = 0
	minimum = 0
	maximum = 0
Injected packet rate average = 0.0995
	minimum = 0.0855 (at node 6)
	maximum = 0.11 (at node 15)
Accepted packet rate average = 0.0985
	minimum = 0.091 (at node 3)
	maximum = 0.107 (at node 1)
Injected flit rate average = 0.0995
	minimum = 0.0855 (at node 6)
	maximum = 0.11 (at node 15)
Accepted flit rate average= 0.0985
	minimum = 0.091 (at node 3)
	maximum = 0.107 (at node 1)
Injected packet length average = 1
Accepted packet length average = 1
Total in-flight flits = 32 (0 measured)
latency change    = 0.00452992
throughput change = 0.00444162
Class 0:
Packet latency average = 20.2051
	minimum = 7
	maximum = 52
Network latency average = 20.2051
	minimum = 7
	maximum = 52
Slowest packet = 15330
Flit latency average = 20.2051
	minimum = 7
	maximum = 52
Slowest flit = 15330
Fragmentation average = 0
	minimum = 0
	maximum = 0
Injected packet rate average = 0.100687
	minimum = 0.088 (at node 13)
	maximum = 0.114 (at node 7)
Accepted packet rate average = 0.100875
	minimum = 0.087 (at node 12)
	maximum = 0.111 (at node 2)
Injected flit rate average = 0.100687
	minimum = 0.088 (at node 13)
	maximum = 0.114 (at node 7)
Accepted flit rate average= 0.100875
	minimum = 0.087 (at node 12)
	maximum = 0.111 (at node 2)
Injected packet length average = 1
Accepted packet length average = 1
Total in-flight flits = 29 (0 measured)
latency change    = 0.0137955
throughput change = 0.023544
Warmed up ...Time used is 3000 cycles
Class 0:
Packet latency average = 20.0748
	minimum = 7
	maximum = 51
Network latency average = 20.0748
	minimum = 7
	maximum = 51
Slowest packet = 16384
Flit latency average = 20.1438
	minimum = 7
	maximum = 51
Slowest flit = 16384
Fragmentation average = 0
	minimum = 0
	maximum = 0
Injected packet rate average = 0.10175
	minimum = 0.085 (at node 3)
	maximum = 0.118 (at node 12)
Accepted packet rate average = 0.10125
	minimum = 0.085 (at node 6)
	maximum = 0.115 (at node 8)
Injected flit rate average = 0.10175
	minimum = 0.085 (at node 3)
	maximum = 0.118 (at node 12)
Accepted flit rate average= 0.10125
	minimum = 0.085 (at node 6)
	maximum = 0.115 (at node 8)
Injected packet length average = 1
Accepted packet length average = 1
Total in-flight flits = 37 (37 measured)
latency change    = 0.00648997
throughput change = 0.0037037
Class 0:
Packet latency average = 20.3398
	minimum = 7
	maximum = 60
Network latency average = 20.3383
	minimum = 7
	maximum = 60
Slowest packet = 17750
Flit latency average = 20.3702
	minimum = 7
	maximum = 60
Slowest flit = 17750
Fragmentation average = 0
	minimum = 0
	maximum = 0
Injected packet rate average = 0.102281
	minimum = 0.0935 (at node 15)
	maximum = 0.1135 (at node 12)
Accepted packet rate average = 0.102063
	minimum = 0.093 (at node 2)
	maximum = 0.1105 (at node 14)
Injected flit rate average = 0.102281
	minimum = 0.0935 (at node 15)
	maximum = 0.1135 (at node 12)
Accepted flit rate average= 0.102063
	minimum = 0.093 (at node 2)
	maximum = 0.1105 (at node 14)
Injected packet length average = 1
Accepted packet length average = 1
Total in-flight flits = 36 (36 measured)
latency change    = 0.0130299
throughput change = 0.00796081
Class 0:
Packet latency average = 20.2584
	minimum = 7
	maximum = 60
Network latency average = 20.2544
	minimum = 7
	maximum = 60
Slowest packet = 17750
Flit latency average = 20.2765
	minimum = 7
	maximum = 60
Slowest flit = 17750
Fragmentation average = 0
	minimum = 0
	maximum = 0
Injected packet rate average = 0.100646
	minimum = 0.0943333 (at node 8)
	maximum = 0.109333 (at node 12)
Accepted packet rate average = 0.100667
	minimum = 0.0936667 (at node 12)
	maximum = 0.111333 (at node 4)
Injected flit rate average = 0.100646
	minimum = 0.0943333 (at node 8)
	maximum = 0.109333 (at node 12)
Accepted flit rate average= 0.100667
	minimum = 0.0936667 (at node 12)
	maximum = 0.111333 (at node 4)
Injected packet length average = 1
Accepted packet length average = 1
Total in-flight flits = 28 (28 measured)
latency change    = 0.0040201
throughput change = 0.0138659
Draining all recorded packets ...
Draining remaining packets ...
Time taken is 6068 cycles
Class 0:
Packet latency average = 20.4422
	minimum = 7
	maximum = 55
Network latency average = 20.4416
	minimum = 7
	maximum = 55
Slowest packet = 21229
Flit latency average = 20.4416
	minimum = 7
	maximum = 55
Slowest flit = 21229
Fragmentation average = 0
	minimum = 0
	maximum = 0
Injected packet rate average = 0.09975
	minimum = 0.081 (at node 0)
	maximum = 0.123 (at node 14)
Accepted packet rate average = 0.097375
	minimum = 0.082 (at node 13)
	maximum = 0.116 (at node 1)
Injected flit rate average = 0.09975
	minimum = 0.081 (at node 0)
	maximum = 0.123 (at node 14)
Accepted flit rate average= 0.097375
	minimum = 0.082 (at node 13)
	maximum = 0.116 (at node 1)
Injected packet length average = 1
Accepted packet length average = 1
Total in-flight flits = 38 (0 measured)
latency change    = 1
throughput change = 1
Class 0:
Packet latency average = 20.5466
	minimum = 7
	maximum = 59
Network latency average = 20.5374
	minimum = 7
	maximum = 57
Slowest packet = 22744
Flit latency average = 20.5374
	minimum = 7
	maximum = 57
Slowest flit = 22744
Fragmentation average = 0
	minimum = 0
	maximum = 0
Injected packet rate average = 0.0991875
	minimum = 0.0945 (at node 3)
	maximum = 0.109 (at node 10)
Accepted packet rate average = 0.0982187
	minimum = 0.084 (at node 3)
	maximum = 0.1095 (at node 1)
Injected flit rate average = 0.0991875
	minimum = 0.0945 (at node 3)
	maximum = 0.109 (at node 10)
Accepted flit rate average= 0.0982187
	minimum = 0.084 (at node 3)
	maximum = 0.1095 (at node 1)
Injected packet length average = 1
Accepted packet length average = 1
Total in-flight flits = 31 (0 measured)
latency change    = 0.00508005
throughput change = 0.00859052
Class 0:
Packet latency average = 20.2859
	minimum = 7
	maximum = 53
Network latency average = 20.2853
	minimum = 7
	maximum = 53
Slowest packet = 24514
Flit latency average = 20.2853
	minimum = 7
	maximum = 53
Slowest flit = 24514
Fragmentation average = 0
	minimum = 0
	maximum = 0
Injected packet rate average = 0.105688
	minimum = 0.087 (at node 10)
	maximum = 0.128 (at node 1)
Accepted packet rate average = 0.105375
	minimum = 0.093 (at node 8)
	maximum = 0.127 (at node 6)
Injected flit rate average = 0.105688
	minimum = 0.087 (at node 10)
	maximum = 0.128 (at node 1)
Accepted flit rate average= 0.105375
	minimum = 0.093 (at node 8)
	maximum = 0.127 (at node 6)
Injected packet length average = 1
Accepted packet length average = 1
Total in-flight flits = 36 (0 measured)
latency change    = 0.0128527
throughput change = 0.0679122
Warmed up ...Time used is 3000 cycles
Class 0:
Packet latency average = 20.3154
	minimum = 7
	maximum = 49
Network latency average = 20.3154
	minimum = 7
	maximum = 49
Slowest packet = 26608
Flit latency average = 20.3715
	minimum = 7
	maximum = 49
Slowest flit = 26608
Fragmentation average = 0
	minimum = 0
	maximum = 0
Injected packet rate average = 0.09725
	minimum = 0.086 (at node 1)
	maximum = 0.115 (at node 8)
Accepted packet rate average = 0.09775
	minimum = 0.087 (at node 5)
	maximum = 0.11 (at node 10)
Injected flit rate average = 0.09725
	minimum = 0.086 (at node 1)
	maximum = 0.115 (at node 8)
Accepted flit rate average= 0.09775
	minimum = 0.087 (at node 5)
	maximum = 0.11 (at node 10)
Injected packet length average = 1
Accepted packet length average = 1
Total in-flight flits = 28 (28 measured)
latency change    = 0.00145511
throughput change = 0.0780051
Class 0:
Packet latency average = 20.3571
	minimum = 7
	maximum = 51
Network latency average = 20.3552
	minimum = 7
	maximum = 51
Slowest packet = 28166
Flit latency average = 20.3821
	minimum = 7
	maximum = 51
Slowest flit = 28166
Fragmentation average = 0
	minimum = 0
	maximum = 0
Injected packet rate average = 0.0995625
	minimum = 0.089 (at node 12)
	maximum = 0.1105 (at node 9)
Accepted packet rate average = 0.0999375
	minimum = 0.091 (at node 11)
	maximum = 0.113 (at node 9)
Injected flit rate average = 0.0995625
	minimum = 0.089 (at node 12)
	maximum = 0.1105 (at node 9)
Accepted flit rate average= 0.0999375
	minimum = 0.091 (at node 11)
	maximum = 0.113 (at node 9)
Injected packet length average = 1
Accepted packet length average = 1
Total in-flight flits = 24 (24 measured)
latency change    = 0.00204388
throughput change = 0.0218887
Class 0:
Packet latency average = 20.3861
	minimum = 7
	maximum = 53
Network latency average = 20.3848
	minimum = 7
	maximum = 53
Slowest packet = 28991
Flit latency average = 20.4027
	minimum = 7
	maximum = 53
Slowest flit = 28991
Fragmentation average = 0
	minimum = 0
	maximum = 0
Injected packet rate average = 0.0987917
	minimum = 0.089 (at node 3)
	maximum = 0.108667 (at node 8)
Accepted packet rate average = 0.0988542
	minimum = 0.091 (at node 11)
	maximum = 0.107667 (at node 9)
Injected flit rate average = 0.0987917
	minimum = 0.089 (at node 3)
	maximum = 0.108667 (at node 8)
Accepted flit rate average= 0.0988542
	minimum = 0.091 (at node 11)
	maximum = 0.107667 (at node 9)
Injected packet length average = 1
Accepted packet length average = 1
Total in-flight flits = 33 (33 measured)
latency change    = 0.00142336
throughput change = 0.0109589
Class 0:
Packet latency average = 20.3118
	minimum = 7
	maximum = 53
Network latency average = 20.3106
	minimum = 7
	maximum = 53
Slowest packet = 28991
Flit latency average = 20.3246
	minimum = 7
	maximum = 53
Slowest flit = 28991
Fragmentation average = 0
	minimum = 0
	maximum = 0
Injected packet rate average = 0.0984531
	minimum = 0.089 (at node 3)
	maximum = 0.10775 (at node 8)
Accepted packet rate average = 0.0985469
	minimum = 0.0915 (at node 1)
	maximum = 0.10825 (at node 10)
Injected flit rate average = 0.0984531
	minimum = 0.089 (at node 3)
	maximum = 0.10775 (at node 8)
Accepted flit rate average= 0.0985469
	minimum = 0.0915 (at node 1)
	maximum = 0.10825 (at node 10)
Injected packet length average = 1
Accepted packet length average = 1
Total in-flight flits = 30 (30 measured)
latency change    = 0.0036588
throughput change = 0.00311823
Draining all recorded packets ...
Draining remaining packets ...
Time taken is 7059 cycles
Class 0:
Packet latency average = 20.1844
	minimum = 7
	maximum = 59
Network latency average = 20.1838
	minimum = 7
	maximum = 59
Slowest packet = 32438
Flit latency average = 20.1838
	minimum = 7
	maximum = 59
Slowest flit = 32438
Fragmentation average = 0
	minimum = 0
	maximum = 0
Injected packet rate average = 0.0975
	minimum = 0.083 (at node 13)
	maximum = 0.113 (at node 3)
Accepted packet rate average = 0.0955625
	minimum = 0.077 (at node 12)
	maximum = 0.123 (at node 5)
Injected flit rate average = 0.0975
	minimum = 0.083 (at node 13)
	maximum = 0.113 (at node 3)
Accepted flit rate average= 0.0955625
	minimum = 0.077 (at node 12)
	maximum = 0.123 (at node 5)
Injected packet length average = 1
Accepted packet length average = 1
Total in-flight flits = 31 (0 measured)
latency change    = 1
throughput change = 1
Class 0:
Packet latency average = 20.3379
	minimum = 7
	maximum = 59
Network latency average = 20.3376
	minimum = 7
	maximum = 59
Slowest packet = 32438
Flit latency average = 20.3376
	minimum = 7
	maximum = 59
Slowest flit = 32438
Fragmentation average = 0
	minimum = 0
	maximum = 0
Injected packet rate average = 0.09875
	minimum = 0.0885 (at node 12)
	maximum = 0.1115 (at node 11)
Accepted packet rate average = 0.0980313
	minimum = 0.0875 (at node 10)
	maximum = 0.1085 (at node 4)
Injected flit rate average = 0.09875
	minimum = 0.0885 (at node 12)
	maximum = 0.1115 (at node 11)
Accepted flit rate average= 0.0980313
	minimum = 0.0875 (at node 10)
	maximum = 0.1085 (at node 4)
Injected packet length average = 1
Accepted packet length average = 1
Total in-flight flits = 23 (0 measured)
latency change    = 0.00754592
throughput change = 0.0251833
Class 0:
Packet latency average = 20.3298
	minimum = 7
	maximum = 57
Network latency average = 20.3298
	minimum = 7
	maximum = 57
Slowest packet = 36824
Flit latency average = 20.3298
	minimum = 7
	maximum = 57
Slowest flit = 36824
Fragmentation average = 0
	minimum = 0
	maximum = 0
Injected packet rate average = 0.100562
	minimum = 0.087 (at node 2)
	maximum = 0.111 (at node 13)
Accepted packet rate average = 0.099875
	minimum = 0.077 (at node 7)
	maximum = 0.111 (at node 3)
Injected flit rate average = 0.100562
	minimum = 0.087 (at node 2)
	maximum = 0.111 (at node 13)
Accepted flit rate average= 0.099875
	minimum = 0.077 (at node 7)
	maximum = 0.111 (at node 3)
Injected packet length average = 1
Accepted packet length average = 1
Total in-flight flits = 34 (0 measured)
latency change    = 0.000399179
throughput change = 0.0184606
Warmed up ...Time used is 3000 cycles
Class 0:
Packet latency average = 19.8451
	minimum = 7
	maximum = 52
Network latency average = 19.8419
	minimum = 7
	maximum = 52
Slowest packet = 38222
Flit latency average = 19.9012
	minimum = 7
	maximum = 52
Slowest flit = 38222
Fragmentation average = 0
	minimum = 0
	maximum = 0
Injected packet rate average = 0.1005
	minimum = 0.085 (at node 2)
	maximum = 0.115 (at node 12)
Accepted packet rate average = 0.100562
	minimum = 0.091 (at node 9)
	maximum = 0.135 (at node 4)
Injected flit rate average = 0.1005
	minimum = 0.085 (at node 2)
	maximum = 0.115 (at node 12)
Accepted flit rate average= 0.100562
	minimum = 0.091 (at node 9)
	maximum = 0.135 (at node 4)
Injected packet length average = 1
Accepted packet length average = 1
Total in-flight flits = 33 (33 measured)
latency change    = 0.0244246
throughput change = 0.00683654
Class 0:
Packet latency average = 20.2185
	minimum = 7
	maximum = 53
Network latency average = 20.2163
	minimum = 7
	maximum = 53
Slowest packet = 39153
Flit latency average = 20.2423
	minimum = 7
	maximum = 53
Slowest flit = 39153
Fragmentation average = 0
	minimum = 0
	maximum = 0
Injected packet rate average = 0.099375
	minimum = 0.0845 (at node 5)
	maximum = 0.1095 (at node 10)
Accepted packet rate average = 0.0993125
	minimum = 0.0885 (at node 6)
	maximum = 0.115 (at node 4)
Injected flit rate average = 0.099375
	minimum = 0.0845 (at node 5)
	maximum = 0.1095 (at node 10)
Accepted flit rate average= 0.0993125
	minimum = 0.0885 (at node 6)
	maximum = 0.115 (at node 4)
Injected packet length average = 1
Accepted packet length average = 1
Total in-flight flits = 36 (36 measured)
latency change    = 0.0184698
throughput change = 0.0125865
Class 0:
Packet latency average = 20.217
	minimum = 7
	maximum = 54
Network latency average = 20.2155
	minimum = 7
	maximum = 54
Slowest packet = 41448
Flit latency average = 20.2329
	minimum = 7
	maximum = 54
Slowest flit = 41448
Fragmentation average = 0
	minimum = 0
	maximum = 0
Injected packet rate average = 0.0987917
	minimum = 0.088 (at node 5)
	maximum = 0.109333 (at node 8)
Accepted packet rate average = 0.0989375
	minimum = 0.0916667 (at node 15)
	maximum = 0.105333 (at node 4)
Injected flit rate average = 0.0987917
	minimum = 0.088 (at node 5)
	maximum = 0.109333 (at node 8)
Accepted flit rate average= 0.0989375
	minimum = 0.0916667 (at node 15)
	maximum = 0.105333 (at node 4)
Injected packet length average = 1
Accepted packet length average = 1
Total in-flight flits = 27 (27 measured)
latency change    = 7.63875e-05
throughput change = 0.00379027
Draining all recorded packets ...
Draining remaining packets ...
Time taken is 6057 cycles
Class 0:
Packet latency average = 20.0406
	minimum = 7
	maximum = 53
Network latency average = 20.04
	minimum = 7
	maximum = 53
Slowest packet = 43202
Flit latency average = 20.04
	minimum = 7
	maximum = 53
Slowest flit = 43202
Fragmentation average = 0
	minimum = 0
	maximum = 0
Injected packet rate average = 0.098875
	minimum = 0.079 (at node 3)
	maximum = 0.111 (at node 0)
Accepted packet rate average = 0.096875
	minimum = 0.08 (at node 12)
	maximum = 0.123 (at node 5)
Injected flit rate average = 0.098875
	minimum = 0.079 (at node 3)
	maximum = 0.111 (at node 0)
Accepted flit rate average= 0.096875
	minimum = 0.08 (at node 12)
	maximum = 0.123 (at node 5)
Injected packet length average = 1
Accepted packet length average = 1
Total in-flight flits = 32 (0 measured)
latency change    = 1
throughput change = 1
Class 0:
Packet latency average = 20.0577
	minimum = 7
	maximum = 54
Network latency average = 20.0574
	minimum = 7
	maximum = 54
Slowest packet = 43968
Flit latency average = 20.0574
	minimum = 7
	maximum = 54
Slowest flit = 43968
Fragmentation average = 0
	minimum = 0
	maximum = 0
Injected packet rate average = 0.0999375
	minimum = 0.083 (at node 3)
	maximum = 0.1125 (at node 14)
Accepted packet rate average = 0.0990937
	minimum = 0.0905 (at node 4)
	maximum = 0.1145 (at node 5)
Injected flit rate average = 0.0999375
	minimum = 0.083 (at node 3)
	maximum = 0.1125 (at node 14)
Accepted flit rate average= 0.0990937
	minimum = 0.0905 (at node 4)
	maximum = 0.1145 (at node 5)
Injected packet length average = 1
Accepted packet length average = 1
Total in-flight flits = 27 (0 measured)
latency change    = 0.000850812
throughput change = 0.0223904
Class 0:
Packet latency average = 20.8592
	minimum = 7
	maximum = 54
Network latency average = 20.858
	minimum = 7
	maximum = 54
Slowest packet = 46477
Flit latency average = 20.858
	minimum = 7
	maximum = 54
Slowest flit = 46477
Fragmentation average = 0
	minimum = 0
	maximum = 0
Injected packet rate average = 0.102313
	minimum = 0.083 (at node 6)
	maximum = 0.126 (at node 15)
Accepted packet rate average = 0.102125
	minimum = 0.095 (at node 8)
	maximum = 0.112 (at node 14)
Injected flit rate average = 0.102313
	minimum = 0.083 (at node 6)
	maximum = 0.126 (at node 15)
Accepted flit rate average= 0.102125
	minimum = 0.095 (at node 8)
	maximum = 0.112 (at node 14)
Injected packet length average = 1
Accepted packet length average = 1
Total in-flight flits = 30 (0 measured)
latency change    = 0.0384257
throughput change = 0.0296818
Warmed up ...Time used is 3000 cycles
Class 0:
Packet latency average = 20.2363
	minimum = 7
	maximum = 49
Network latency average = 20.2363
	minimum = 7
	maximum = 49
Slowest packet = 46970
Flit latency average = 20.2833
	minimum = 7
	maximum = 49
Slowest flit = 46970
Fragmentation average = 0
	minimum = 0
	maximum = 0
Injected packet rate average = 0.102813
	minimum = 0.087 (at node 10)
	maximum = 0.117 (at node 4)
Accepted packet rate average = 0.102375
	minimum = 0.088 (at node 10)
	maximum = 0.114 (at node 3)
Injected flit rate average = 0.102813
	minimum = 0.087 (at node 10)
	maximum = 0.117 (at node 4)
Accepted flit rate average= 0.102375
	minimum = 0.088 (at node 10)
	maximum = 0.114 (at node 3)
Injected packet length average = 1
Accepted packet length average = 1
Total in-flight flits = 37 (37 measured)
latency change    = 0.0307824
throughput change = 0.002442
Class 0:
Packet latency average = 20.37
	minimum = 7
	maximum = 53
Network latency average = 20.3697
	minimum = 7
	maximum = 53
Slowest packet = 48217
Flit latency average = 20.3921
	minimum = 7
	maximum = 53
Slowest flit = 48217
Fragmentation average = 0
	minimum = 0
	maximum = 0
Injected packet rate average = 0.10225
	minimum = 0.0905 (at node 6)
	maximum = 0.1155 (at node 12)
Accepted packet rate average = 0.101938
	minimum = 0.0905 (at node 10)
	maximum = 0.117 (at node 14)
Injected flit rate average = 0.10225
	minimum = 0.0905 (at node 6)
	maximum = 0.1155 (at node 12)
Accepted flit rate average= 0.101938
	minimum = 0.0905 (at node 10)
	maximum = 0.117 (at node 14)
Injected packet length average = 1
Accepted packet length average = 1
Total in-flight flits = 40 (40 measured)
latency change    = 0.00656508
throughput change = 0.00429185
Class 0:
Packet latency average = 20.3072
	minimum = 7
	maximum = 53
Network latency average = 20.3066
	minimum = 7
	maximum = 53
Slowest packet = 48217
Flit latency average = 20.3219
	minimum = 7
	maximum = 53
Slowest flit = 48217
Fragmentation average = 0
	minimum = 0
	maximum = 0
Injected packet rate average = 0.101604
	minimum = 0.0903333 (at node 6)
	maximum = 0.117 (at node 4)
Accepted packet rate average = 0.101604
	minimum = 0.0916667 (at node 7)
	maximum = 0.110667 (at node 0)
Injected flit rate average = 0.101604
	minimum = 0.0903333 (at node 6)
	maximum = 0.117 (at node 4)
Accepted flit rate average= 0.101604
	minimum = 0.0916667 (at node 7)
	maximum = 0.110667 (at node 0)
Injected packet length average = 1
Accepted packet length average = 1
Total in-flight flits = 30 (30 measured)
latency change    = 0.00309492
throughput change = 0.00328071
Draining all recorded packets ...
Draining remaining packets ...
Time taken is 6059 cycles
Class 0:
Packet latency average = 20.7218
	minimum = 7
	maximum = 59
Network latency average = 20.7174
	minimum = 7
	maximum = 59
Slowest packet = 52483
Flit latency average = 20.7174
	minimum = 7
	maximum = 59
Slowest flit = 52483
Fragmentation average = 0
	minimum = 0
	maximum = 0
Injected packet rate average = 0.1025
	minimum = 0.08 (at node 4)
	maximum = 0.121 (at node 13)
Accepted packet rate average = 0.100187
	minimum = 0.083 (at node 4)
	maximum = 0.114 (at node 10)
Injected flit rate average = 0.1025
	minimum = 0.08 (at node 4)
	maximum = 0.121 (at node 13)
Accepted flit rate average= 0.100187
	minimum = 0.083 (at node 4)
	maximum = 0.114 (at node 10)
Injected packet length average = 1
Accepted packet length average = 1
Total in-flight flits = 37 (0 measured)
latency change    = 1
throughput change = 1
Class 0:
Packet latency average = 20.4522
	minimum = 7
	maximum = 59
Network latency average = 20.4497
	minimum = 7
	maximum = 59
Slowest packet = 52483
Flit latency average = 20.4497
	minimum = 7
	maximum = 59
Slowest flit = 52483
Fragmentation average = 0
	minimum = 0
	maximum = 0
Injected packet rate average = 0.102531
	minimum = 0.0875 (at node 4)
	maximum = 0.111 (at node 14)
Accepted packet rate average = 0.101312
	minimum = 0.085 (at node 4)
	maximum = 0.113 (at node 14)
Injected flit rate average = 0.102531
	minimum = 0.0875 (at node 4)
	maximum = 0.111 (at node 14)
Accepted flit rate average= 0.101312
	minimum = 0.085 (at node 4)
	maximum = 0.113 (at node 14)
Injected packet length average = 1
Accepted packet length average = 1
Total in-flight flits = 39 (0 measured)
latency change    = 0.0131811
throughput change = 0.0111043
Class 0:
Packet latency average = 20.3188
	minimum = 7
	maximum = 55
Network latency average = 20.3133
	minimum = 7
	maximum = 54
Slowest packet = 55059
Flit latency average = 20.3133
	minimum = 7
	maximum = 54
Slowest flit = 55059
Fragmentation average = 0
	minimum = 0
	maximum = 0
Injected packet rate average = 0.101125
	minimum = 0.079 (at node 5)
	maximum = 0.118 (at node 0)
Accepted packet rate average = 0.102125
	minimum = 0.09 (at node 8)
	maximum = 0.119 (at node 5)
Injected flit rate average = 0.101125
	minimum = 0.079 (at node 5)
	maximum = 0.118 (at node 0)
Accepted flit rate average= 0.102125
	minimum = 0.09 (at node 8)
	maximum = 0.119 (at node 5)
Injected packet length average = 1
Accepted packet length average = 1
Total in-flight flits = 23 (0 measured)
latency change    = 0.00656241
throughput change = 0.00795594
Warmed up ...Time used is 3000 cycles
Class 0:
Packet latency average = 20.4898
	minimum = 7
	maximum = 48
Network latency average = 20.486
	minimum = 7
	maximum = 48
Slowest packet = 56566
Flit latency average = 20.5216
	minimum = 7
	maximum = 48
Slowest flit = 56566
Fragmentation average = 0
	minimum = 0
	maximum = 0
Injected packet rate average = 0.100375
	minimum = 0.087 (at node 11)
	maximum = 0.117 (at node 3)
Accepted packet rate average = 0.0996875
	minimum = 0.076 (at node 11)
	maximum = 0.121 (at node 13)
Injected flit rate average = 0.100375
	minimum = 0.087 (at node 11)
	maximum = 0.117 (at node 3)
Accepted flit rate average= 0.0996875
	minimum = 0.076 (at node 11)
	maximum = 0.121 (at node 13)
Injected packet length average = 1
Accepted packet length average = 1
Total in-flight flits = 34 (34 measured)
latency change    = 0.00834426
throughput change = 0.0244514
Class 0:
Packet latency average = 20.3379
	minimum = 7
	maximum = 56
Network latency average = 20.3357
	minimum = 7
	maximum = 56
Slowest packet = 58359
Flit latency average = 20.3544
	minimum = 7
	maximum = 56
Slowest flit = 58359
Fragmentation average = 0
	minimum = 0
	maximum = 0
Injected packet rate average = 0.100969
	minimum = 0.0885 (at node 0)
	maximum = 0.1115 (at node 3)
Accepted packet rate average = 0.100687
	minimum = 0.088 (at node 11)
	maximum = 0.1095 (at node 4)
Injected flit rate average = 0.100969
	minimum = 0.0885 (at node 0)
	maximum = 0.1115 (at node 3)
Accepted flit rate average= 0.100687
	minimum = 0.088 (at node 11)
	maximum = 0.1095 (at node 4)
Injected packet length average = 1
Accepted packet length average = 1
Total in-flight flits = 32 (32 measured)
latency change    = 0.00746899
throughput change = 0.00993172
Class 0:
Packet latency average = 20.3587
	minimum = 7
	maximum = 56
Network latency average = 20.3566
	minimum = 7
	maximum = 56
Slowest packet = 58359
Flit latency average = 20.3691
	minimum = 7
	maximum = 56
Slowest flit = 58359
Fragmentation average = 0
	minimum = 0
	maximum = 0
Injected packet rate average = 0.100292
	minimum = 0.091 (at node 6)
	maximum = 0.108667 (at node 10)
Accepted packet rate average = 0.100083
	minimum = 0.0883333 (at node 11)
	maximum = 0.110333 (at node 4)
Injected flit rate average = 0.100292
	minimum = 0.091 (at node 6)
	maximum = 0.108667 (at node 10)
Accepted flit rate average= 0.100083
	minimum = 0.0883333 (at node 11)
	maximum = 0.110333 (at node 4)
Injected packet length average = 1
Accepted packet length average = 1
Total in-flight flits = 33 (33 measured)
latency change    = 0.00102135
throughput change = 0.00603664
Draining all recorded packets ...
Draining remaining packets ...
Time taken is 6068 cycles
Class 0:
Packet latency average = 19.8219
	minimum = 7
	maximum = 46
Network latency average = 19.8205
	minimum = 7
	maximum = 46
Slowest packet = 62080
Flit latency average = 19.8205
	minimum = 7
	maximum = 46
Slowest flit = 62080
Fragmentation average = 0
	minimum = 0
	maximum = 0
Injected packet rate average = 0.0920625
	minimum = 0.067 (at node 10)
	maximum = 0.118 (at node 8)
Accepted packet rate average = 0.0901875
	minimum = 0.075 (at node 6)
	maximum = 0.103 (at node 7)
Injected flit rate average = 0.0920625
	minimum = 0.067 (at node 10)
	maximum = 0.118 (at node 8)
Accepted flit rate average= 0.0901875
	minimum = 0.075 (at node 6)
	maximum = 0.103 (at node 7)
Injected packet length average = 1
Accepted packet length average = 1
Total in-flight flits = 30 (0 measured)
latency change    = 1
throughput change = 1
Class 0:
Packet latency average = 20.2009
	minimum = 7
	maximum = 49
Network latency average = 20.2002
	minimum = 7
	maximum = 49
Slowest packet = 63951
Flit latency average = 20.2002
	minimum = 7
	maximum = 49
Slowest flit = 63951
Fragmentation average = 0
	minimum = 0
	maximum = 0
Injected packet rate average = 0.0960312
	minimum = 0.083 (at node 14)
	maximum = 0.1115 (at node 8)
Accepted packet rate average = 0.0950625
	minimum = 0.08 (at node 13)
	maximum = 0.1085 (at node 3)
Injected flit rate average = 0.0960312
	minimum = 0.083 (at node 14)
	maximum = 0.1115 (at node 8)
Accepted flit rate average= 0.0950625
	minimum = 0.08 (at node 13)
	maximum = 0.1085 (at node 3)
Injected packet length average = 1
Accepted packet length average = 1
Total in-flight flits = 31 (0 measured)
latency change    = 0.0187594
throughput change = 0.0512821
Class 0:
Packet latency average = 19.9875
	minimum = 7
	maximum = 46
Network latency average = 19.9869
	minimum = 7
	maximum = 46
Slowest packet = 65744
Flit latency average = 19.9869
	minimum = 7
	maximum = 46
Slowest flit = 65744
Fragmentation average = 0
	minimum = 0
	maximum = 0
Injected packet rate average = 0.100062
	minimum = 0.087 (at node 11)
	maximum = 0.113 (at node 5)
Accepted packet rate average = 0.0998125
	minimum = 0.075 (at node 4)
	maximum = 0.113 (at node 8)
Injected flit rate average = 0.100062
	minimum = 0.087 (at node 11)
	maximum = 0.113 (at node 5)
Accepted flit rate average= 0.0998125
	minimum = 0.075 (at node 4)
	maximum = 0.113 (at node 8)
Injected packet length average = 1
Accepted packet length average = 1
Total in-flight flits = 35 (0 measured)
latency change    = 0.0106756
throughput change = 0.0475892
Warmed up ...Time used is 3000 cycles
Class 0:
Packet latency average = 20.26
	minimum = 7
	maximum = 46
Network latency average = 20.258
	minimum = 7
	maximum = 46
Slowest packet = 65984
Flit latency average = 20.348
	minimum = 7
	maximum = 46
Slowest flit = 65984
Fragmentation average = 0
	minimum = 0
	maximum = 0
Injected packet rate average = 0.099625
	minimum = 0.089 (at node 2)
	maximum = 0.111 (at node 14)
Accepted packet rate average = 0.0993125
	minimum = 0.087 (at node 6)
	maximum = 0.127 (at node 3)
Injected flit rate average = 0.099625
	minimum = 0.089 (at node 2)
	maximum = 0.111 (at node 14)
Accepted flit rate average= 0.0993125
	minimum = 0.087 (at node 6)
	maximum = 0.127 (at node 3)
Injected packet length average = 1
Accepted packet length average = 1
Total in-flight flits = 40 (40 measured)
latency change    = 0.0134501
throughput change = 0.00503461
Class 0:
Packet latency average = 20.4002
	minimum = 7
	maximum = 49
Network latency average = 20.3992
	minimum = 7
	maximum = 49
Slowest packet = 67883
Flit latency average = 20.4434
	minimum = 7
	maximum = 49
Slowest flit = 67883
Fragmentation average = 0
	minimum = 0
	maximum = 0
Injected packet rate average = 0.0978125
	minimum = 0.086 (at node 12)
	maximum = 0.108 (at node 6)
Accepted packet rate average = 0.0976875
	minimum = 0.0905 (at node 12)
	maximum = 0.1205 (at node 3)
Injected flit rate average = 0.0978125
	minimum = 0.086 (at node 12)
	maximum = 0.108 (at node 6)
Accepted flit rate average= 0.0976875
	minimum = 0.0905 (at node 12)
	maximum = 0.1205 (at node 3)
Injected packet length average = 1
Accepted packet length average = 1
Total in-flight flits = 39 (39 measured)
latency change    = 0.00687346
throughput change = 0.0166347
Class 0:
Packet latency average = 20.3385
	minimum = 7
	maximum = 56
Network latency average = 20.3375
	minimum = 7
	maximum = 56
Slowest packet = 70573
Flit latency average = 20.3668
	minimum = 7
	maximum = 56
Slowest flit = 70573
Fragmentation average = 0
	minimum = 0
	maximum = 0
Injected packet rate average = 0.0995417
	minimum = 0.09 (at node 2)
	maximum = 0.110667 (at node 6)
Accepted packet rate average = 0.0995625
	minimum = 0.0893333 (at node 8)
	maximum = 0.113333 (at node 3)
Injected flit rate average = 0.0995417
	minimum = 0.09 (at node 2)
	maximum = 0.110667 (at node 6)
Accepted flit rate average= 0.0995625
	minimum = 0.0893333 (at node 8)
	maximum = 0.113333 (at node 3)
Injected packet length average = 1
Accepted packet length average = 1
Total in-flight flits = 34 (34 measured)
latency change    = 0.00303174
throughput change = 0.0188324
Draining all recorded packets ...
Draining remaining packets ...
Time taken is 6060 cycles
Class 0:
Packet latency average = 20.0919
	minimum = 7
	maximum = 66
Network latency average = 20.0919
	minimum = 7
	maximum = 66
Slowest packet = 71743
Flit latency average = 20.0919
	minimum = 7
	maximum = 66
Slowest flit = 71743
Fragmentation average = 0
	minimum = 0
	maximum = 0
Injected packet rate average = 0.1015
	minimum = 0.08 (at node 13)
	maximum = 0.121 (at node 7)
Accepted packet rate average = 0.0993125
	minimum = 0.081 (at node 0)
	maximum = 0.118 (at node 1)
Injected flit rate average = 0.1015
	minimum = 0.08 (at node 13)
	maximum = 0.121 (at node 7)
Accepted flit rate average= 0.0993125
	minimum = 0.081 (at node 0)
	maximum = 0.118 (at node 1)
Injected packet length average = 1
Accepted packet length average = 1
Total in-flight flits = 35 (0 measured)
latency change    = 1
throughput change = 1
Class 0:
Packet latency average = 20.1822
	minimum = 7
	maximum = 66
Network latency average = 20.1822
	minimum = 7
	maximum = 66
Slowest packet = 71743
Flit latency average = 20.1822
	minimum = 7
	maximum = 66
Slowest flit = 71743
Fragmentation average = 0
	minimum = 0
	maximum = 0
Injected packet rate average = 0.099625
	minimum = 0.0895 (at node 8)
	maximum = 0.1085 (at node 7)
Accepted packet rate average = 0.0989687
	minimum = 0.0875 (at node 13)
	maximum = 0.1095 (at node 12)
Injected flit rate average = 0.099625
	minimum = 0.0895 (at node 8)
	maximum = 0.1085 (at node 7)
Accepted flit rate average= 0.0989687
	minimum = 0.0875 (at node 13)
	maximum = 0.1095 (at node 12)
Injected packet length average = 1
Accepted packet length average = 1
Total in-flight flits = 21 (0 measured)
latency change    = 0.00447472
throughput change = 0.00347332
Class 0:
Packet latency average = 20.3526
	minimum = 7
	maximum = 51
Network latency average = 20.3473
	minimum = 7
	maximum = 51
Slowest packet = 74395
Flit latency average = 20.3473
	minimum = 7
	maximum = 51
Slowest flit = 74395
Fragmentation average = 0
	minimum = 0
	maximum = 0
Injected packet rate average = 0.105438
	minimum = 0.091 (at node 2)
	maximum = 0.123 (at node 5)
Accepted packet rate average = 0.10475
	minimum = 0.088 (at node 7)
	maximum = 0.132 (at node 3)
Injected flit rate average = 0.105438
	minimum = 0.091 (at node 2)
	maximum = 0.123 (at node 5)
Accepted flit rate average= 0.10475
	minimum = 0.088 (at node 7)
	maximum = 0.132 (at node 3)
Injected packet length average = 1
Accepted packet length average = 1
Total in-flight flits = 32 (0 measured)
latency change    = 0.00837405
throughput change = 0.0551909
Warmed up ...Time used is 3000 cycles
Class 0:
Packet latency average = 20.2124
	minimum = 7
	maximum = 49
Network latency average = 20.2118
	minimum = 7
	maximum = 49
Slowest packet = 76839
Flit latency average = 20.2497
	minimum = 7
	maximum = 49
Slowest flit = 76839
Fragmentation average = 0
	minimum = 0
	maximum = 0
Injected packet rate average = 0.0973125
	minimum = 0.086 (at node 8)
	maximum = 0.108 (at node 4)
Accepted packet rate average = 0.097625
	minimum = 0.08 (at node 4)
	maximum = 0.127 (at node 9)
Injected flit rate average = 0.0973125
	minimum = 0.086 (at node 8)
	maximum = 0.108 (at node 4)
Accepted flit rate average= 0.097625
	minimum = 0.08 (at node 4)
	maximum = 0.127 (at node 9)
Injected packet length average = 1
Accepted packet length average = 1
Total in-flight flits = 27 (27 measured)
latency change    = 0.00693668
throughput change = 0.0729834
Class 0:
Packet latency average = 20.1337
	minimum = 7
	maximum = 60
Network latency average = 20.133
	minimum = 7
	maximum = 60
Slowest packet = 77160
Flit latency average = 20.1527
	minimum = 7
	maximum = 60
Slowest flit = 77160
Fragmentation average = 0
	minimum = 0
	maximum = 0
Injected packet rate average = 0.0984687
	minimum = 0.092 (at node 4)
	maximum = 0.105 (at node 6)
Accepted packet rate average = 0.09825
	minimum = 0.083 (at node 0)
	maximum = 0.112 (at node 12)
Injected flit rate average = 0.0984687
	minimum = 0.092 (at node 4)
	maximum = 0.105 (at node 6)
Accepted flit rate average= 0.09825
	minimum = 0.083 (at node 0)
	maximum = 0.112 (at node 12)
Injected packet length average = 1
Accepted packet length average = 1
Total in-flight flits = 39 (39 measured)
latency change    = 0.00391097
throughput change = 0.00636132
Class 0:
Packet latency average = 20.32
	minimum = 7
	maximum = 78
Network latency average = 20.3181
	minimum = 7
	maximum = 78
Slowest packet = 79449
Flit latency average = 20.3297
	minimum = 7
	maximum = 78
Slowest flit = 79449
Fragmentation average = 0
	minimum = 0
	maximum = 0
Injected packet rate average = 0.100271
	minimum = 0.091 (at node 12)
	maximum = 0.109333 (at node 2)
Accepted packet rate average = 0.100271
	minimum = 0.089 (at node 7)
	maximum = 0.111 (at node 9)
Injected flit rate average = 0.100271
	minimum = 0.091 (at node 12)
	maximum = 0.109333 (at node 2)
Accepted flit rate average= 0.100271
	minimum = 0.089 (at node 7)
	maximum = 0.111 (at node 9)
Injected packet length average = 1
Accepted packet length average = 1
Total in-flight flits = 32 (32 measured)
latency change    = 0.0091703
throughput change = 0.0201538
Class 0:
Packet latency average = 20.386
	minimum = 7
	maximum = 78
Network latency average = 20.3834
	minimum = 7
	maximum = 78
Slowest packet = 79449
Flit latency average = 20.3918
	minimum = 7
	maximum = 78
Slowest flit = 79449
Fragmentation average = 0
	minimum = 0
	maximum = 0
Injected packet rate average = 0.0996406
	minimum = 0.09025 (at node 12)
	maximum = 0.10875 (at node 3)
Accepted packet rate average = 0.0997031
	minimum = 0.091 (at node 7)
	maximum = 0.1105 (at node 9)
Injected flit rate average = 0.0996406
	minimum = 0.09025 (at node 12)
	maximum = 0.10875 (at node 3)
Accepted flit rate average= 0.0997031
	minimum = 0.091 (at node 7)
	maximum = 0.1105 (at node 9)
Injected packet length average = 1
Accepted packet length average = 1
Total in-flight flits = 28 (28 measured)
latency change    = 0.0032389
throughput change = 0.00569399
Draining all recorded packets ...
Draining remaining packets ...
Time taken is 7065 cycles
Class 0:
Packet latency average = 20.2846
	minimum = 7
	maximum = 62
Network latency average = 20.284
	minimum = 7
	maximum = 62
Slowest packet = 82202
Flit latency average = 20.284
	minimum = 7
	maximum = 62
Slowest flit = 82202
Fragmentation average = 0
	minimum = 0
	maximum = 0
Injected packet rate average = 0.0999375
	minimum = 0.084 (at node 8)
	maximum = 0.121 (at node 11)
Accepted packet rate average = 0.0979375
	minimum = 0.085 (at node 3)
	maximum = 0.11 (at node 0)
Injected flit rate average = 0.0999375
	minimum = 0.084 (at node 8)
	maximum = 0.121 (at node 11)
Accepted flit rate average= 0.0979375
	minimum = 0.085 (at node 3)
	maximum = 0.11 (at node 0)
Injected packet length average = 1
Accepted packet length average = 1
Total in-flight flits = 32 (0 measured)
latency change    = 1
throughput change = 1
Class 0:
Packet latency average = 20.3344
	minimum = 7
	maximum = 62
Network latency average = 20.3341
	minimum = 7
	maximum = 62
Slowest packet = 82202
Flit latency average = 20.3341
	minimum = 7
	maximum = 62
Slowest flit = 82202
Fragmentation average = 0
	minimum = 0
	maximum = 0
Injected packet rate average = 0.0993125
	minimum = 0.088 (at node 14)
	maximum = 0.111 (at node 11)
Accepted packet rate average = 0.0985
	minimum = 0.0875 (at node 3)
	maximum = 0.1115 (at node 0)
Injected flit rate average = 0.0993125
	minimum = 0.088 (at node 14)
	maximum = 0.111 (at node 11)
Accepted flit rate average= 0.0985
	minimum = 0.0875 (at node 3)
	maximum = 0.1115 (at node 0)
Injected packet length average = 1
Accepted packet length average = 1
Total in-flight flits = 26 (0 measured)
latency change    = 0.00244761
throughput change = 0.00571066
Class 0:
Packet latency average = 20.2851
	minimum = 7
	maximum = 47
Network latency average = 20.2838
	minimum = 7
	maximum = 47
Slowest packet = 86366
Flit latency average = 20.2838
	minimum = 7
	maximum = 47
Slowest flit = 86366
Fragmentation average = 0
	minimum = 0
	maximum = 0
Injected packet rate average = 0.0946875
	minimum = 0.078 (at node 10)
	maximum = 0.108 (at node 6)
Accepted packet rate average = 0.0938125
	minimum = 0.074 (at node 8)
	maximum = 0.107 (at node 13)
Injected flit rate average = 0.0946875
	minimum = 0.078 (at node 10)
	maximum = 0.108 (at node 6)
Accepted flit rate average= 0.0938125
	minimum = 0.074 (at node 8)
	maximum = 0.107 (at node 13)
Injected packet length average = 1
Accepted packet length average = 1
Total in-flight flits = 40 (0 measured)
latency change    = 0.00242777
throughput change = 0.0499667
Warmed up ...Time used is 3000 cycles
Class 0:
Packet latency average = 20.2475
	minimum = 7
	maximum = 56
Network latency average = 20.2475
	minimum = 7
	maximum = 56
Slowest packet = 88129
Flit latency average = 20.3578
	minimum = 7
	maximum = 56
Slowest flit = 88129
Fragmentation average = 0
	minimum = 0
	maximum = 0
Injected packet rate average = 0.101125
	minimum = 0.081 (at node 14)
	maximum = 0.118 (at node 0)
Accepted packet rate average = 0.1015
	minimum = 0.089 (at node 1)
	maximum = 0.116 (at node 14)
Injected flit rate average = 0.101125
	minimum = 0.081 (at node 14)
	maximum = 0.118 (at node 0)
Accepted flit rate average= 0.1015
	minimum = 0.089 (at node 1)
	maximum = 0.116 (at node 14)
Injected packet length average = 1
Accepted packet length average = 1
Total in-flight flits = 34 (34 measured)
latency change    = 0.0018604
throughput change = 0.0757389
Class 0:
Packet latency average = 20.3933
	minimum = 7
	maximum = 56
Network latency average = 20.393
	minimum = 7
	maximum = 56
Slowest packet = 88129
Flit latency average = 20.4469
	minimum = 7
	maximum = 56
Slowest flit = 88129
Fragmentation average = 0
	minimum = 0
	maximum = 0
Injected packet rate average = 0.0999063
	minimum = 0.0905 (at node 13)
	maximum = 0.116 (at node 1)
Accepted packet rate average = 0.100406
	minimum = 0.0915 (at node 0)
	maximum = 0.1085 (at node 11)
Injected flit rate average = 0.0999063
	minimum = 0.0905 (at node 13)
	maximum = 0.116 (at node 1)
Accepted flit rate average= 0.100406
	minimum = 0.0915 (at node 0)
	maximum = 0.1085 (at node 11)
Injected packet length average = 1
Accepted packet length average = 1
Total in-flight flits = 24 (24 measured)
latency change    = 0.00715155
throughput change = 0.0108932
Class 0:
Packet latency average = 20.3658
	minimum = 7
	maximum = 56
Network latency average = 20.3654
	minimum = 7
	maximum = 56
Slowest packet = 88129
Flit latency average = 20.4015
	minimum = 7
	maximum = 56
Slowest flit = 88129
Fragmentation average = 0
	minimum = 0
	maximum = 0
Injected packet rate average = 0.100437
	minimum = 0.089 (at node 12)
	maximum = 0.115667 (at node 0)
Accepted packet rate average = 0.100667
	minimum = 0.092 (at node 0)
	maximum = 0.113 (at node 11)
Injected flit rate average = 0.100437
	minimum = 0.089 (at node 12)
	maximum = 0.115667 (at node 0)
Accepted flit rate average= 0.100667
	minimum = 0.092 (at node 0)
	maximum = 0.113 (at node 11)
Injected packet length average = 1
Accepted packet length average = 1
Total in-flight flits = 29 (29 measured)
latency change    = 0.00135033
throughput change = 0.00258692
Class 0:
Packet latency average = 20.3077
	minimum = 7
	maximum = 56
Network latency average = 20.3073
	minimum = 7
	maximum = 56
Slowest packet = 88129
Flit latency average = 20.3346
	minimum = 7
	maximum = 56
Slowest flit = 88129
Fragmentation average = 0
	minimum = 0
	maximum = 0
Injected packet rate average = 0.100953
	minimum = 0.0915 (at node 13)
	maximum = 0.111 (at node 1)
Accepted packet rate average = 0.100906
	minimum = 0.09425 (at node 0)
	maximum = 0.10575 (at node 11)
Injected flit rate average = 0.100953
	minimum = 0.0915 (at node 13)
	maximum = 0.111 (at node 1)
Accepted flit rate average= 0.100906
	minimum = 0.09425 (at node 0)
	maximum = 0.10575 (at node 11)
Injected packet length average = 1
Accepted packet length average = 1
Total in-flight flits = 43 (43 measured)
latency change    = 0.00286048
throughput change = 0.00237432
Draining all recorded packets ...
Draining remaining packets ...
Time taken is 7073 cycles
Class 0:
Packet latency average = 20.9016
	minimum = 7
	maximum = 66
Network latency average = 20.8927
	minimum = 7
	maximum = 66
Slowest packet = 94357
Flit latency average = 20.8927
	minimum = 7
	maximum = 66
Slowest flit = 94357
Fragmentation average = 0
	minimum = 0
	maximum = 0
Injected packet rate average = 0.10675
	minimum = 0.085 (at node 12)
	maximum = 0.123 (at node 10)
Accepted packet rate average = 0.104813
	minimum = 0.089 (at node 12)
	maximum = 0.129 (at node 9)
Injected flit rate average = 0.10675
	minimum = 0.085 (at node 12)
	maximum = 0.123 (at node 10)
Accepted flit rate average= 0.104813
	minimum = 0.089 (at node 12)
	maximum = 0.129 (at node 9)
Injected packet length average = 1
Accepted packet length average = 1
Total in-flight flits = 31 (0 measured)
latency change    = 1
throughput change = 1
Class 0:
Packet latency average = 20.517
	minimum = 7
	maximum = 66
Network latency average = 20.5115
	minimum = 7
	maximum = 66
Slowest packet = 94357
Flit latency average = 20.5115
	minimum = 7
	maximum = 66
Slowest flit = 94357
Fragmentation average = 0
	minimum = 0
	maximum = 0
Injected packet rate average = 0.103188
	minimum = 0.09 (at node 4)
	maximum = 0.1215 (at node 0)
Accepted packet rate average = 0.102281
	minimum = 0.087 (at node 12)
	maximum = 0.122 (at node 6)
Injected flit rate average = 0.103188
	minimum = 0.09 (at node 4)
	maximum = 0.1215 (at node 0)
Accepted flit rate average= 0.102281
	minimum = 0.087 (at node 12)
	maximum = 0.122 (at node 6)
Injected packet length average = 1
Accepted packet length average = 1
Total in-flight flits = 29 (0 measured)
latency change    = 0.0187481
throughput change = 0.0247479
Class 0:
Packet latency average = 20.2724
	minimum = 7
	maximum = 51
Network latency average = 20.2712
	minimum = 7
	maximum = 51
Slowest packet = 97865
Flit latency average = 20.2712
	minimum = 7
	maximum = 51
Slowest flit = 97865
Fragmentation average = 0
	minimum = 0
	maximum = 0
Injected packet rate average = 0.105125
	minimum = 0.095 (at node 14)
	maximum = 0.117 (at node 8)
Accepted packet rate average = 0.105313
	minimum = 0.083 (at node 11)
	maximum = 0.118 (at node 13)
Injected flit rate average = 0.105125
	minimum = 0.095 (at node 14)
	maximum = 0.117 (at node 8)
Accepted flit rate average= 0.105313
	minimum = 0.083 (at node 11)
	maximum = 0.118 (at node 13)
Injected packet length average = 1
Accepted packet length average = 1
Total in-flight flits = 26 (0 measured)
latency change    = 0.0120634
throughput change = 0.0287834
Warmed up ...Time used is 3000 cycles
Class 0:
Packet latency average = 20.2516
	minimum = 7
	maximum = 48
Network latency average = 20.2503
	minimum = 7
	maximum = 48
Slowest packet = 99323
Flit latency average = 20.2582
	minimum = 7
	maximum = 48
Slowest flit = 99323
Fragmentation average = 0
	minimum = 0
	maximum = 0
Injected packet rate average = 0.100187
	minimum = 0.086 (at node 0)
	maximum = 0.117 (at node 13)
Accepted packet rate average = 0.0995
	minimum = 0.085 (at node 8)
	maximum = 0.112 (at node 3)
Injected flit rate average = 0.100187
	minimum = 0.086 (at node 0)
	maximum = 0.117 (at node 13)
Accepted flit rate average= 0.0995
	minimum = 0.085 (at node 8)
	maximum = 0.112 (at node 3)
Injected packet length average = 1
Accepted packet length average = 1
Total in-flight flits = 37 (37 measured)
latency change    = 0.00102743
throughput change = 0.0584171
Class 0:
Packet latency average = 20.3151
	minimum = 7
	maximum = 51
Network latency average = 20.3142
	minimum = 7
	maximum = 51
Slowest packet = 100404
Flit latency average = 20.3176
	minimum = 7
	maximum = 51
Slowest flit = 100404
Fragmentation average = 0
	minimum = 0
	maximum = 0
Injected packet rate average = 0.0980625
	minimum = 0.087 (at node 12)
	maximum = 0.1115 (at node 13)
Accepted packet rate average = 0.0980937
	minimum = 0.0875 (at node 4)
	maximum = 0.1105 (at node 3)
Injected flit rate average = 0.0980625
	minimum = 0.087 (at node 12)
	maximum = 0.1115 (at node 13)
Accepted flit rate average= 0.0980937
	minimum = 0.0875 (at node 4)
	maximum = 0.1105 (at node 3)
Injected packet length average = 1
Accepted packet length average = 1
Total in-flight flits = 25 (25 measured)
latency change    = 0.00312741
throughput change = 0.0143358
Class 0:
Packet latency average = 20.3655
	minimum = 7
	maximum = 60
Network latency average = 20.3643
	minimum = 7
	maximum = 60
Slowest packet = 102920
Flit latency average = 20.3663
	minimum = 7
	maximum = 60
Slowest flit = 102920
Fragmentation average = 0
	minimum = 0
	maximum = 0
Injected packet rate average = 0.0988958
	minimum = 0.0853333 (at node 12)
	maximum = 0.109333 (at node 13)
Accepted packet rate average = 0.0986875
	minimum = 0.0876667 (at node 4)
	maximum = 0.108667 (at node 3)
Injected flit rate average = 0.0988958
	minimum = 0.0853333 (at node 12)
	maximum = 0.109333 (at node 13)
Accepted flit rate average= 0.0986875
	minimum = 0.0876667 (at node 4)
	maximum = 0.108667 (at node 3)
Injected packet length average = 1
Accepted packet length average = 1
Total in-flight flits = 36 (36 measured)
latency change    = 0.00247464
throughput change = 0.00601647
Class 0:
Packet latency average = 20.294
	minimum = 7
	maximum = 60
Network latency average = 20.2925
	minimum = 7
	maximum = 60
Slowest packet = 102920
Flit latency average = 20.2944
	minimum = 7
	maximum = 60
Slowest flit = 102920
Fragmentation average = 0
	minimum = 0
	maximum = 0
Injected packet rate average = 0.098875
	minimum = 0.08975 (at node 12)
	maximum = 0.1045 (at node 8)
Accepted packet rate average = 0.0987344
	minimum = 0.091 (at node 13)
	maximum = 0.10675 (at node 9)
Injected flit rate average = 0.098875
	minimum = 0.08975 (at node 12)
	maximum = 0.1045 (at node 8)
Accepted flit rate average= 0.0987344
	minimum = 0.091 (at node 13)
	maximum = 0.10675 (at node 9)
Injected packet length average = 1
Accepted packet length average = 1
Total in-flight flits = 35 (35 measured)
latency change    = 0.00352568
throughput change = 0.000474759
Draining all recorded packets ...
Draining remaining packets ...
Time taken is 7074 cycles
Class 0:
Packet latency average = 20.3249
	minimum = 7
	maximum = 50
Network latency average = 20.3243
	minimum = 7
	maximum = 50
Slowest packet = 105037
Flit latency average = 20.3243
	minimum = 7
	maximum = 50
Slowest flit = 105037
Fragmentation average = 0
	minimum = 0
	maximum = 0
Injected packet rate average = 0.0954375
	minimum = 0.075 (at node 4)
	maximum = 0.125 (at node 8)
Accepted packet rate average = 0.0940625
	minimum = 0.08 (at node 14)
	maximum = 0.102 (at node 11)
Injected flit rate average = 0.0954375
	minimum = 0.075 (at node 4)
	maximum = 0.125 (at node 8)
Accepted flit rate average= 0.0940625
	minimum = 0.08 (at node 14)
	maximum = 0.102 (at node 11)
Injected packet length average = 1
Accepted packet length average = 1
Total in-flight flits = 22 (0 measured)
latency change    = 1
throughput change = 1
Class 0:
Packet latency average = 20.3594
	minimum = 7
	maximum = 53
Network latency average = 20.359
	minimum = 7
	maximum = 53
Slowest packet = 106620
Flit latency average = 20.359
	minimum = 7
	maximum = 53
Slowest flit = 106620
Fragmentation average = 0
	minimum = 0
	maximum = 0
Injected packet rate average = 0.0986563
	minimum = 0.0825 (at node 4)
	maximum = 0.1165 (at node 8)
Accepted packet rate average = 0.0976562
	minimum = 0.088 (at node 4)
	maximum = 0.105 (at node 11)
Injected flit rate average = 0.0986563
	minimum = 0.0825 (at node 4)
	maximum = 0.1165 (at node 8)
Accepted flit rate average= 0.0976562
	minimum = 0.088 (at node 4)
	maximum = 0.105 (at node 11)
Injected packet length average = 1
Accepted packet length average = 1
Total in-flight flits = 32 (0 measured)
latency change    = 0.00169176
throughput change = 0.0368
Class 0:
Packet latency average = 20.1722
	minimum = 7
	maximum = 47
Network latency average = 20.1709
	minimum = 7
	maximum = 47
Slowest packet = 109311
Flit latency average = 20.1709
	minimum = 7
	maximum = 47
Slowest flit = 109311
Fragmentation average = 0
	minimum = 0
	maximum = 0
Injected packet rate average = 0.09975
	minimum = 0.087 (at node 4)
	maximum = 0.12 (at node 6)
Accepted packet rate average = 0.0998125
	minimum = 0.081 (at node 0)
	maximum = 0.115 (at node 1)
Injected flit rate average = 0.09975
	minimum = 0.087 (at node 4)
	maximum = 0.12 (at node 6)
Accepted flit rate average= 0.0998125
	minimum = 0.081 (at node 0)
	maximum = 0.115 (at node 1)
Injected packet length average = 1
Accepted packet length average = 1
Total in-flight flits = 31 (0 measured)
latency change    = 0.00927822
throughput change = 0.021603
Warmed up ...Time used is 3000 cycles
Class 0:
Packet latency average = 20.1868
	minimum = 7
	maximum = 52
Network latency average = 20.1862
	minimum = 7
	maximum = 52
Slowest packet = 109539
Flit latency average = 20.2093
	minimum = 7
	maximum = 52
Slowest flit = 109539
Fragmentation average = 0
	minimum = 0
	maximum = 0
Injected packet rate average = 0.0985
	minimum = 0.085 (at node 3)
	maximum = 0.117 (at node 0)
Accepted packet rate average = 0.0979375
	minimum = 0.086 (at node 14)
	maximum = 0.11 (at node 2)
Injected flit rate average = 0.0985
	minimum = 0.085 (at node 3)
	maximum = 0.117 (at node 0)
Accepted flit rate average= 0.0979375
	minimum = 0.086 (at node 14)
	maximum = 0.11 (at node 2)
Injected packet length average = 1
Accepted packet length average = 1
Total in-flight flits = 40 (40 measured)
latency change    = 0.000725774
throughput change = 0.0191449
Class 0:
Packet latency average = 20.4102
	minimum = 7
	maximum = 67
Network latency average = 20.4073
	minimum = 7
	maximum = 67
Slowest packet = 111019
Flit latency average = 20.4166
	minimum = 7
	maximum = 67
Slowest flit = 111019
Fragmentation average = 0
	minimum = 0
	maximum = 0
Injected packet rate average = 0.09925
	minimum = 0.0885 (at node 5)
	maximum = 0.1115 (at node 4)
Accepted packet rate average = 0.0989375
	minimum = 0.0885 (at node 0)
	maximum = 0.109 (at node 2)
Injected flit rate average = 0.09925
	minimum = 0.0885 (at node 5)
	maximum = 0.1115 (at node 4)
Accepted flit rate average= 0.0989375
	minimum = 0.0885 (at node 0)
	maximum = 0.109 (at node 2)
Injected packet length average = 1
Accepted packet length average = 1
Total in-flight flits = 41 (41 measured)
latency change    = 0.0109435
throughput change = 0.0101074
Class 0:
Packet latency average = 20.4351
	minimum = 7
	maximum = 67
Network latency average = 20.4321
	minimum = 7
	maximum = 67
Slowest packet = 111019
Flit latency average = 20.4382
	minimum = 7
	maximum = 67
Slowest flit = 111019
Fragmentation average = 0
	minimum = 0
	maximum = 0
Injected packet rate average = 0.098375
	minimum = 0.0906667 (at node 10)
	maximum = 0.108667 (at node 0)
Accepted packet rate average = 0.098375
	minimum = 0.0883333 (at node 0)
	maximum = 0.112 (at node 15)
Injected flit rate average = 0.098375
	minimum = 0.0906667 (at node 10)
	maximum = 0.108667 (at node 0)
Accepted flit rate average= 0.098375
	minimum = 0.0883333 (at node 0)
	maximum = 0.112 (at node 15)
Injected packet length average = 1
Accepted packet length average = 1
Total in-flight flits = 31 (31 measured)
latency change    = 0.00121757
throughput change = 0.00571792
Draining all recorded packets ...
Draining remaining packets ...
Time taken is 6060 cycles
Class 0:
Packet latency average = 20.3882
	minimum = 7
	maximum = 47
Network latency average = 20.3882
	minimum = 7
	maximum = 47
Slowest packet = 114704
Flit latency average = 20.3882
	minimum = 7
	maximum = 47
Slowest flit = 114704
Fragmentation average = 0
	minimum = 0
	maximum = 0
Injected packet rate average = 0.102563
	minimum = 0.089 (at node 8)
	maximum = 0.119 (at node 0)
Accepted packet rate average = 0.0998125
	minimum = 0.086 (at node 12)
	maximum = 0.133 (at node 4)
Injected flit rate average = 0.102563
	minimum = 0.089 (at node 8)
	maximum = 0.119 (at node 0)
Accepted flit rate average= 0.0998125
	minimum = 0.086 (at node 12)
	maximum = 0.133 (at node 4)
Injected packet length average = 1
Accepted packet length average = 1
Total in-flight flits = 44 (0 measured)
latency change    = 1
throughput change = 1
Class 0:
Packet latency average = 20.3674
	minimum = 7
	maximum = 54
Network latency average = 20.3668
	minimum = 7
	maximum = 54
Slowest packet = 116095
Flit latency average = 20.3668
	minimum = 7
	maximum = 54
Slowest flit = 116095
Fragmentation average = 0
	minimum = 0
	maximum = 0
Injected packet rate average = 0.100531
	minimum = 0.0905 (at node 1)
	maximum = 0.1125 (at node 0)
Accepted packet rate average = 0.0995937
	minimum = 0.087 (at node 15)
	maximum = 0.115 (at node 4)
Injected flit rate average = 0.100531
	minimum = 0.0905 (at node 1)
	maximum = 0.1125 (at node 0)
Accepted flit rate average= 0.0995937
	minimum = 0.087 (at node 15)
	maximum = 0.115 (at node 4)
Injected packet length average = 1
Accepted packet length average = 1
Total in-flight flits = 30 (0 measured)
latency change    = 0.00102113
throughput change = 0.00219642
Class 0:
Packet latency average = 20.2722
	minimum = 7
	maximum = 53
Network latency average = 20.2722
	minimum = 7
	maximum = 53
Slowest packet = 117708
Flit latency average = 20.2722
	minimum = 7
	maximum = 53
Slowest flit = 117708
Fragmentation average = 0
	minimum = 0
	maximum = 0
Injected packet rate average = 0.1015
	minimum = 0.08 (at node 15)
	maximum = 0.116 (at node 7)
Accepted packet rate average = 0.1015
	minimum = 0.088 (at node 13)
	maximum = 0.123 (at node 5)
Injected flit rate average = 0.1015
	minimum = 0.08 (at node 15)
	maximum = 0.116 (at node 7)
Accepted flit rate average= 0.1015
	minimum = 0.088 (at node 13)
	maximum = 0.123 (at node 5)
Injected packet length average = 1
Accepted packet length average = 1
Total in-flight flits = 30 (0 measured)
latency change    = 0.00469919
throughput change = 0.0187808
Warmed up ...Time used is 3000 cycles
Class 0:
Packet latency average = 20.0569
	minimum = 7
	maximum = 49
Network latency average = 20.0544
	minimum = 7
	maximum = 49
Slowest packet = 120375
Flit latency average = 20.0893
	minimum = 7
	maximum = 49
Slowest flit = 120375
Fragmentation average = 0
	minimum = 0
	maximum = 0
Injected packet rate average = 0.100875
	minimum = 0.087 (at node 3)
	maximum = 0.116 (at node 7)
Accepted packet rate average = 0.10075
	minimum = 0.088 (at node 4)
	maximum = 0.127 (at node 10)
Injected flit rate average = 0.100875
	minimum = 0.087 (at node 3)
	maximum = 0.116 (at node 7)
Accepted flit rate average= 0.10075
	minimum = 0.088 (at node 4)
	maximum = 0.127 (at node 10)
Injected packet length average = 1
Accepted packet length average = 1
Total in-flight flits = 32 (32 measured)
latency change    = 0.0107333
throughput change = 0.00744417
Class 0:
Packet latency average = 20.0127
	minimum = 7
	maximum = 49
Network latency average = 20.0111
	minimum = 7
	maximum = 49
Slowest packet = 120375
Flit latency average = 20.0292
	minimum = 7
	maximum = 49
Slowest flit = 120375
Fragmentation average = 0
	minimum = 0
	maximum = 0
Injected packet rate average = 0.099375
	minimum = 0.0915 (at node 3)
	maximum = 0.1085 (at node 11)
Accepted packet rate average = 0.0994687
	minimum = 0.087 (at node 8)
	maximum = 0.1225 (at node 10)
Injected flit rate average = 0.099375
	minimum = 0.0915 (at node 3)
	maximum = 0.1085 (at node 11)
Accepted flit rate average= 0.0994687
	minimum = 0.087 (at node 8)
	maximum = 0.1225 (at node 10)
Injected packet length average = 1
Accepted packet length average = 1
Total in-flight flits = 27 (27 measured)
latency change    = 0.00220878
throughput change = 0.0128809
Class 0:
Packet latency average = 20.168
	minimum = 7
	maximum = 49
Network latency average = 20.1579
	minimum = 7
	maximum = 49
Slowest packet = 120375
Flit latency average = 20.169
	minimum = 7
	maximum = 49
Slowest flit = 120375
Fragmentation average = 0
	minimum = 0
	maximum = 0
Injected packet rate average = 0.100479
	minimum = 0.0923333 (at node 4)
	maximum = 0.111667 (at node 0)
Accepted packet rate average = 0.100354
	minimum = 0.0913333 (at node 8)
	maximum = 0.117667 (at node 10)
Injected flit rate average = 0.100479
	minimum = 0.0923333 (at node 4)
	maximum = 0.111667 (at node 0)
Accepted flit rate average= 0.100354
	minimum = 0.0913333 (at node 8)
	maximum = 0.117667 (at node 10)
Injected packet length average = 1
Accepted packet length average = 1
Total in-flight flits = 36 (36 measured)
latency change    = 0.00769878
throughput change = 0.00882292
Draining all recorded packets ...
Draining remaining packets ...
Time taken is 6063 cycles
Class 0:
Packet latency average = 20.135
	minimum = 7
	maximum = 50
Network latency average = 20.1331
	minimum = 7
	maximum = 50
Slowest packet = 124020
Flit latency average = 20.1331
	minimum = 7
	maximum = 50
Slowest flit = 124020
Fragmentation average = 0
	minimum = 0
	maximum = 0
Injected packet rate average = 0.100062
	minimum = 0.085 (at node 10)
	maximum = 0.112 (at node 7)
Accepted packet rate average = 0.098125
	minimum = 0.082 (at node 0)
	maximum = 0.117 (at node 13)
Injected flit rate average = 0.100062
	minimum = 0.085 (at node 10)
	maximum = 0.112 (at node 7)
Accepted flit rate average= 0.098125
	minimum = 0.082 (at node 0)
	maximum = 0.117 (at node 13)
Injected packet length average = 1
Accepted packet length average = 1
Total in-flight flits = 31 (0 measured)
latency change    = 1
throughput change = 1
Class 0:
Packet latency average = 20.1176
	minimum = 7
	maximum = 50
Network latency average = 20.1167
	minimum = 7
	maximum = 50
Slowest packet = 124020
Flit latency average = 20.1167
	minimum = 7
	maximum = 50
Slowest flit = 124020
Fragmentation average = 0
	minimum = 0
	maximum = 0
Injected packet rate average = 0.101813
	minimum = 0.0865 (at node 10)
	maximum = 0.1115 (at node 8)
Accepted packet rate average = 0.100719
	minimum = 0.088 (at node 9)
	maximum = 0.1175 (at node 13)
Injected flit rate average = 0.101813
	minimum = 0.0865 (at node 10)
	maximum = 0.1115 (at node 8)
Accepted flit rate average= 0.100719
	minimum = 0.088 (at node 9)
	maximum = 0.1175 (at node 13)
Injected packet length average = 1
Accepted packet length average = 1
Total in-flight flits = 35 (0 measured)
latency change    = 0.00086688
throughput change = 0.0257524
Class 0:
Packet latency average = 20.6888
	minimum = 7
	maximum = 58
Network latency average = 20.6882
	minimum = 7
	maximum = 58
Slowest packet = 128426
Flit latency average = 20.6882
	minimum = 7
	maximum = 58
Slowest flit = 128426
Fragmentation average = 0
	minimum = 0
	maximum = 0
Injected packet rate average = 0.102438
	minimum = 0.091 (at node 12)
	maximum = 0.129 (at node 15)
Accepted packet rate average = 0.102438
	minimum = 0.085 (at node 6)
	maximum = 0.114 (at node 3)
Injected flit rate average = 0.102438
	minimum = 0.091 (at node 12)
	maximum = 0.129 (at node 15)
Accepted flit rate average= 0.102438
	minimum = 0.085 (at node 6)
	maximum = 0.114 (at node 3)
Injected packet length average = 1
Accepted packet length average = 1
Total in-flight flits = 35 (0 measured)
latency change    = 0.0276111
throughput change = 0.0167785
Warmed up ...Time used is 3000 cycles
Class 0:
Packet latency average = 20.7056
	minimum = 7
	maximum = 58
Network latency average = 20.7025
	minimum = 7
	maximum = 58
Slowest packet = 129961
Flit latency average = 20.7727
	minimum = 7
	maximum = 58
Slowest flit = 129961
Fragmentation average = 0
	minimum = 0
	maximum = 0
Injected packet rate average = 0.103938
	minimum = 0.089 (at node 5)
	maximum = 0.126 (at node 13)
Accepted packet rate average = 0.1045
	minimum = 0.091 (at node 10)
	maximum = 0.126 (at node 14)
Injected flit rate average = 0.103938
	minimum = 0.089 (at node 5)
	maximum = 0.126 (at node 13)
Accepted flit rate average= 0.1045
	minimum = 0.091 (at node 10)
	maximum = 0.126 (at node 14)
Injected packet length average = 1
Accepted packet length average = 1
Total in-flight flits = 26 (26 measured)
latency change    = 0.00080772
throughput change = 0.0197368
Class 0:
Packet latency average = 20.4888
	minimum = 7
	maximum = 58
Network latency average = 20.487
	minimum = 7
	maximum = 58
Slowest packet = 129961
Flit latency average = 20.5253
	minimum = 7
	maximum = 58
Slowest flit = 129961
Fragmentation average = 0
	minimum = 0
	maximum = 0
Injected packet rate average = 0.101906
	minimum = 0.094 (at node 8)
	maximum = 0.1175 (at node 0)
Accepted packet rate average = 0.101906
	minimum = 0.0915 (at node 2)
	maximum = 0.119 (at node 14)
Injected flit rate average = 0.101906
	minimum = 0.094 (at node 8)
	maximum = 0.1175 (at node 0)
Accepted flit rate average= 0.101906
	minimum = 0.0915 (at node 2)
	maximum = 0.119 (at node 14)
Injected packet length average = 1
Accepted packet length average = 1
Total in-flight flits = 35 (35 measured)
latency change    = 0.0105774
throughput change = 0.0254523
Class 0:
Packet latency average = 20.6678
	minimum = 7
	maximum = 90
Network latency average = 20.6635
	minimum = 7
	maximum = 90
Slowest packet = 132146
Flit latency average = 20.6879
	minimum = 7
	maximum = 90
Slowest flit = 132146
Fragmentation average = 0
	minimum = 0
	maximum = 0
Injected packet rate average = 0.101312
	minimum = 0.093 (at node 3)
	maximum = 0.111333 (at node 5)
Accepted packet rate average = 0.101271
	minimum = 0.0923333 (at node 2)
	maximum = 0.115667 (at node 14)
Injected flit rate average = 0.101312
	minimum = 0.093 (at node 3)
	maximum = 0.111333 (at node 5)
Accepted flit rate average= 0.101271
	minimum = 0.0923333 (at node 2)
	maximum = 0.115667 (at node 14)
Injected packet length average = 1
Accepted packet length average = 1
Total in-flight flits = 37 (37 measured)
latency change    = 0.00866081
throughput change = 0.00627443
Draining all recorded packets ...
Draining remaining packets ...
Time taken is 6061 cycles
Class 0:
Packet latency average = 20.3957
	minimum = 7
	maximum = 71
Network latency average = 20.3885
	minimum = 7
	maximum = 71
Slowest packet = 134127
Flit latency average = 20.3885
	minimum = 7
	maximum = 71
Slowest flit = 134127
Fragmentation average = 0
	minimum = 0
	maximum = 0
Injected packet rate average = 0.097625
	minimum = 0.086 (at node 10)
	maximum = 0.112 (at node 0)
Accepted packet rate average = 0.09525
	minimum = 0.086 (at node 3)
	maximum = 0.118 (at node 9)
Injected flit rate average = 0.097625
	minimum = 0.086 (at node 10)
	maximum = 0.112 (at node 0)
Accepted flit rate average= 0.09525
	minimum = 0.086 (at node 3)
	maximum = 0.118 (at node 9)
Injected packet length average = 1
Accepted packet length average = 1
Total in-flight flits = 38 (0 measured)
latency change    = 1
throughput change = 1
Class 0:
Packet latency average = 20.6122
	minimum = 7
	maximum = 71
Network latency average = 20.6083
	minimum = 7
	maximum = 71
Slowest packet = 134127
Flit latency average = 20.6083
	minimum = 7
	maximum = 71
Slowest flit = 134127
Fragmentation average = 0
	minimum = 0
	maximum = 0
Injected packet rate average = 0.098625
	minimum = 0.087 (at node 9)
	maximum = 0.1135 (at node 7)
Accepted packet rate average = 0.0976562
	minimum = 0.0825 (at node 2)
	maximum = 0.1075 (at node 9)
Injected flit rate average = 0.098625
	minimum = 0.087 (at node 9)
	maximum = 0.1135 (at node 7)
Accepted flit rate average= 0.0976562
	minimum = 0.0825 (at node 2)
	maximum = 0.1075 (at node 9)
Injected packet length average = 1
Accepted packet length average = 1
Total in-flight flits = 31 (0 measured)
latency change    = 0.0105031
throughput change = 0.02464
Class 0:
Packet latency average = 19.9552
	minimum = 7
	maximum = 48
Network latency average = 19.9552
	minimum = 7
	maximum = 48
Slowest packet = 137892
Flit latency average = 19.9552
	minimum = 7
	maximum = 48
Slowest flit = 137892
Fragmentation average = 0
	minimum = 0
	maximum = 0
Injected packet rate average = 0.096125
	minimum = 0.084 (at node 13)
	maximum = 0.108 (at node 14)
Accepted packet rate average = 0.0963125
	minimum = 0.08 (at node 4)
	maximum = 0.112 (at node 13)
Injected flit rate average = 0.096125
	minimum = 0.084 (at node 13)
	maximum = 0.108 (at node 14)
Accepted flit rate average= 0.0963125
	minimum = 0.08 (at node 4)
	maximum = 0.112 (at node 13)
Injected packet length average = 1
Accepted packet length average = 1
Total in-flight flits = 28 (0 measured)
latency change    = 0.0329205
throughput change = 0.013952
Warmed up ...Time used is 3000 cycles
Class 0:
Packet latency average = 20.109
	minimum = 7
	maximum = 56
Network latency average = 20.1084
	minimum = 7
	maximum = 56
Slowest packet = 139486
Flit latency average = 20.1314
	minimum = 7
	maximum = 56
Slowest flit = 139486
Fragmentation average = 0
	minimum = 0
	maximum = 0
Injected packet rate average = 0.103625
	minimum = 0.088 (at node 3)
	maximum = 0.121 (at node 10)
Accepted packet rate average = 0.10325
	minimum = 0.091 (at node 0)
	maximum = 0.117 (at node 4)
Injected flit rate average = 0.103625
	minimum = 0.088 (at node 3)
	maximum = 0.121 (at node 10)
Accepted flit rate average= 0.10325
	minimum = 0.091 (at node 0)
	maximum = 0.117 (at node 4)
Injected packet length average = 1
Accepted packet length average = 1
Total in-flight flits = 34 (34 measured)
latency change    = 0.00764664
throughput change = 0.0671913
Class 0:
Packet latency average = 20.2041
	minimum = 7
	maximum = 56
Network latency average = 20.2032
	minimum = 7
	maximum = 56
Slowest packet = 139486
Flit latency average = 20.2142
	minimum = 7
	maximum = 56
Slowest flit = 139486
Fragmentation average = 0
	minimum = 0
	maximum = 0
Injected packet rate average = 0.100531
	minimum = 0.0895 (at node 3)
	maximum = 0.1135 (at node 10)
Accepted packet rate average = 0.100531
	minimum = 0.0875 (at node 1)
	maximum = 0.109 (at node 7)
Injected flit rate average = 0.100531
	minimum = 0.0895 (at node 3)
	maximum = 0.1135 (at node 10)
Accepted flit rate average= 0.100531
	minimum = 0.0875 (at node 1)
	maximum = 0.109 (at node 7)
Injected packet length average = 1
Accepted packet length average = 1
Total in-flight flits = 28 (28 measured)
latency change    = 0.00470939
throughput change = 0.0270438
Class 0:
Packet latency average = 20.3311
	minimum = 7
	maximum = 56
Network latency average = 20.3305
	minimum = 7
	maximum = 56
Slowest packet = 139486
Flit latency average = 20.3371
	minimum = 7
	maximum = 56
Slowest flit = 139486
Fragmentation average = 0
	minimum = 0
	maximum = 0
Injected packet rate average = 0.099875
	minimum = 0.0916667 (at node 2)
	maximum = 0.110333 (at node 12)
Accepted packet rate average = 0.0998125
	minimum = 0.092 (at node 5)
	maximum = 0.109667 (at node 0)
Injected flit rate average = 0.099875
	minimum = 0.0916667 (at node 2)
	maximum = 0.110333 (at node 12)
Accepted flit rate average= 0.0998125
	minimum = 0.092 (at node 5)
	maximum = 0.109667 (at node 0)
Injected packet length average = 1
Accepted packet length average = 1
Total in-flight flits = 31 (31 measured)
latency change    = 0.00624436
throughput change = 0.007201
Class 0:
Packet latency average = 20.2812
	minimum = 7
	maximum = 56
Network latency average = 20.2808
	minimum = 7
	maximum = 56
Slowest packet = 139486
Flit latency average = 20.2859
	minimum = 7
	maximum = 56
Slowest flit = 139486
Fragmentation average = 0
	minimum = 0
	maximum = 0
Injected packet rate average = 0.0999375
	minimum = 0.0905 (at node 7)
	maximum = 0.10725 (at node 10)
Accepted packet rate average = 0.0998906
	minimum = 0.09025 (at node 2)
	maximum = 0.11075 (at node 4)
Injected flit rate average = 0.0999375
	minimum = 0.0905 (at node 7)
	maximum = 0.10725 (at node 10)
Accepted flit rate average= 0.0998906
	minimum = 0.09025 (at node 2)
	maximum = 0.11075 (at node 4)
Injected packet length average = 1
Accepted packet length average = 1
Total in-flight flits = 31 (31 measured)
latency change    = 0.00245885
throughput change = 0.000782105
Draining all recorded packets ...
Draining remaining packets ...
Time taken is 7070 cycles
Class 0:
Packet latency average = 20.3473
	minimum = 7
	maximum = 51
Network latency average = 20.3466
	minimum = 7
	maximum = 51
Slowest packet = 145309
Flit latency average = 20.3466
	minimum = 7
	maximum = 51
Slowest flit = 145309
Fragmentation average = 0
	minimum = 0
	maximum = 0
Injected packet rate average = 0.102688
	minimum = 0.086 (at node 0)
	maximum = 0.115 (at node 10)
Accepted packet rate average = 0.10025
	minimum = 0.083 (at node 4)
	maximum = 0.119 (at node 13)
Injected flit rate average = 0.102688
	minimum = 0.086 (at node 0)
	maximum = 0.115 (at node 10)
Accepted flit rate average= 0.10025
	minimum = 0.083 (at node 4)
	maximum = 0.119 (at node 13)
Injected packet length average = 1
Accepted packet length average = 1
Total in-flight flits = 39 (0 measured)
latency change    = 1
throughput change = 1
Class 0:
Packet latency average = 20.3082
	minimum = 7
	maximum = 51
Network latency average = 20.3075
	minimum = 7
	maximum = 51
Slowest packet = 145309
Flit latency average = 20.3075
	minimum = 7
	maximum = 51
Slowest flit = 145309
Fragmentation average = 0
	minimum = 0
	maximum = 0
Injected packet rate average = 0.100375
	minimum = 0.09 (at node 5)
	maximum = 0.109 (at node 1)
Accepted packet rate average = 0.099375
	minimum = 0.0855 (at node 4)
	maximum = 0.1145 (at node 11)
[...]
	minimum = 0.081 (at node 2)
	maximum = 0.115 (at node 15)
Accepted packet rate average = 0.100562
	minimum = 0.087 (at node 12)
	maximum = 0.114 (at node 8)
Injected flit rate average = 0.100437
	minimum = 0.081 (at node 2)
	maximum = 0.115 (at node 15)
Accepted flit rate average= 0.100562
	minimum = 0.087 (at node 12)
	maximum = 0.114 (at node 8)
Injected packet length average = 1
Accepted packet length average = 1
Total in-flight flits = 26 (26 measured)
latency change    = 0.0106739
throughput change = 0.0155376
Class 0:
Packet latency average = 20.2234
	minimum = 7
	maximum = 60
Network latency average = 20.2221
	minimum = 7
	maximum = 60
Slowest packet = 968113
Flit latency average = 20.2403
	minimum = 7
	maximum = 60
Slowest flit = 968113
Fragmentation average = 0
	minimum = 0
	maximum = 0
Injected packet rate average = 0.099375
	minimum = 0.0855 (at node 6)
	maximum = 0.1165 (at node 15)
Accepted packet rate average = 0.099375
	minimum = 0.092 (at node 10)
	maximum = 0.1095 (at node 8)
Injected flit rate average = 0.099375
	minimum = 0.0855 (at node 6)
	maximum = 0.1165 (at node 15)
Accepted flit rate average= 0.099375
	minimum = 0.092 (at node 10)
	maximum = 0.1095 (at node 8)
Injected packet length average = 1
Accepted packet length average = 1
Total in-flight flits = 28 (28 measured)
latency change    = 0.0109191
throughput change = 0.0119497
Class 0:
Packet latency average = 20.3341
	minimum = 7
	maximum = 60
Network latency average = 20.3333
	minimum = 7
	maximum = 60
Slowest packet = 968113
Flit latency average = 20.3448
	minimum = 7
	maximum = 60
Slowest flit = 968113
Fragmentation average = 0
	minimum = 0
	maximum = 0
Injected packet rate average = 0.0987708
	minimum = 0.0956667 (at node 6)
	maximum = 0.108667 (at node 11)
Accepted packet rate average = 0.0985417
	minimum = 0.091 (at node 10)
	maximum = 0.103333 (at node 15)
Injected flit rate average = 0.0987708
	minimum = 0.0956667 (at node 6)
	maximum = 0.108667 (at node 11)
Accepted flit rate average= 0.0985417
	minimum = 0.091 (at node 10)
	maximum = 0.103333 (at node 15)
Injected packet length average = 1
Accepted packet length average = 1
Total in-flight flits = 39 (39 measured)
latency change    = 0.00544715
throughput change = 0.00845666
Draining all recorded packets ...
Draining remaining packets ...
Time taken is 6068 cycles
Class 0:
Packet latency average = 20.286
	minimum = 7
	maximum = 55
Network latency average = 20.2853
	minimum = 7
	maximum = 55
Slowest packet = 972015
Flit latency average = 20.2853
	minimum = 7
	maximum = 55
Slowest flit = 972015
Fragmentation average = 0
	minimum = 0
	maximum = 0
Injected packet rate average = 0.097625
	minimum = 0.077 (at node 14)
	maximum = 0.113 (at node 0)
Accepted packet rate average = 0.0959375
	minimum = 0.082 (at node 8)
	maximum = 0.115 (at node 5)
Injected flit rate average = 0.097625
	minimum = 0.077 (at node 14)
	maximum = 0.113 (at node 0)
Accepted flit rate average= 0.0959375
	minimum = 0.082 (at node 8)
	maximum = 0.115 (at node 5)
Injected packet length average = 1
Accepted packet length average = 1
Total in-flight flits = 27 (0 measured)
latency change    = 1
throughput change = 1
Class 0:
Packet latency average = 20.4612
	minimum = 7
	maximum = 55
Network latency average = 20.4606
	minimum = 7
	maximum = 55
Slowest packet = 972015
Flit latency average = 20.4606
	minimum = 7
	maximum = 55
Slowest flit = 972015
Fragmentation average = 0
	minimum = 0
	maximum = 0
Injected packet rate average = 0.101312
	minimum = 0.09 (at node 6)
	maximum = 0.1125 (at node 4)
Accepted packet rate average = 0.100219
	minimum = 0.085 (at node 8)
	maximum = 0.1115 (at node 1)
Injected flit rate average = 0.101312
	minimum = 0.09 (at node 6)
	maximum = 0.1125 (at node 4)
Accepted flit rate average= 0.100219
	minimum = 0.085 (at node 8)
	maximum = 0.1115 (at node 1)
Injected packet length average = 1
Accepted packet length average = 1
Total in-flight flits = 35 (0 measured)
latency change    = 0.00856183
throughput change = 0.0427191
Class 0:
Packet latency average = 20.3536
	minimum = 7
	maximum = 57
Network latency average = 20.3536
	minimum = 7
	maximum = 57
Slowest packet = 975088
Flit latency average = 20.3536
	minimum = 7
	maximum = 57
Slowest flit = 975088
Fragmentation average = 0
	minimum = 0
	maximum = 0
Injected packet rate average = 0.100625
	minimum = 0.089 (at node 14)
	maximum = 0.11 (at node 0)
Accepted packet rate average = 0.10075
	minimum = 0.09 (at node 3)
	maximum = 0.116 (at node 11)
Injected flit rate average = 0.100625
	minimum = 0.089 (at node 14)
	maximum = 0.11 (at node 0)
Accepted flit rate average= 0.10075
	minimum = 0.09 (at node 3)
	maximum = 0.116 (at node 11)
Injected packet length average = 1
Accepted packet length average = 1
Total in-flight flits = 33 (0 measured)
latency change    = 0.00528558
throughput change = 0.00527295
Warmed up ...Time used is 3000 cycles
Class 0:
Packet latency average = 20.1851
	minimum = 7
	maximum = 51
Network latency average = 20.1845
	minimum = 7
	maximum = 51
Slowest packet = 976349
Flit latency average = 20.2687
	minimum = 7
	maximum = 51
Slowest flit = 976349
Fragmentation average = 0
	minimum = 0
	maximum = 0
Injected packet rate average = 0.0986875
	minimum = 0.086 (at node 9)
	maximum = 0.112 (at node 8)
Accepted packet rate average = 0.098625
	minimum = 0.08 (at node 5)
	maximum = 0.112 (at node 14)
Injected flit rate average = 0.0986875
	minimum = 0.086 (at node 9)
	maximum = 0.112 (at node 8)
Accepted flit rate average= 0.098625
	minimum = 0.08 (at node 5)
	maximum = 0.112 (at node 14)
Injected packet length average = 1
Accepted packet length average = 1
Total in-flight flits = 34 (34 measured)
latency change    = 0.00834698
throughput change = 0.0215463
Class 0:
Packet latency average = 20.0022
	minimum = 7
	maximum = 51
Network latency average = 20.0016
	minimum = 7
	maximum = 51
Slowest packet = 976349
Flit latency average = 20.045
	minimum = 7
	maximum = 51
Slowest flit = 976349
Fragmentation average = 0
	minimum = 0
	maximum = 0
Injected packet rate average = 0.0998125
	minimum = 0.09 (at node 5)
	maximum = 0.113 (at node 8)
Accepted packet rate average = 0.100062
	minimum = 0.0915 (at node 3)
	maximum = 0.115 (at node 14)
Injected flit rate average = 0.0998125
	minimum = 0.09 (at node 5)
	maximum = 0.113 (at node 8)
Accepted flit rate average= 0.100062
	minimum = 0.0915 (at node 3)
	maximum = 0.115 (at node 14)
Injected packet length average = 1
Accepted packet length average = 1
Total in-flight flits = 25 (25 measured)
latency change    = 0.00914421
throughput change = 0.014366
Class 0:
Packet latency average = 20.1234
	minimum = 7
	maximum = 55
Network latency average = 20.1228
	minimum = 7
	maximum = 55
Slowest packet = 979152
Flit latency average = 20.1511
	minimum = 7
	maximum = 55
Slowest flit = 979152
Fragmentation average = 0
	minimum = 0
	maximum = 0
Injected packet rate average = 0.0990208
	minimum = 0.0916667 (at node 15)
	maximum = 0.106333 (at node 8)
Accepted packet rate average = 0.099125
	minimum = 0.091 (at node 3)
	maximum = 0.108667 (at node 14)
Injected flit rate average = 0.0990208
	minimum = 0.0916667 (at node 15)
	maximum = 0.106333 (at node 8)
Accepted flit rate average= 0.099125
	minimum = 0.091 (at node 3)
	maximum = 0.108667 (at node 14)
Injected packet length average = 1
Accepted packet length average = 1
Total in-flight flits = 28 (28 measured)
latency change    = 0.00602172
throughput change = 0.00945776
Draining all recorded packets ...
Draining remaining packets ...
Time taken is 6087 cycles
Class 0:
Packet latency average = 19.9719
	minimum = 7
	maximum = 52
Network latency average = 19.9719
	minimum = 7
	maximum = 52
Slowest packet = 980682
Flit latency average = 19.9719
	minimum = 7
	maximum = 52
Slowest flit = 980682
Fragmentation average = 0
	minimum = 0
	maximum = 0
Injected packet rate average = 0.100187
	minimum = 0.087 (at node 6)
	maximum = 0.116 (at node 0)
Accepted packet rate average = 0.0979375
	minimum = 0.083 (at node 5)
	maximum = 0.124 (at node 10)
Injected flit rate average = 0.100187
	minimum = 0.087 (at node 6)
	maximum = 0.116 (at node 0)
Accepted flit rate average= 0.0979375
	minimum = 0.083 (at node 5)
	maximum = 0.124 (at node 10)
Injected packet length average = 1
Accepted packet length average = 1
Total in-flight flits = 36 (0 measured)
latency change    = 1
throughput change = 1
Class 0:
Packet latency average = 19.9282
	minimum = 7
	maximum = 52
Network latency average = 19.9279
	minimum = 7
	maximum = 52
Slowest packet = 980682
Flit latency average = 19.9279
	minimum = 7
	maximum = 52
Slowest flit = 980682
Fragmentation average = 0
	minimum = 0
	maximum = 0
Injected packet rate average = 0.0989687
	minimum = 0.088 (at node 13)
	maximum = 0.107 (at node 12)
Accepted packet rate average = 0.0979375
	minimum = 0.087 (at node 0)
	maximum = 0.12 (at node 10)
Injected flit rate average = 0.0989687
	minimum = 0.088 (at node 13)
	maximum = 0.107 (at node 12)
Accepted flit rate average= 0.0979375
	minimum = 0.087 (at node 0)
	maximum = 0.12 (at node 10)
Injected packet length average = 1
Accepted packet length average = 1
Total in-flight flits = 33 (0 measured)
latency change    = 0.00219358
throughput change = 0
Class 0:
Packet latency average = 20.6084
	minimum = 7
	maximum = 55
Network latency average = 20.6078
	minimum = 7
	maximum = 55
Slowest packet = 984882
Flit latency average = 20.6078
	minimum = 7
	maximum = 55
Slowest flit = 984882
Fragmentation average = 0
	minimum = 0
	maximum = 0
Injected packet rate average = 0.0959375
	minimum = 0.076 (at node 4)
	maximum = 0.116 (at node 9)
Accepted packet rate average = 0.0965625
	minimum = 0.073 (at node 14)
	maximum = 0.116 (at node 9)
Injected flit rate average = 0.0959375
	minimum = 0.076 (at node 4)
	maximum = 0.116 (at node 9)
Accepted flit rate average= 0.0965625
	minimum = 0.073 (at node 14)
	maximum = 0.116 (at node 9)
Injected packet length average = 1
Accepted packet length average = 1
Total in-flight flits = 23 (0 measured)
latency change    = 0.0330063
throughput change = 0.0142395
Warmed up ...Time used is 3000 cycles
Class 0:
Packet latency average = 20.8822
	minimum = 7
	maximum = 60
Network latency average = 20.8809
	minimum = 7
	maximum = 60
Slowest packet = 986370
Flit latency average = 20.8653
	minimum = 7
	maximum = 60
Slowest flit = 986370
Fragmentation average = 0
	minimum = 0
	maximum = 0
Injected packet rate average = 0.0988125
	minimum = 0.086 (at node 5)
	maximum = 0.11 (at node 8)
Accepted packet rate average = 0.0974375
	minimum = 0.067 (at node 6)
	maximum = 0.12 (at node 14)
Injected flit rate average = 0.0988125
	minimum = 0.086 (at node 5)
	maximum = 0.11 (at node 8)
Accepted flit rate average= 0.0974375
	minimum = 0.067 (at node 6)
	maximum = 0.12 (at node 14)
Injected packet length average = 1
Accepted packet length average = 1
Total in-flight flits = 45 (45 measured)
latency change    = 0.0131091
throughput change = 0.00898012
Class 0:
Packet latency average = 20.6681
	minimum = 7
	maximum = 66
Network latency average = 20.6655
	minimum = 7
	maximum = 66
Slowest packet = 987356
Flit latency average = 20.6593
	minimum = 7
	maximum = 66
Slowest flit = 987356
Fragmentation average = 0
	minimum = 0
	maximum = 0
Injected packet rate average = 0.0985
	minimum = 0.089 (at node 5)
	maximum = 0.1115 (at node 13)
Accepted packet rate average = 0.0980625
	minimum = 0.0775 (at node 4)
	maximum = 0.1115 (at node 14)
Injected flit rate average = 0.0985
	minimum = 0.089 (at node 5)
	maximum = 0.1115 (at node 13)
Accepted flit rate average= 0.0980625
	minimum = 0.0775 (at node 4)
	maximum = 0.1115 (at node 14)
Injected packet length average = 1
Accepted packet length average = 1
Total in-flight flits = 37 (37 measured)
latency change    = 0.0103592
throughput change = 0.00637349
Class 0:
Packet latency average = 20.4738
	minimum = 7
	maximum = 66
Network latency average = 20.4719
	minimum = 7
	maximum = 66
Slowest packet = 987356
Flit latency average = 20.4688
	minimum = 7
	maximum = 66
Slowest flit = 987356
Fragmentation average = 0
	minimum = 0
	maximum = 0
Injected packet rate average = 0.0981875
	minimum = 0.0866667 (at node 5)
	maximum = 0.109 (at node 13)
Accepted packet rate average = 0.0980417
	minimum = 0.0896667 (at node 4)
	maximum = 0.108 (at node 5)
Injected flit rate average = 0.0981875
	minimum = 0.0866667 (at node 5)
	maximum = 0.109 (at node 13)
Accepted flit rate average= 0.0980417
	minimum = 0.0896667 (at node 4)
	maximum = 0.108 (at node 5)
Injected packet length average = 1
Accepted packet length average = 1
Total in-flight flits = 30 (30 measured)
latency change    = 0.00948607
throughput change = 0.000212495
Draining all recorded packets ...
Draining remaining packets ...
Time taken is 6053 cycles
Class 0:
Packet latency average = 20.2191
	minimum = 7
	maximum = 50
Network latency average = 20.2166
	minimum = 7
	maximum = 50
Slowest packet = 990725
Flit latency average = 20.2166
	minimum = 7
	maximum = 50
Slowest flit = 990725
Fragmentation average = 0
	minimum = 0
	maximum = 0
Injected packet rate average = 0.101562
	minimum = 0.089 (at node 6)
	maximum = 0.117 (at node 7)
Accepted packet rate average = 0.0995625
	minimum = 0.086 (at node 8)
	maximum = 0.119 (at node 7)
Injected flit rate average = 0.101562
	minimum = 0.089 (at node 6)
	maximum = 0.117 (at node 7)
Accepted flit rate average= 0.0995625
	minimum = 0.086 (at node 8)
	maximum = 0.119 (at node 7)
Injected packet length average = 1
Accepted packet length average = 1
Total in-flight flits = 32 (0 measured)
latency change    = 1
throughput change = 1
Class 0:
Packet latency average = 20.5901
	minimum = 7
	maximum = 52
Network latency average = 20.5883
	minimum = 7
	maximum = 52
Slowest packet = 992634
Flit latency average = 20.5883
	minimum = 7
	maximum = 52
Slowest flit = 992634
Fragmentation average = 0
	minimum = 0
	maximum = 0
Injected packet rate average = 0.102094
	minimum = 0.094 (at node 8)
	maximum = 0.119 (at node 7)
Accepted packet rate average = 0.101094
	minimum = 0.0925 (at node 8)
	maximum = 0.1125 (at node 12)
Injected flit rate average = 0.102094
	minimum = 0.094 (at node 8)
	maximum = 0.119 (at node 7)
Accepted flit rate average= 0.101094
	minimum = 0.0925 (at node 8)
	maximum = 0.1125 (at node 12)
Injected packet length average = 1
Accepted packet length average = 1
Total in-flight flits = 32 (0 measured)
latency change    = 0.0180196
throughput change = 0.0151468
Class 0:
Packet latency average = 20.1221
	minimum = 7
	maximum = 43
Network latency average = 20.1214
	minimum = 7
	maximum = 43
Slowest packet = 994047
Flit latency average = 20.1214
	minimum = 7
	maximum = 43
Slowest flit = 994047
Fragmentation average = 0
	minimum = 0
	maximum = 0
Injected packet rate average = 0.0956875
	minimum = 0.084 (at node 5)
	maximum = 0.111 (at node 1)
Accepted packet rate average = 0.09575
	minimum = 0.08 (at node 8)
	maximum = 0.119 (at node 5)
Injected flit rate average = 0.0956875
	minimum = 0.084 (at node 5)
	maximum = 0.111 (at node 1)
Accepted flit rate average= 0.09575
	minimum = 0.08 (at node 8)
	maximum = 0.119 (at node 5)
Injected packet length average = 1
Accepted packet length average = 1
Total in-flight flits = 31 (0 measured)
latency change    = 0.0232603
throughput change = 0.0558094
Warmed up ...Time used is 3000 cycles
Class 0:
Packet latency average = 20.4502
	minimum = 7
	maximum = 58
Network latency average = 20.4471
	minimum = 7
	maximum = 58
Slowest packet = 996033
Flit latency average = 20.5061
	minimum = 7
	maximum = 58
Slowest flit = 996033
Fragmentation average = 0
	minimum = 0
	maximum = 0
Injected packet rate average = 0.103125
	minimum = 0.08 (at node 2)
	maximum = 0.122 (at node 15)
Accepted packet rate average = 0.103
	minimum = 0.09 (at node 6)
	maximum = 0.115 (at node 14)
Injected flit rate average = 0.103125
	minimum = 0.08 (at node 2)
	maximum = 0.122 (at node 15)
Accepted flit rate average= 0.103
	minimum = 0.09 (at node 6)
	maximum = 0.115 (at node 14)
Injected packet length average = 1
Accepted packet length average = 1
Total in-flight flits = 33 (33 measured)
latency change    = 0.0160465
throughput change = 0.0703883
Class 0:
Packet latency average = 20.3082
	minimum = 7
	maximum = 58
Network latency average = 20.3051
	minimum = 7
	maximum = 58
Slowest packet = 996033
Flit latency average = 20.3368
	minimum = 7
	maximum = 58
Slowest flit = 996033
Fragmentation average = 0
	minimum = 0
	maximum = 0
Injected packet rate average = 0.100219
	minimum = 0.0895 (at node 2)
	maximum = 0.117 (at node 6)
Accepted packet rate average = 0.100125
	minimum = 0.089 (at node 4)
	maximum = 0.1125 (at node 12)
Injected flit rate average = 0.100219
	minimum = 0.0895 (at node 2)
	maximum = 0.117 (at node 6)
Accepted flit rate average= 0.100125
	minimum = 0.089 (at node 4)
	maximum = 0.1125 (at node 12)
Injected packet length average = 1
Accepted packet length average = 1
Total in-flight flits = 34 (34 measured)
latency change    = 0.00699179
throughput change = 0.0287141
Class 0:
Packet latency average = 20.5156
	minimum = 7
	maximum = 71
Network latency average = 20.5123
	minimum = 7
	maximum = 71
Slowest packet = 997885
Flit latency average = 20.532
	minimum = 7
	maximum = 71
Slowest flit = 997885
Fragmentation average = 0
	minimum = 0
	maximum = 0
Injected packet rate average = 0.100667
	minimum = 0.0906667 (at node 13)
	maximum = 0.113667 (at node 6)
Accepted packet rate average = 0.100521
	minimum = 0.0916667 (at node 6)
	maximum = 0.109667 (at node 12)
Injected flit rate average = 0.100667
	minimum = 0.0906667 (at node 13)
	maximum = 0.113667 (at node 6)
Accepted flit rate average= 0.100521
	minimum = 0.0916667 (at node 6)
	maximum = 0.109667 (at node 12)
Injected packet length average = 1
Accepted packet length average = 1
Total in-flight flits = 38 (38 measured)
latency change    = 0.0101103
throughput change = 0.00393782
Class 0:
Packet latency average = 20.5721
	minimum = 7
	maximum = 71
Network latency average = 20.5684
	minimum = 7
	maximum = 71
Slowest packet = 997885
Flit latency average = 20.583
	minimum = 7
	maximum = 71
Slowest flit = 997885
Fragmentation average = 0
	minimum = 0
	maximum = 0
Injected packet rate average = 0.100062
	minimum = 0.0895 (at node 13)
	maximum = 0.107 (at node 6)
Accepted packet rate average = 0.100125
	minimum = 0.09325 (at node 9)
	maximum = 0.10825 (at node 7)
Injected flit rate average = 0.100062
	minimum = 0.0895 (at node 13)
	maximum = 0.107 (at node 6)
Accepted flit rate average= 0.100125
	minimum = 0.09325 (at node 9)
	maximum = 0.10825 (at node 7)
Injected packet length average = 1
Accepted packet length average = 1
Total in-flight flits = 27 (27 measured)
latency change    = 0.00274213
throughput change = 0.00395339
Draining all recorded packets ...
Draining remaining packets ...
Time taken is 7058 cycles
====== Overall Traffic Statistics ======
====== Traffic class 0 ======
Packet latency average = 20.3612 (100 samples)
	minimum = 7 (100 samples)
	maximum = 58.01 (100 samples)
Network latency average = 20.3594 (100 samples)
	minimum = 7 (100 samples)
	maximum = 58.01 (100 samples)
Flit latency average = 20.3791 (100 samples)
	minimum = 7 (100 samples)
	maximum = 58.21 (100 samples)
Fragmentation average = 0 (100 samples)
	minimum = 0 (100 samples)
	maximum = 0 (100 samples)
Injected packet rate average = 0.100086 (100 samples)
	minimum = 0.0906817 (100 samples)
	maximum = 0.109502 (100 samples)
Accepted packet rate average = 0.100105 (100 samples)
	minimum = 0.09059 (100 samples)
	maximum = 0.110243 (100 samples)
Injected flit rate average = 0.100086 (100 samples)
	minimum = 0.0906817 (100 samples)
	maximum = 0.109502 (100 samples)
Accepted flit rate average = 0.100105 (100 samples)
	minimum = 0.09059 (100 samples)
	maximum = 0.110243 (100 samples)
Injected packet size average = 1 (100 samples)
Accepted packet size average = 1 (100 samples)
Hops average = 3.5002 (100 samples)
Total run time 21.7814
