BEGIN Configuration File: /tmp/tmplrt3sdfa.cfg
topology = mesh;
k = 8; n = 2;
routing_function = planar_adapt;
num_vcs = 4; vc_buf_size = 4;
wait_for_tail_credit = 1;
vc_allocator = islip; sw_allocator = islip;
alloc_iters = 1;
credit_delay = 2; routing_delay = 1;
vc_alloc_delay = 1; sw_alloc_delay = 1;
input_speedup = 2; output_speedup = 1; internal_speedup = 1.0;
traffic = transpose;
packet_size = 1; sim_type = latency;
injection_rate = 0.1;
warmup_periods = 3; sample_period = 1000; sim_count = 100;
seed = 1;

END Configuration File: /tmp/tmplrt3sdfa.cfg
Class 0:
Packet latency average = 91.9057
	minimum = 7
	maximum = 944
Network latency average = 57.63
	minimum = 7
	maximum = 944
Slowest packet = 207
Flit latency average = 57.63
	minimum = 7
	maximum = 944
Slowest flit = 207
Fragmentation average = 0
	minimum = 0
	maximum = 0
Injected packet rate average = 0.0564687
	minimum = 0.007 (at node 6)
	maximum = 0.125 (at node 19)
Accepted packet rate average = 0.0515156
	minimum = 0 (at node 7)
	maximum = 0.122 (at node 26)
Injected flit rate average = 0.0564687
	minimum = 0.007 (at node 6)
	maximum = 0.125 (at node 19)
Accepted flit rate average= 0.0515156
	minimum = 0 (at node 7)
	maximum = 0.122 (at node 26)
Injected packet length average = 1
Accepted packet length average = 1
Total in-flight flits = 357 (0 measured)
latency change    = 1
throughput change = 1
Class 0:
Packet latency average = 162.344
	minimum = 7
	maximum = 1918
Network latency average = 66.8859
	minimum = 7
	maximum = 1918
Slowest packet = 401
Flit latency average = 66.8859
	minimum = 7
	maximum = 1918
Slowest flit = 401
Fragmentation average = 0
	minimum = 0
	maximum = 0
Injected packet rate average = 0.0547812
	minimum = 0.004 (at node 7)
	maximum = 0.117 (at node 19)
Accepted packet rate average = 0.0523984
	minimum = 0 (at node 56)
	maximum = 0.1145 (at node 26)
Injected flit rate average = 0.0547812
	minimum = 0.004 (at node 7)
	maximum = 0.117 (at node 19)
Accepted flit rate average= 0.0523984
	minimum = 0 (at node 56)
	maximum = 0.1145 (at node 26)
Injected packet length average = 1
Accepted packet length average = 1
Total in-flight flits = 347 (0 measured)
latency change    = 0.433883
throughput change = 0.0168481
Class 0:
Packet latency average = 370.394
	minimum = 7
	maximum = 2927
Network latency average = 80.8126
	minimum = 7
	maximum = 2927
Slowest packet = 276
Flit latency average = 80.8126
	minimum = 7
	maximum = 2927
Slowest flit = 276
Fragmentation average = 0
	minimum = 0
	maximum = 0
Injected packet rate average = 0.0536719
	minimum = 0 (at node 6)
	maximum = 0.124 (at node 26)
Accepted packet rate average = 0.0535313
	minimum = 0 (at node 7)
	maximum = 0.122 (at node 19)
Injected flit rate average = 0.0536719
	minimum = 0 (at node 6)
	maximum = 0.124 (at node 26)
Accepted flit rate average= 0.0535313
	minimum = 0 (at node 7)
	maximum = 0.122 (at node 19)
Injected packet length average = 1
Accepted packet length average = 1
Total in-flight flits = 355 (0 measured)
latency change    = 0.561699
throughput change = 0.0211617
Average latency for class 0 exceeded 500 cycles. Aborting simulation.
Too many sample periods needed to converge
Simulation unstable, ending ...
Total run time 0.36261
