BEGIN Configuration File: /tmp/tmpc_skx3in.cfg
topology = mesh;
k = 4;
n = 2;
routing_function = gnn_port_score_route_4x4;
num_vcs = 4;
vc_buf_size = 4;
wait_for_tail_credit = 1;
vc_allocator = islip;
sw_allocator = islip;
alloc_iters = 1;
credit_delay = 2;
routing_delay = 1;
vc_alloc_delay = 1;
sw_alloc_delay = 1;
input_speedup = 2;
output_speedup = 1;
internal_speedup = 1.0;
traffic = transpose;
packet_size = 1;
sim_type = latency;
injection_rate = 0.02;
warmup_periods = 3;
sample_period = 1000;
sim_count = 100;
seed = 1;

END Configuration File: /tmp/tmpc_skx3in.cfg
Class 0:
Packet latency average = 18.9196
	minimum = 7
	maximum = 38
Network latency average = 18.9196
	minimum = 7
	maximum = 38
Slowest packet = 130
Flit latency average = 18.9196
	minimum = 7
	maximum = 38
Slowest flit = 130
Fragmentation average = 0
	minimum = 0
	maximum = 0
Injected packet rate average = 0.019875
	minimum = 0.012 (at node 8)
	maximum = 0.031 (at node 0)
Accepted packet rate average = 0.0194375
	minimum = 0.012 (at node 2)
	maximum = 0.031 (at node 0)
Injected flit rate average = 0.019875
	minimum = 0.012 (at node 8)
	maximum = 0.031 (at node 0)
Accepted flit rate average= 0.0194375
	minimum = 0.012 (at node 2)
	maximum = 0.031 (at node 0)
Injected packet length average = 1
Accepted packet length average = 1
Total in-flight flits = 7 (0 measured)
latency change    = 1
throughput change = 1
Class 0:
Packet latency average = 19.6019
	minimum = 7
	maximum = 38
Network latency average = 19.6019
	minimum = 7
	maximum = 38
Slowest packet = 130
Flit latency average = 19.6019
	minimum = 7
	maximum = 38
Slowest flit = 130
Fragmentation average = 0
	minimum = 0
	maximum = 0
Injected packet rate average = 0.0201563
	minimum = 0.0155 (at node 2)
	maximum = 0.025 (at node 0)
Accepted packet rate average = 0.0199375
	minimum = 0.0155 (at node 8)
	maximum = 0.025 (at node 0)
Injected flit rate average = 0.0201563
	minimum = 0.0155 (at node 2)
	maximum = 0.025 (at node 0)
Accepted flit rate average= 0.0199375
	minimum = 0.0155 (at node 8)
	maximum = 0.025 (at node 0)
Injected packet length average = 1
Accepted packet length average = 1
Total in-flight flits = 7 (0 measured)
latency change    = 0.0348062
throughput change = 0.0250784
Class 0:
Packet latency average = 19.8416
	minimum = 7
	maximum = 46
Network latency average = 19.8416
	minimum = 7
	maximum = 46
Slowest packet = 690
Flit latency average = 19.8416
	minimum = 7
	maximum = 46
Slowest flit = 690
Fragmentation average = 0
	minimum = 0
	maximum = 0
Injected packet rate average = 0.0198125
	minimum = 0.01 (at node 0)
	maximum = 0.027 (at node 14)
Accepted packet rate average = 0.020125
	minimum = 0.01 (at node 0)
	maximum = 0.028 (at node 11)
Injected flit rate average = 0.0198125
	minimum = 0.01 (at node 0)
	maximum = 0.027 (at node 14)
Accepted flit rate average= 0.020125
	minimum = 0.01 (at node 0)
	maximum = 0.028 (at node 11)
Injected packet length average = 1
Accepted packet length average = 1
Total in-flight flits = 2 (0 measured)
latency change    = 0.0120824
throughput change = 0.00931677
Warmed up ...Time used is 3000 cycles
Class 0:
Packet latency average = 19.0801
	minimum = 7
	maximum = 38
Network latency average = 19.0801
	minimum = 7
	maximum = 38
Slowest packet = 1163
Flit latency average = 19.1306
	minimum = 7
	maximum = 38
Slowest flit = 1163
Fragmentation average = 0
	minimum = 0
	maximum = 0
Injected packet rate average = 0.0196875
	minimum = 0.015 (at node 0)
	maximum = 0.031 (at node 5)
Accepted packet rate average = 0.019625
	minimum = 0.015 (at node 0)
	maximum = 0.031 (at node 5)
Injected flit rate average = 0.0196875
	minimum = 0.015 (at node 0)
	maximum = 0.031 (at node 5)
Accepted flit rate average= 0.019625
	minimum = 0.015 (at node 0)
	maximum = 0.031 (at node 5)
Injected packet length average = 1
Accepted packet length average = 1
Total in-flight flits = 3 (3 measured)
latency change    = 0.0399099
throughput change = 0.0254777
Class 0:
Packet latency average = 19.8779
	minimum = 7
	maximum = 45
Network latency average = 19.8779
	minimum = 7
	maximum = 45
Slowest packet = 1455
Flit latency average = 19.9002
	minimum = 7
	maximum = 45
Slowest flit = 1455
Fragmentation average = 0
	minimum = 0
	maximum = 0
Injected packet rate average = 0.0201875
	minimum = 0.0155 (at node 9)
	maximum = 0.025 (at node 5)
Accepted packet rate average = 0.0200313
	minimum = 0.0155 (at node 6)
	maximum = 0.025 (at node 5)
Injected flit rate average = 0.0201875
	minimum = 0.0155 (at node 9)
	maximum = 0.025 (at node 5)
Accepted flit rate average= 0.0200313
	minimum = 0.0155 (at node 6)
	maximum = 0.025 (at node 5)
Injected packet length average = 1
Accepted packet length average = 1
Total in-flight flits = 7 (7 measured)
latency change    = 0.0401353
throughput change = 0.0202808
Class 0:
Packet latency average = 19.8087
	minimum = 7
	maximum = 45
Network latency average = 19.8087
	minimum = 7
	maximum = 45
Slowest packet = 1455
Flit latency average = 19.8237
	minimum = 7
	maximum = 45
Slowest flit = 1455
Fragmentation average = 0
	minimum = 0
	maximum = 0
Injected packet rate average = 0.0203125
	minimum = 0.0176667 (at node 11)
	maximum = 0.0236667 (at node 3)
Accepted packet rate average = 0.0200833
	minimum = 0.0176667 (at node 14)
	maximum = 0.0233333 (at node 12)
Injected flit rate average = 0.0203125
	minimum = 0.0176667 (at node 11)
	maximum = 0.0236667 (at node 3)
Accepted flit rate average= 0.0200833
	minimum = 0.0176667 (at node 14)
	maximum = 0.0233333 (at node 12)
Injected packet length average = 1
Accepted packet length average = 1
Total in-flight flits = 13 (13 measured)
latency change    = 0.00349353
throughput change = 0.00259336
Draining all recorded packets ...
Draining remaining packets ...
Time taken is 6059 cycles
Class 0:
Packet latency average = 19.2
	minimum = 7
	maximum = 37
Network latency average = 19.2
	minimum = 7
	maximum = 37
Slowest packet = 1953
Flit latency average = 19.2
	minimum = 7
	maximum = 37
Slowest flit = 1953
Fragmentation average = 0
	minimum = 0
	maximum = 0
Injected packet rate average = 0.0194375
	minimum = 0.012 (at node 14)
	maximum = 0.028 (at node 10)
Accepted packet rate average = 0.019375
	minimum = 0.012 (at node 11)
	maximum = 0.028 (at node 10)
Injected flit rate average = 0.0194375
	minimum = 0.012 (at node 14)
	maximum = 0.028 (at node 10)
Accepted flit rate average= 0.019375
	minimum = 0.012 (at node 11)
	maximum = 0.028 (at node 10)
Injected packet length average = 1
Accepted packet length average = 1
Total in-flight flits = 1 (0 measured)
latency change    = 1
throughput change = 1
Class 0:
Packet latency average = 19.1759
	minimum = 7
	maximum = 39
Network latency average = 19.1759
	minimum = 7
	maximum = 39
Slowest packet = 2437
Flit latency average = 19.1759
	minimum = 7
	maximum = 39
Slowest flit = 2437
Fragmentation average = 0
	minimum = 0
	maximum = 0
Injected packet rate average = 0.019875
	minimum = 0.016 (at node 3)
	maximum = 0.0255 (at node 10)
Accepted packet rate average = 0.0197188
	minimum = 0.016 (at node 12)
	maximum = 0.0255 (at node 10)
Injected flit rate average = 0.019875
	minimum = 0.016 (at node 3)
	maximum = 0.0255 (at node 10)
Accepted flit rate average= 0.0197188
	minimum = 0.016 (at node 12)
	maximum = 0.0255 (at node 10)
Injected packet length average = 1
Accepted packet length average = 1
Total in-flight flits = 5 (0 measured)
latency change    = 0.0012562
throughput change = 0.0174326
Class 0:
Packet latency average = 19.6561
	minimum = 7
	maximum = 37
Network latency average = 19.6561
	minimum = 7
	maximum = 37
Slowest packet = 2601
Flit latency average = 19.6561
	minimum = 7
	maximum = 37
Slowest flit = 2601
Fragmentation average = 0
	minimum = 0
	maximum = 0
Injected packet rate average = 0.0195625
	minimum = 0.016 (at node 14)
	maximum = 0.025 (at node 7)
Accepted packet rate average = 0.019625
	minimum = 0.016 (at node 11)
	maximum = 0.025 (at node 13)
Injected flit rate average = 0.0195625
	minimum = 0.016 (at node 14)
	maximum = 0.025 (at node 7)
Accepted flit rate average= 0.019625
	minimum = 0.016 (at node 11)
	maximum = 0.025 (at node 13)
Injected packet length average = 1
Accepted packet length average = 1
Total in-flight flits = 4 (0 measured)
latency change    = 0.0244271
throughput change = 0.00477707
Warmed up ...Time used is 3000 cycles
Class 0:
Packet latency average = 19.5765
	minimum = 7
	maximum = 37
Network latency average = 19.5765
	minimum = 7
	maximum = 37
Slowest packet = 2905
Flit latency average = 19.7042
	minimum = 7
	maximum = 37
Slowest flit = 2894
Fragmentation average = 0
	minimum = 0
	maximum = 0
Injected packet rate average = 0.0195
	minimum = 0.012 (at node 10)
	maximum = 0.026 (at node 1)
Accepted packet rate average = 0.0194375
	minimum = 0.012 (at node 10)
	maximum = 0.027 (at node 4)
Injected flit rate average = 0.0195
	minimum = 0.012 (at node 10)
	maximum = 0.026 (at node 1)
Accepted flit rate average= 0.0194375
	minimum = 0.012 (at node 10)
	maximum = 0.027 (at node 4)
Injected packet length average = 1
Accepted packet length average = 1
Total in-flight flits = 5 (5 measured)
latency change    = 0.00406117
throughput change = 0.0096463
Class 0:
Packet latency average = 19.4389
	minimum = 7
	maximum = 38
Network latency average = 19.4389
	minimum = 7
	maximum = 38
Slowest packet = 3212
Flit latency average = 19.5049
	minimum = 7
	maximum = 38
Slowest flit = 3212
Fragmentation average = 0
	minimum = 0
	maximum = 0
Injected packet rate average = 0.0191562
	minimum = 0.015 (at node 15)
	maximum = 0.0245 (at node 14)
Accepted packet rate average = 0.0190625
	minimum = 0.015 (at node 15)
	maximum = 0.0245 (at node 11)
Injected flit rate average = 0.0191562
	minimum = 0.015 (at node 15)
	maximum = 0.0245 (at node 14)
Accepted flit rate average= 0.0190625
	minimum = 0.015 (at node 15)
	maximum = 0.0245 (at node 11)
Injected packet length average = 1
Accepted packet length average = 1
Total in-flight flits = 7 (7 measured)
latency change    = 0.00707875
throughput change = 0.0196721
Class 0:
Packet latency average = 19.5275
	minimum = 7
	maximum = 38
Network latency average = 19.5275
	minimum = 7
	maximum = 38
Slowest packet = 3212
Flit latency average = 19.5721
	minimum = 7
	maximum = 38
Slowest flit = 3212
Fragmentation average = 0
	minimum = 0
	maximum = 0
Injected packet rate average = 0.0186875
	minimum = 0.0156667 (at node 10)
	maximum = 0.0253333 (at node 9)
Accepted packet rate average = 0.0186458
	minimum = 0.0156667 (at node 10)
	maximum = 0.0253333 (at node 6)
Injected flit rate average = 0.0186875
	minimum = 0.0156667 (at node 10)
	maximum = 0.0253333 (at node 9)
Accepted flit rate average= 0.0186458
	minimum = 0.0156667 (at node 10)
	maximum = 0.0253333 (at node 6)
Injected packet length average = 1
Accepted packet length average = 1
Total in-flight flits = 6 (6 measured)
latency change    = 0.0045348
throughput change = 0.0223464
Draining all recorded packets ...
Draining remaining packets ...
Time taken is 6053 cycles
Class 0:
Packet latency average = 19.8486
	minimum = 7
	maximum = 42
Network latency average = 19.8486
	minimum = 7
	maximum = 42
Slowest packet = 3969
Flit latency average = 19.8486
	minimum = 7
	maximum = 42
Slowest flit = 3969
Fragmentation average = 0
	minimum = 0
	maximum = 0
Injected packet rate average = 0.0203125
	minimum = 0.012 (at node 13)
	maximum = 0.026 (at node 12)
Accepted packet rate average = 0.0198125
	minimum = 0.01 (at node 7)
	maximum = 0.025 (at node 3)
Injected flit rate average = 0.0203125
	minimum = 0.012 (at node 13)
	maximum = 0.026 (at node 12)
Accepted flit rate average= 0.0198125
	minimum = 0.01 (at node 7)
	maximum = 0.025 (at node 3)
Injected packet length average = 1
Accepted packet length average = 1
Total in-flight flits = 8 (0 measured)
latency change    = 1
throughput change = 1
Class 0:
Packet latency average = 19.7248
	minimum = 7
	maximum = 42
Network latency average = 19.7248
	minimum = 7
	maximum = 42
Slowest packet = 3969
Flit latency average = 19.7248
	minimum = 7
	maximum = 42
Slowest flit = 3969
Fragmentation average = 0
	minimum = 0
	maximum = 0
Injected packet rate average = 0.0187187
	minimum = 0.016 (at node 2)
	maximum = 0.0225 (at node 12)
Accepted packet rate average = 0.018625
	minimum = 0.016 (at node 6)
	maximum = 0.0215 (at node 1)
Injected flit rate average = 0.0187187
	minimum = 0.016 (at node 2)
	maximum = 0.0225 (at node 12)
Accepted flit rate average= 0.018625
	minimum = 0.016 (at node 6)
	maximum = 0.0215 (at node 1)
Injected packet length average = 1
Accepted packet length average = 1
Total in-flight flits = 3 (0 measured)
latency change    = 0.00627373
throughput change = 0.0637584
Class 0:
Packet latency average = 19.4745
	minimum = 7
	maximum = 37
Network latency average = 19.4745
	minimum = 7
	maximum = 37
Slowest packet = 4399
Flit latency average = 19.4745
	minimum = 7
	maximum = 37
Slowest flit = 4399
Fragmentation average = 0
	minimum = 0
	maximum = 0
Injected packet rate average = 0.0196875
	minimum = 0.009 (at node 3)
	maximum = 0.027 (at node 12)
Accepted packet rate average = 0.019625
	minimum = 0.009 (at node 12)
	maximum = 0.029 (at node 3)
Injected flit rate average = 0.0196875
	minimum = 0.009 (at node 3)
	maximum = 0.027 (at node 12)
Accepted flit rate average= 0.019625
	minimum = 0.009 (at node 12)
	maximum = 0.029 (at node 3)
Injected packet length average = 1
Accepted packet length average = 1
Total in-flight flits = 4 (0 measured)
latency change    = 0.0128532
throughput change = 0.0509554
Warmed up ...Time used is 3000 cycles
Class 0:
Packet latency average = 20.0314
	minimum = 7
	maximum = 40
Network latency average = 20.0314
	minimum = 7
	maximum = 40
Slowest packet = 4923
Flit latency average = 20.0248
	minimum = 7
	maximum = 40
Slowest flit = 4923
Fragmentation average = 0
	minimum = 0
	maximum = 0
Injected packet rate average = 0.020125
	minimum = 0.015 (at node 9)
	maximum = 0.028 (at node 15)
Accepted packet rate average = 0.020125
	minimum = 0.014 (at node 10)
	maximum = 0.028 (at node 15)
Injected flit rate average = 0.020125
	minimum = 0.015 (at node 9)
	maximum = 0.028 (at node 15)
Accepted flit rate average= 0.020125
	minimum = 0.014 (at node 10)
	maximum = 0.028 (at node 15)
Injected packet length average = 1
Accepted packet length average = 1
Total in-flight flits = 4 (4 measured)
latency change    = 0.0278025
throughput change = 0.0248447
Class 0:
Packet latency average = 19.4729
	minimum = 7
	maximum = 44
Network latency average = 19.4729
	minimum = 7
	maximum = 44
Slowest packet = 5113
Flit latency average = 19.4731
	minimum = 7
	maximum = 44
Slowest flit = 5113
Fragmentation average = 0
	minimum = 0
	maximum = 0
Injected packet rate average = 0.0197813
	minimum = 0.016 (at node 0)
	maximum = 0.028 (at node 15)
Accepted packet rate average = 0.01975
	minimum = 0.0155 (at node 0)
	maximum = 0.028 (at node 15)
Injected flit rate average = 0.0197813
	minimum = 0.016 (at node 0)
	maximum = 0.028 (at node 15)
Accepted flit rate average= 0.01975
	minimum = 0.0155 (at node 0)
	maximum = 0.028 (at node 15)
Injected packet length average = 1
Accepted packet length average = 1
Total in-flight flits = 5 (5 measured)
latency change    = 0.0286817
throughput change = 0.0189873
Class 0:
Packet latency average = 19.316
	minimum = 7
	maximum = 44
Network latency average = 19.316
	minimum = 7
	maximum = 44
Slowest packet = 5113
Flit latency average = 19.3168
	minimum = 7
	maximum = 44
Slowest flit = 5113
Fragmentation average = 0
	minimum = 0
	maximum = 0
Injected packet rate average = 0.0193542
	minimum = 0.015 (at node 11)
	maximum = 0.0253333 (at node 15)
Accepted packet rate average = 0.0193333
	minimum = 0.015 (at node 2)
	maximum = 0.0253333 (at node 15)
Injected flit rate average = 0.0193542
	minimum = 0.015 (at node 11)
	maximum = 0.0253333 (at node 15)
Accepted flit rate average= 0.0193333
	minimum = 0.015 (at node 2)
	maximum = 0.0253333 (at node 15)
Injected packet length average = 1
Accepted packet length average = 1
Total in-flight flits = 5 (5 measured)
latency change    = 0.00812345
throughput change = 0.0215517
Draining all recorded packets ...
Draining remaining packets ...
Time taken is 6045 cycles
Class 0:
Packet latency average = 19.564
	minimum = 7
	maximum = 37
Network latency average = 19.564
	minimum = 7
	maximum = 37
Slowest packet = 5667
Flit latency average = 19.564
	minimum = 7
	maximum = 37
Slowest flit = 5667
Fragmentation average = 0
	minimum = 0
	maximum = 0
Injected packet rate average = 0.02075
	minimum = 0.015 (at node 2)
	maximum = 0.03 (at node 7)
Accepted packet rate average = 0.0205
	minimum = 0.015 (at node 8)
	maximum = 0.027 (at node 13)
Injected flit rate average = 0.02075
	minimum = 0.015 (at node 2)
	maximum = 0.03 (at node 7)
Accepted flit rate average= 0.0205
	minimum = 0.015 (at node 8)
	maximum = 0.027 (at node 13)
Injected packet length average = 1
Accepted packet length average = 1
Total in-flight flits = 4 (0 measured)
latency change    = 1
throughput change = 1
Class 0:
Packet latency average = 19.2329
	minimum = 7
	maximum = 37
Network latency average = 19.2329
	minimum = 7
	maximum = 37
Slowest packet = 5667
Flit latency average = 19.2329
	minimum = 7
	maximum = 37
Slowest flit = 5667
Fragmentation average = 0
	minimum = 0
	maximum = 0
Injected packet rate average = 0.0203438
	minimum = 0.0165 (at node 2)
	maximum = 0.026 (at node 7)
Accepted packet rate average = 0.020125
	minimum = 0.0155 (at node 12)
	maximum = 0.026 (at node 13)
Injected flit rate average = 0.0203438
	minimum = 0.0165 (at node 2)
	maximum = 0.026 (at node 7)
Accepted flit rate average= 0.020125
	minimum = 0.0155 (at node 12)
	maximum = 0.026 (at node 13)
Injected packet length average = 1
Accepted packet length average = 1
Total in-flight flits = 7 (0 measured)
latency change    = 0.0172155
throughput change = 0.0186335
Class 0:
Packet latency average = 19.7065
	minimum = 7
	maximum = 37
Network latency average = 19.7065
	minimum = 7
	maximum = 37
Slowest packet = 6304
Flit latency average = 19.7065
	minimum = 7
	maximum = 37
Slowest flit = 6304
Fragmentation average = 0
	minimum = 0
	maximum = 0
Injected packet rate average = 0.019375
	minimum = 0.014 (at node 6)
	maximum = 0.025 (at node 11)
Accepted packet rate average = 0.019375
	minimum = 0.014 (at node 9)
	maximum = 0.026 (at node 14)
Injected flit rate average = 0.019375
	minimum = 0.014 (at node 6)
	maximum = 0.025 (at node 11)
Accepted flit rate average= 0.019375
	minimum = 0.014 (at node 9)
	maximum = 0.026 (at node 14)
Injected packet length average = 1
Accepted packet length average = 1
Total in-flight flits = 7 (0 measured)
latency change    = 0.0240293
throughput change = 0.0387097
Warmed up ...Time used is 3000 cycles
Class 0:
Packet latency average = 19.9488
	minimum = 7
	maximum = 37
Network latency average = 19.9488
	minimum = 7
	maximum = 37
Slowest packet = 6619
Flit latency average = 20.0944
	minimum = 7
	maximum = 37
Slowest flit = 6609
Fragmentation average = 0
	minimum = 0
	maximum = 0
Injected packet rate average = 0.021125
	minimum = 0.014 (at node 14)
	maximum = 0.028 (at node 9)
Accepted packet rate average = 0.0211875
	minimum = 0.014 (at node 11)
	maximum = 0.028 (at node 6)
Injected flit rate average = 0.021125
	minimum = 0.014 (at node 14)
	maximum = 0.028 (at node 9)
Accepted flit rate average= 0.0211875
	minimum = 0.014 (at node 11)
	maximum = 0.028 (at node 6)
Injected packet length average = 1
Accepted packet length average = 1
Total in-flight flits = 6 (6 measured)
latency change    = 0.0121483
throughput change = 0.0855457
Class 0:
Packet latency average = 19.8685
	minimum = 7
	maximum = 41
Network latency average = 19.8685
	minimum = 7
	maximum = 41
Slowest packet = 7138
Flit latency average = 19.9423
	minimum = 7
	maximum = 41
Slowest flit = 7138
Fragmentation average = 0
	minimum = 0
	maximum = 0
Injected packet rate average = 0.0210625
	minimum = 0.0135 (at node 14)
	maximum = 0.027 (at node 2)
Accepted packet rate average = 0.021125
	minimum = 0.0135 (at node 11)
	maximum = 0.027 (at node 8)
Injected flit rate average = 0.0210625
	minimum = 0.0135 (at node 14)
	maximum = 0.027 (at node 2)
Accepted flit rate average= 0.021125
	minimum = 0.0135 (at node 11)
	maximum = 0.027 (at node 8)
Injected packet length average = 1
Accepted packet length average = 1
Total in-flight flits = 5 (5 measured)
latency change    = 0.00404333
throughput change = 0.00295858
Class 0:
Packet latency average = 19.7232
	minimum = 7
	maximum = 41
Network latency average = 19.7232
	minimum = 7
	maximum = 41
Slowest packet = 7138
Flit latency average = 19.7734
	minimum = 7
	maximum = 41
Slowest flit = 7138
Fragmentation average = 0
	minimum = 0
	maximum = 0
Injected packet rate average = 0.0211667
	minimum = 0.016 (at node 14)
	maximum = 0.0273333 (at node 2)
Accepted packet rate average = 0.0211458
	minimum = 0.016 (at node 11)
	maximum = 0.0276667 (at node 8)
Injected flit rate average = 0.0211667
	minimum = 0.016 (at node 14)
	maximum = 0.0273333 (at node 2)
Accepted flit rate average= 0.0211458
	minimum = 0.016 (at node 11)
	maximum = 0.0276667 (at node 8)
Injected packet length average = 1
Accepted packet length average = 1
Total in-flight flits = 8 (8 measured)
latency change    = 0.00736422
throughput change = 0.000985222
Class 0:
Packet latency average = 19.3698
	minimum = 7
	maximum = 41
Network latency average = 19.3698
	minimum = 7
	maximum = 41
Slowest packet = 7138
Flit latency average = 19.4091
	minimum = 7
	maximum = 41
Slowest flit = 7138
Fragmentation average = 0
	minimum = 0
	maximum = 0
Injected packet rate average = 0.0212031
	minimum = 0.01825 (at node 3)
	maximum = 0.0245 (at node 2)
Accepted packet rate average = 0.0212344
	minimum = 0.0185 (at node 11)
	maximum = 0.02475 (at node 8)
Injected flit rate average = 0.0212031
	minimum = 0.01825 (at node 3)
	maximum = 0.0245 (at node 2)
Accepted flit rate average= 0.0212344
	minimum = 0.0185 (at node 11)
	maximum = 0.02475 (at node 8)
Injected packet length average = 1
Accepted packet length average = 1
Total in-flight flits = 5 (5 measured)
latency change    = 0.0182445
throughput change = 0.00416973
Draining all recorded packets ...
Draining remaining packets ...
Time taken is 7042 cycles
Class 0:
Packet latency average = 18.8882
	minimum = 7
	maximum = 44
Network latency average = 18.8882
	minimum = 7
	maximum = 44
Slowest packet = 8019
Flit latency average = 18.8882
	minimum = 7
	maximum = 44
Slowest flit = 8019
Fragmentation average = 0
	minimum = 0
	maximum = 0
Injected packet rate average = 0.019375
	minimum = 0.011 (at node 12)
	maximum = 0.034 (at node 10)
Accepted packet rate average = 0.019
	minimum = 0.01 (at node 3)
	maximum = 0.034 (at node 10)
Injected flit rate average = 0.019375
	minimum = 0.011 (at node 12)
	maximum = 0.034 (at node 10)
Accepted flit rate average= 0.019
	minimum = 0.01 (at node 3)
	maximum = 0.034 (at node 10)
Injected packet length average = 1
Accepted packet length average = 1
Total in-flight flits = 6 (0 measured)
latency change    = 1
throughput change = 1
Class 0:
Packet latency average = 19.6134
	minimum = 7
	maximum = 44
Network latency average = 19.6134
	minimum = 7
	maximum = 44
Slowest packet = 8019
Flit latency average = 19.6134
	minimum = 7
	maximum = 44
Slowest flit = 8019
Fragmentation average = 0
	minimum = 0
	maximum = 0
Injected packet rate average = 0.0207188
	minimum = 0.014 (at node 12)
	maximum = 0.028 (at node 3)
Accepted packet rate average = 0.0205313
	minimum = 0.0135 (at node 3)
	maximum = 0.028 (at node 12)
Injected flit rate average = 0.0207188
	minimum = 0.014 (at node 12)
	maximum = 0.028 (at node 3)
Accepted flit rate average= 0.0205313
	minimum = 0.0135 (at node 3)
	maximum = 0.028 (at node 12)
Injected packet length average = 1
Accepted packet length average = 1
Total in-flight flits = 6 (0 measured)
latency change    = 0.0369766
throughput change = 0.0745814
Class 0:
Packet latency average = 19.7485
	minimum = 7
	maximum = 43
Network latency average = 19.7485
	minimum = 7
	maximum = 43
Slowest packet = 8864
Flit latency average = 19.7485
	minimum = 7
	maximum = 43
Slowest flit = 8864
Fragmentation average = 0
	minimum = 0
	maximum = 0
Injected packet rate average = 0.0205
	minimum = 0.016 (at node 1)
	maximum = 0.027 (at node 11)
Accepted packet rate average = 0.020625
	minimum = 0.015 (at node 9)
	maximum = 0.028 (at node 14)
Injected flit rate average = 0.0205
	minimum = 0.016 (at node 1)
	maximum = 0.027 (at node 11)
Accepted flit rate average= 0.020625
	minimum = 0.015 (at node 9)
	maximum = 0.028 (at node 14)
Injected packet length average = 1
Accepted packet length average = 1
Total in-flight flits = 4 (0 measured)
latency change    = 0.00684056
throughput change = 0.00454545
Warmed up ...Time used is 3000 cycles
Class 0:
Packet latency average = 19.3729
	minimum = 7
	maximum = 38
Network latency average = 19.3729
	minimum = 7
	maximum = 38
Slowest packet = 9102
Flit latency average = 19.4072
	minimum = 7
	maximum = 38
Slowest flit = 9102
Fragmentation average = 0
	minimum = 0
	maximum = 0
Injected packet rate average = 0.0193125
	minimum = 0.011 (at node 5)
	maximum = 0.028 (at node 14)
Accepted packet rate average = 0.0191875
	minimum = 0.011 (at node 5)
	maximum = 0.028 (at node 11)
Injected flit rate average = 0.0193125
	minimum = 0.011 (at node 5)
	maximum = 0.028 (at node 14)
Accepted flit rate average= 0.0191875
	minimum = 0.011 (at node 5)
	maximum = 0.028 (at node 11)
Injected packet length average = 1
Accepted packet length average = 1
Total in-flight flits = 6 (6 measured)
latency change    = 0.0193852
throughput change = 0.0749186
Class 0:
Packet latency average = 19.6911
	minimum = 7
	maximum = 45
Network latency average = 19.6911
	minimum = 7
	maximum = 45
Slowest packet = 9337
Flit latency average = 19.7052
	minimum = 7
	maximum = 45
Slowest flit = 9337
Fragmentation average = 0
	minimum = 0
	maximum = 0
Injected packet rate average = 0.0207188
	minimum = 0.0145 (at node 5)
	maximum = 0.0275 (at node 8)
Accepted packet rate average = 0.0205625
	minimum = 0.0145 (at node 5)
	maximum = 0.028 (at node 2)
Injected flit rate average = 0.0207188
	minimum = 0.0145 (at node 5)
	maximum = 0.0275 (at node 8)
Accepted flit rate average= 0.0205625
	minimum = 0.0145 (at node 5)
	maximum = 0.028 (at node 2)
Injected packet length average = 1
Accepted packet length average = 1
Total in-flight flits = 9 (9 measured)
latency change    = 0.0161593
throughput change = 0.0668693
Class 0:
Packet latency average = 19.6624
	minimum = 7
	maximum = 45
Network latency average = 19.6624
	minimum = 7
	maximum = 45
Slowest packet = 9337
Flit latency average = 19.6715
	minimum = 7
	maximum = 45
Slowest flit = 9337
Fragmentation average = 0
	minimum = 0
	maximum = 0
Injected packet rate average = 0.0213333
	minimum = 0.0166667 (at node 5)
	maximum = 0.0276667 (at node 8)
Accepted packet rate average = 0.021375
	minimum = 0.0166667 (at node 5)
	maximum = 0.0276667 (at node 2)
Injected flit rate average = 0.0213333
	minimum = 0.0166667 (at node 5)
	maximum = 0.0276667 (at node 8)
Accepted flit rate average= 0.021375
	minimum = 0.0166667 (at node 5)
	maximum = 0.0276667 (at node 2)
Injected packet length average = 1
Accepted packet length average = 1
Total in-flight flits = 2 (2 measured)
latency change    = 0.00145989
throughput change = 0.0380117
Class 0:
Packet latency average = 19.4632
	minimum = 7
	maximum = 45
Network latency average = 19.4632
	minimum = 7
	maximum = 45
Slowest packet = 9337
Flit latency average = 19.4708
	minimum = 7
	maximum = 45
Slowest flit = 9337
Fragmentation average = 0
	minimum = 0
	maximum = 0
Injected packet rate average = 0.0209219
	minimum = 0.01625 (at node 5)
	maximum = 0.02475 (at node 14)
Accepted packet rate average = 0.0208438
	minimum = 0.01625 (at node 5)
	maximum = 0.02475 (at node 2)
Injected flit rate average = 0.0209219
	minimum = 0.01625 (at node 5)
	maximum = 0.02475 (at node 14)
Accepted flit rate average= 0.0208438
	minimum = 0.01625 (at node 5)
	maximum = 0.02475 (at node 2)
Injected packet length average = 1
Accepted packet length average = 1
Total in-flight flits = 9 (9 measured)
latency change    = 0.0102383
throughput change = 0.0254873
Class 0:
Packet latency average = 19.5933
	minimum = 7
	maximum = 45
Network latency average = 19.5933
	minimum = 7
	maximum = 45
Slowest packet = 9337
Flit latency average = 19.5993
	minimum = 7
	maximum = 45
Slowest flit = 9337
Fragmentation average = 0
	minimum = 0
	maximum = 0
Injected packet rate average = 0.02035
	minimum = 0.016 (at node 5)
	maximum = 0.024 (at node 14)
Accepted packet rate average = 0.0203375
	minimum = 0.016 (at node 5)
	maximum = 0.024 (at node 11)
Injected flit rate average = 0.02035
	minimum = 0.016 (at node 5)
	maximum = 0.024 (at node 14)
Accepted flit rate average= 0.0203375
	minimum = 0.016 (at node 5)
	maximum = 0.024 (at node 11)
Injected packet length average = 1
Accepted packet length average = 1
Total in-flight flits = 5 (5 measured)
latency change    = 0.00664449
throughput change = 0.0248924
Draining all recorded packets ...
Draining remaining packets ...
Time taken is 8065 cycles
Class 0:
Packet latency average = 19.621
	minimum = 7
	maximum = 45
Network latency average = 19.621
	minimum = 7
	maximum = 45
Slowest packet = 10753
Flit latency average = 19.621
	minimum = 7
	maximum = 45
Slowest flit = 10753
Fragmentation average = 0
	minimum = 0
	maximum = 0
Injected packet rate average = 0.0215625
	minimum = 0.016 (at node 6)
	maximum = 0.03 (at node 1)
Accepted packet rate average = 0.0214375
	minimum = 0.016 (at node 7)
	maximum = 0.03 (at node 4)
Injected flit rate average = 0.0215625
	minimum = 0.016 (at node 6)
	maximum = 0.03 (at node 1)
Accepted flit rate average= 0.0214375
	minimum = 0.016 (at node 7)
	maximum = 0.03 (at node 4)
Injected packet length average = 1
Accepted packet length average = 1
Total in-flight flits = 2 (0 measured)
latency change    = 1
throughput change = 1
Class 0:
Packet latency average = 19.7727
	minimum = 7
	maximum = 45
Network latency average = 19.7727
	minimum = 7
	maximum = 45
Slowest packet = 10753
Flit latency average = 19.7727
	minimum = 7
	maximum = 45
Slowest flit = 10753
Fragmentation average = 0
	minimum = 0
	maximum = 0
Injected packet rate average = 0.020625
	minimum = 0.016 (at node 6)
	maximum = 0.0245 (at node 5)
Accepted packet rate average = 0.0203438
	minimum = 0.016 (at node 9)
	maximum = 0.0245 (at node 5)
Injected flit rate average = 0.020625
	minimum = 0.016 (at node 6)
	maximum = 0.0245 (at node 5)
Accepted flit rate average= 0.0203438
	minimum = 0.016 (at node 9)
	maximum = 0.0245 (at node 5)
Injected packet length average = 1
Accepted packet length average = 1
Total in-flight flits = 9 (0 measured)
latency change    = 0.0076705
throughput change = 0.0537634
Class 0:
Packet latency average = 19.9259
	minimum = 7
	maximum = 37
Network latency average = 19.9259
	minimum = 7
	maximum = 37
Slowest packet = 11249
Flit latency average = 19.9259
	minimum = 7
	maximum = 37
Slowest flit = 11249
Fragmentation average = 0
	minimum = 0
	maximum = 0
Injected packet rate average = 0.02025
	minimum = 0.012 (at node 11)
	maximum = 0.032 (at node 8)
Accepted packet rate average = 0.02025
	minimum = 0.012 (at node 14)
	maximum = 0.031 (at node 2)
Injected flit rate average = 0.02025
	minimum = 0.012 (at node 11)
	maximum = 0.032 (at node 8)
Accepted flit rate average= 0.02025
	minimum = 0.012 (at node 14)
	maximum = 0.031 (at node 2)
Injected packet length average = 1
Accepted packet length average = 1
Total in-flight flits = 9 (0 measured)
latency change    = 0.00769191
throughput change = 0.00462963
Warmed up ...Time used is 3000 cycles
Class 0:
Packet latency average = 17.9839
	minimum = 7
	maximum = 45
Network latency average = 17.9839
	minimum = 7
	maximum = 45
Slowest packet = 11645
Flit latency average = 18.3625
	minimum = 7
	maximum = 45
Slowest flit = 11645
Fragmentation average = 0
	minimum = 0
	maximum = 0
Injected packet rate average = 0.0196875
	minimum = 0.011 (at node 12)
	maximum = 0.027 (at node 0)
Accepted packet rate average = 0.02
	minimum = 0.013 (at node 3)
	maximum = 0.027 (at node 0)
Injected flit rate average = 0.0196875
	minimum = 0.011 (at node 12)
	maximum = 0.027 (at node 0)
Accepted flit rate average= 0.02
	minimum = 0.013 (at node 3)
	maximum = 0.027 (at node 0)
Injected packet length average = 1
Accepted packet length average = 1
Total in-flight flits = 4 (4 measured)
latency change    = 0.107986
throughput change = 0.0125
Class 0:
Packet latency average = 18.6436
	minimum = 7
	maximum = 45
Network latency average = 18.6436
	minimum = 7
	maximum = 45
Slowest packet = 11645
Flit latency average = 18.8309
	minimum = 7
	maximum = 45
Slowest flit = 11645
Fragmentation average = 0
	minimum = 0
	maximum = 0
Injected packet rate average = 0.019125
	minimum = 0.015 (at node 2)
	maximum = 0.0255 (at node 10)
Accepted packet rate average = 0.0192187
	minimum = 0.016 (at node 1)
	maximum = 0.0255 (at node 10)
Injected flit rate average = 0.019125
	minimum = 0.015 (at node 2)
	maximum = 0.0255 (at node 10)
Accepted flit rate average= 0.0192187
	minimum = 0.016 (at node 1)
	maximum = 0.0255 (at node 10)
Injected packet length average = 1
Accepted packet length average = 1
Total in-flight flits = 6 (6 measured)
latency change    = 0.0353817
throughput change = 0.0406504
Class 0:
Packet latency average = 18.7095
	minimum = 7
	maximum = 45
Network latency average = 18.7095
	minimum = 7
	maximum = 45
Slowest packet = 11645
Flit latency average = 18.8312
	minimum = 7
	maximum = 45
Slowest flit = 11645
Fragmentation average = 0
	minimum = 0
	maximum = 0
Injected packet rate average = 0.0195417
	minimum = 0.0143333 (at node 2)
	maximum = 0.0236667 (at node 11)
Accepted packet rate average = 0.019625
	minimum = 0.0153333 (at node 3)
	maximum = 0.0236667 (at node 14)
Injected flit rate average = 0.0195417
	minimum = 0.0143333 (at node 2)
	maximum = 0.0236667 (at node 11)
Accepted flit rate average= 0.019625
	minimum = 0.0153333 (at node 3)
	maximum = 0.0236667 (at node 14)
Injected packet length average = 1
Accepted packet length average = 1
Total in-flight flits = 5 (5 measured)
latency change    = 0.00352626
throughput change = 0.0207006
Class 0:
Packet latency average = 18.8895
	minimum = 7
	maximum = 45
Network latency average = 18.8895
	minimum = 7
	maximum = 45
Slowest packet = 11645
Flit latency average = 18.9806
	minimum = 7
	maximum = 45
Slowest flit = 11645
Fragmentation average = 0
	minimum = 0
	maximum = 0
Injected packet rate average = 0.0193125
	minimum = 0.01575 (at node 2)
	maximum = 0.02375 (at node 0)
Accepted packet rate average = 0.019375
	minimum = 0.01625 (at node 3)
	maximum = 0.02375 (at node 0)
Injected flit rate average = 0.0193125
	minimum = 0.01575 (at node 2)
	maximum = 0.02375 (at node 0)
Accepted flit rate average= 0.019375
	minimum = 0.01625 (at node 3)
	maximum = 0.02375 (at node 0)
Injected packet length average = 1
Accepted packet length average = 1
Total in-flight flits = 5 (5 measured)
latency change    = 0.00952812
throughput change = 0.0129032
Draining all recorded packets ...
Draining remaining packets ...
Time taken is 7019 cycles
Class 0:
Packet latency average = 19.9614
	minimum = 7
	maximum = 38
Network latency average = 19.9614
	minimum = 7
	maximum = 38
Slowest packet = 13113
Flit latency average = 19.9614
	minimum = 7
	maximum = 38
Slowest flit = 13113
Fragmentation average = 0
	minimum = 0
	maximum = 0
Injected packet rate average = 0.019875
	minimum = 0.012 (at node 7)
	maximum = 0.027 (at node 2)
Accepted packet rate average = 0.0194375
	minimum = 0.012 (at node 3)
	maximum = 0.026 (at node 8)
Injected flit rate average = 0.019875
	minimum = 0.012 (at node 7)
	maximum = 0.027 (at node 2)
Accepted flit rate average= 0.0194375
	minimum = 0.012 (at node 3)
	maximum = 0.026 (at node 8)
Injected packet length average = 1
Accepted packet length average = 1
Total in-flight flits = 7 (0 measured)
latency change    = 1
throughput change = 1
Class 0:
Packet latency average = 19.6845
	minimum = 7
	maximum = 44
Network latency average = 19.6845
	minimum = 7
	maximum = 44
Slowest packet = 13217
Flit latency average = 19.6845
	minimum = 7
	maximum = 44
Slowest flit = 13217
Fragmentation average = 0
	minimum = 0
	maximum = 0
Injected packet rate average = 0.0201875
	minimum = 0.0135 (at node 7)
	maximum = 0.027 (at node 4)
Accepted packet rate average = 0.0199063
	minimum = 0.013 (at node 13)
	maximum = 0.027 (at node 1)
Injected flit rate average = 0.0201875
	minimum = 0.0135 (at node 7)
	maximum = 0.027 (at node 4)
Accepted flit rate average= 0.0199063
	minimum = 0.013 (at node 13)
	maximum = 0.027 (at node 1)
Injected packet length average = 1
Accepted packet length average = 1
Total in-flight flits = 9 (0 measured)
latency change    = 0.0140698
throughput change = 0.0235479
Class 0:
Packet latency average = 19.9839
	minimum = 7
	maximum = 43
Network latency average = 19.9839
	minimum = 7
	maximum = 43
Slowest packet = 13630
Flit latency average = 19.9839
	minimum = 7
	maximum = 43
Slowest flit = 13630
Fragmentation average = 0
	minimum = 0
	maximum = 0
Injected packet rate average = 0.0191875
	minimum = 0.012 (at node 0)
	maximum = 0.027 (at node 2)
Accepted packet rate average = 0.0194375
	minimum = 0.013 (at node 0)
	maximum = 0.026 (at node 8)
Injected flit rate average = 0.0191875
	minimum = 0.012 (at node 0)
	maximum = 0.027 (at node 2)
Accepted flit rate average= 0.0194375
	minimum = 0.013 (at node 0)
	maximum = 0.026 (at node 8)
Injected packet length average = 1
Accepted packet length average = 1
Total in-flight flits = 5 (0 measured)
latency change    = 0.0149853
throughput change = 0.0241158
Warmed up ...Time used is 3000 cycles
Class 0:
Packet latency average = 19.7294
	minimum = 7
	maximum = 44
Network latency average = 19.7294
	minimum = 7
	maximum = 44
Slowest packet = 13807
Flit latency average = 19.7507
	minimum = 7
	maximum = 44
Slowest flit = 13807
Fragmentation average = 0
	minimum = 0
	maximum = 0
Injected packet rate average = 0.02175
	minimum = 0.015 (at node 7)
	maximum = 0.028 (at node 8)
Accepted packet rate average = 0.0215625
	minimum = 0.015 (at node 13)
	maximum = 0.027 (at node 2)
Injected flit rate average = 0.02175
	minimum = 0.015 (at node 7)
	maximum = 0.028 (at node 8)
Accepted flit rate average= 0.0215625
	minimum = 0.015 (at node 13)
	maximum = 0.027 (at node 2)
Injected packet length average = 1
Accepted packet length average = 1
Total in-flight flits = 8 (8 measured)
latency change    = 0.0129001
throughput change = 0.0985507
Class 0:
Packet latency average = 19.5264
	minimum = 7
	maximum = 44
Network latency average = 19.5264
	minimum = 7
	maximum = 44
Slowest packet = 13807
Flit latency average = 19.5389
	minimum = 7
	maximum = 44
Slowest flit = 13807
Fragmentation average = 0
	minimum = 0
	maximum = 0
Injected packet rate average = 0.0209375
	minimum = 0.017 (at node 13)
	maximum = 0.0265 (at node 3)
Accepted packet rate average = 0.020875
	minimum = 0.0165 (at node 7)
	maximum = 0.0255 (at node 12)
Injected flit rate average = 0.0209375
	minimum = 0.017 (at node 13)
	maximum = 0.0265 (at node 3)
Accepted flit rate average= 0.020875
	minimum = 0.0165 (at node 7)
	maximum = 0.0255 (at node 12)
Injected packet length average = 1
Accepted packet length average = 1
Total in-flight flits = 7 (7 measured)
latency change    = 0.010397
throughput change = 0.0329341
Class 0:
Packet latency average = 19.8535
	minimum = 7
	maximum = 44
Network latency average = 19.8535
	minimum = 7
	maximum = 44
Slowest packet = 13807
Flit latency average = 19.8603
	minimum = 7
	maximum = 44
Slowest flit = 13807
Fragmentation average = 0
	minimum = 0
	maximum = 0
Injected packet rate average = 0.020625
	minimum = 0.0173333 (at node 5)
	maximum = 0.026 (at node 3)
Accepted packet rate average = 0.0205833
	minimum = 0.0173333 (at node 5)
	maximum = 0.026 (at node 12)
Injected flit rate average = 0.020625
	minimum = 0.0173333 (at node 5)
	maximum = 0.026 (at node 3)
Accepted flit rate average= 0.0205833
	minimum = 0.0173333 (at node 5)
	maximum = 0.026 (at node 12)
Injected packet length average = 1
Accepted packet length average = 1
Total in-flight flits = 7 (7 measured)
latency change    = 0.0164764
throughput change = 0.01417
Class 0:
Packet latency average = 19.9243
	minimum = 7
	maximum = 45
Network latency average = 19.9243
	minimum = 7
	maximum = 45
Slowest packet = 14914
Flit latency average = 19.9293
	minimum = 7
	maximum = 45
Slowest flit = 14914
Fragmentation average = 0
	minimum = 0
	maximum = 0
Injected packet rate average = 0.0201563
	minimum = 0.01725 (at node 5)
	maximum = 0.02525 (at node 3)
Accepted packet rate average = 0.0201094
	minimum = 0.01725 (at node 5)
	maximum = 0.02475 (at node 12)
Injected flit rate average = 0.0201563
	minimum = 0.01725 (at node 5)
	maximum = 0.02525 (at node 3)
Accepted flit rate average= 0.0201094
	minimum = 0.01725 (at node 5)
	maximum = 0.02475 (at node 12)
Injected packet length average = 1
Accepted packet length average = 1
Total in-flight flits = 8 (8 measured)
latency change    = 0.00355481
throughput change = 0.023569
Draining all recorded packets ...
Draining remaining packets ...
Time taken is 7049 cycles
Class 0:
Packet latency average = 20.1479
	minimum = 7
	maximum = 44
Network latency average = 20.1479
	minimum = 7
	maximum = 44
Slowest packet = 15299
Flit latency average = 20.1479
	minimum = 7
	maximum = 44
Slowest flit = 15299
Fragmentation average = 0
	minimum = 0
	maximum = 0
Injected packet rate average = 0.0196875
	minimum = 0.012 (at node 6)
	maximum = 0.03 (at node 3)
Accepted packet rate average = 0.0194375
	minimum = 0.011 (at node 9)
	maximum = 0.029 (at node 12)
Injected flit rate average = 0.0196875
	minimum = 0.012 (at node 6)
	maximum = 0.03 (at node 3)
Accepted flit rate average= 0.0194375
	minimum = 0.011 (at node 9)
	maximum = 0.029 (at node 12)
Injected packet length average = 1
Accepted packet length average = 1
Total in-flight flits = 4 (0 measured)
latency change    = 1
throughput change = 1
Class 0:
Packet latency average = 19.6477
	minimum = 7
	maximum = 44
Network latency average = 19.6477
	minimum = 7
	maximum = 44
Slowest packet = 15299
Flit latency average = 19.6477
	minimum = 7
	maximum = 44
Slowest flit = 15299
Fragmentation average = 0
	minimum = 0
	maximum = 0
Injected packet rate average = 0.01875
	minimum = 0.0165 (at node 1)
	maximum = 0.0235 (at node 0)
Accepted packet rate average = 0.018625
	minimum = 0.016 (at node 4)
	maximum = 0.0235 (at node 0)
Injected flit rate average = 0.01875
	minimum = 0.0165 (at node 1)
	maximum = 0.0235 (at node 0)
Accepted flit rate average= 0.018625
	minimum = 0.016 (at node 4)
	maximum = 0.0235 (at node 0)
Injected packet length average = 1
Accepted packet length average = 1
Total in-flight flits = 4 (0 measured)
latency change    = 0.0254615
throughput change = 0.0436242
Class 0:
Packet latency average = 19.8319
	minimum = 7
	maximum = 43
Network latency average = 19.8319
	minimum = 7
	maximum = 43
Slowest packet = 15887
Flit latency average = 19.8319
	minimum = 7
	maximum = 43
Slowest flit = 15887
Fragmentation average = 0
	minimum = 0
	maximum = 0
Injected packet rate average = 0.02125
	minimum = 0.014 (at node 14)
	maximum = 0.033 (at node 4)
Accepted packet rate average = 0.0211875
	minimum = 0.014 (at node 9)
	maximum = 0.033 (at node 1)
Injected flit rate average = 0.02125
	minimum = 0.014 (at node 14)
	maximum = 0.033 (at node 4)
Accepted flit rate average= 0.0211875
	minimum = 0.014 (at node 9)
	maximum = 0.033 (at node 1)
Injected packet length average = 1
Accepted packet length average = 1
Total in-flight flits = 5 (0 measured)
latency change    = 0.00928846
throughput change = 0.120944
Warmed up ...Time used is 3000 cycles
Class 0:
Packet latency average = 19.5122
	minimum = 7
	maximum = 37
Network latency average = 19.5122
	minimum = 7
	maximum = 37
Slowest packet = 16026
Flit latency average = 19.5345
	minimum = 7
	maximum = 37
Slowest flit = 16026
Fragmentation average = 0
	minimum = 0
	maximum = 0
Injected packet rate average = 0.0209375
	minimum = 0.015 (at node 5)
	maximum = 0.028 (at node 11)
Accepted packet rate average = 0.0208125
	minimum = 0.014 (at node 5)
	maximum = 0.028 (at node 14)
Injected flit rate average = 0.0209375
	minimum = 0.015 (at node 5)
	maximum = 0.028 (at node 11)
Accepted flit rate average= 0.0208125
	minimum = 0.014 (at node 5)
	maximum = 0.028 (at node 14)
Injected packet length average = 1
Accepted packet length average = 1
Total in-flight flits = 7 (7 measured)
latency change    = 0.0163827
throughput change = 0.018018
Class 0:
Packet latency average = 19.3099
	minimum = 7
	maximum = 37
Network latency average = 19.3099
	minimum = 7
	maximum = 37
Slowest packet = 16026
Flit latency average = 19.3224
	minimum = 7
	maximum = 37
Slowest flit = 16026
Fragmentation average = 0
	minimum = 0
	maximum = 0
Injected packet rate average = 0.021125
	minimum = 0.015 (at node 12)
	maximum = 0.0255 (at node 6)
Accepted packet rate average = 0.0210313
	minimum = 0.0135 (at node 3)
	maximum = 0.0255 (at node 9)
Injected flit rate average = 0.021125
	minimum = 0.015 (at node 12)
	maximum = 0.0255 (at node 6)
Accepted flit rate average= 0.0210313
	minimum = 0.0135 (at node 3)
	maximum = 0.0255 (at node 9)
Injected packet length average = 1
Accepted packet length average = 1
Total in-flight flits = 8 (8 measured)
latency change    = 0.0104773
throughput change = 0.0104012
Class 0:
Packet latency average = 19.2805
	minimum = 7
	maximum = 45
Network latency average = 19.2805
	minimum = 7
	maximum = 45
Slowest packet = 16684
Flit latency average = 19.2892
	minimum = 7
	maximum = 45
Slowest flit = 16684
Fragmentation average = 0
	minimum = 0
	maximum = 0
Injected packet rate average = 0.0206458
	minimum = 0.0166667 (at node 11)
	maximum = 0.025 (at node 6)
Accepted packet rate average = 0.0206042
	minimum = 0.0166667 (at node 14)
	maximum = 0.0253333 (at node 9)
Injected flit rate average = 0.0206458
	minimum = 0.0166667 (at node 11)
	maximum = 0.025 (at node 6)
Accepted flit rate average= 0.0206042
	minimum = 0.0166667 (at node 14)
	maximum = 0.0253333 (at node 9)
Injected packet length average = 1
Accepted packet length average = 1
Total in-flight flits = 7 (7 measured)
latency change    = 0.00152447
throughput change = 0.020728
Draining all recorded packets ...
Draining remaining packets ...
Time taken is 6045 cycles
Class 0:
Packet latency average = 20.2829
	minimum = 7
	maximum = 37
Network latency average = 20.2829
	minimum = 7
	maximum = 37
Slowest packet = 17016
Flit latency average = 20.2829
	minimum = 7
	maximum = 37
Slowest flit = 17016
Fragmentation average = 0
	minimum = 0
	maximum = 0
Injected packet rate average = 0.0195
	minimum = 0.011 (at node 10)
	maximum = 0.03 (at node 12)
Accepted packet rate average = 0.019
	minimum = 0.01 (at node 10)
	maximum = 0.03 (at node 3)
Injected flit rate average = 0.0195
	minimum = 0.011 (at node 10)
	maximum = 0.03 (at node 12)
Accepted flit rate average= 0.019
	minimum = 0.01 (at node 10)
	maximum = 0.03 (at node 3)
Injected packet length average = 1
Accepted packet length average = 1
Total in-flight flits = 8 (0 measured)
latency change    = 1
throughput change = 1
Class 0:
Packet latency average = 20.1034
	minimum = 7
	maximum = 42
Network latency average = 20.1034
	minimum = 7
	maximum = 42
Slowest packet = 17332
Flit latency average = 20.1034
	minimum = 7
	maximum = 42
Slowest flit = 17332
Fragmentation average = 0
	minimum = 0
	maximum = 0
Injected packet rate average = 0.0194687
	minimum = 0.013 (at node 10)
	maximum = 0.024 (at node 12)
Accepted packet rate average = 0.0193437
	minimum = 0.013 (at node 10)
	maximum = 0.024 (at node 3)
Injected flit rate average = 0.0194687
	minimum = 0.013 (at node 10)
	maximum = 0.024 (at node 12)
Accepted flit rate average= 0.0193437
	minimum = 0.013 (at node 10)
	maximum = 0.024 (at node 3)
Injected packet length average = 1
Accepted packet length average = 1
Total in-flight flits = 4 (0 measured)
latency change    = 0.00892895
throughput change = 0.0177706
Class 0:
Packet latency average = 20.6053
	minimum = 7
	maximum = 37
Network latency average = 20.6053
	minimum = 7
	maximum = 37
Slowest packet = 17634
Flit latency average = 20.6053
	minimum = 7
	maximum = 37
Slowest flit = 17634
Fragmentation average = 0
	minimum = 0
	maximum = 0
Injected packet rate average = 0.02125
	minimum = 0.013 (at node 6)
	maximum = 0.031 (at node 13)
Accepted packet rate average = 0.0210625
	minimum = 0.013 (at node 9)
	maximum = 0.031 (at node 7)
Injected flit rate average = 0.02125
	minimum = 0.013 (at node 6)
	maximum = 0.031 (at node 13)
Accepted flit rate average= 0.0210625
	minimum = 0.013 (at node 9)
	maximum = 0.031 (at node 7)
Injected packet length average = 1
Accepted packet length average = 1
Total in-flight flits = 7 (0 measured)
latency change    = 0.0243601
throughput change = 0.0816024
Warmed up ...Time used is 3000 cycles
Class 0:
Packet latency average = 19.2362
	minimum = 7
	maximum = 37
Network latency average = 19.2362
	minimum = 7
	maximum = 37
Slowest packet = 17992
Flit latency average = 19.4234
	minimum = 7
	maximum = 37
Slowest flit = 17964
Fragmentation average = 0
	minimum = 0
	maximum = 0
Injected packet rate average = 0.0206875
	minimum = 0.015 (at node 14)
	maximum = 0.026 (at node 6)
Accepted packet rate average = 0.0208125
	minimum = 0.015 (at node 11)
	maximum = 0.026 (at node 7)
Injected flit rate average = 0.0206875
	minimum = 0.015 (at node 14)
	maximum = 0.026 (at node 6)
Accepted flit rate average= 0.0208125
	minimum = 0.015 (at node 11)
	maximum = 0.026 (at node 7)
Injected packet length average = 1
Accepted packet length average = 1
Total in-flight flits = 5 (5 measured)
latency change    = 0.0711754
throughput change = 0.012012
Class 0:
Packet latency average = 19.6829
	minimum = 7
	maximum = 46
Network latency average = 19.6829
	minimum = 7
	maximum = 46
Slowest packet = 18557
Flit latency average = 19.7748
	minimum = 7
	maximum = 46
Slowest flit = 18557
Fragmentation average = 0
	minimum = 0
	maximum = 0
Injected packet rate average = 0.0200313
	minimum = 0.016 (at node 14)
	maximum = 0.024 (at node 3)
Accepted packet rate average = 0.020125
	minimum = 0.016 (at node 11)
	maximum = 0.0245 (at node 12)
Injected flit rate average = 0.0200313
	minimum = 0.016 (at node 14)
	maximum = 0.024 (at node 3)
Accepted flit rate average= 0.020125
	minimum = 0.016 (at node 11)
	maximum = 0.0245 (at node 12)
Injected packet length average = 1
Accepted packet length average = 1
Total in-flight flits = 4 (4 measured)
latency change    = 0.0226944
throughput change = 0.0341615
Class 0:
Packet latency average = 19.7811
	minimum = 7
	maximum = 46
Network latency average = 19.7811
	minimum = 7
	maximum = 46
Slowest packet = 18557
Flit latency average = 19.8414
	minimum = 7
	maximum = 46
Slowest flit = 18557
Fragmentation average = 0
	minimum = 0
	maximum = 0
Injected packet rate average = 0.0202292
	minimum = 0.0163333 (at node 14)
	maximum = 0.0236667 (at node 7)
Accepted packet rate average = 0.0202292
	minimum = 0.016 (at node 11)
	maximum = 0.0233333 (at node 9)
Injected flit rate average = 0.0202292
	minimum = 0.0163333 (at node 14)
	maximum = 0.0236667 (at node 7)
Accepted flit rate average= 0.0202292
	minimum = 0.016 (at node 11)
	maximum = 0.0233333 (at node 9)
Injected packet length average = 1
Accepted packet length average = 1
Total in-flight flits = 7 (7 measured)
latency change    = 0.00496594
throughput change = 0.00514933
Class 0:
Packet latency average = 19.738
	minimum = 7
	maximum = 46
Network latency average = 19.738
	minimum = 7
	maximum = 46
Slowest packet = 18557
Flit latency average = 19.7849
	minimum = 7
	maximum = 46
Slowest flit = 18557
Fragmentation average = 0
	minimum = 0
	maximum = 0
Injected packet rate average = 0.0196094
	minimum = 0.0155 (at node 14)
	maximum = 0.02225 (at node 3)
Accepted packet rate average = 0.0196094
	minimum = 0.0155 (at node 11)
	maximum = 0.0225 (at node 12)
Injected flit rate average = 0.0196094
	minimum = 0.0155 (at node 14)
	maximum = 0.02225 (at node 3)
Accepted flit rate average= 0.0196094
	minimum = 0.0155 (at node 11)
	maximum = 0.0225 (at node 12)
Injected packet length average = 1
Accepted packet length average = 1
Total in-flight flits = 7 (7 measured)
latency change    = 0.00218561
throughput change = 0.0316069
Draining all recorded packets ...
Draining remaining packets ...
Time taken is 7068 cycles
Class 0:
Packet latency average = 19.6414
	minimum = 7
	maximum = 46
Network latency average = 19.6414
	minimum = 7
	maximum = 46
Slowest packet = 19369
Flit latency average = 19.6414
	minimum = 7
	maximum = 46
Slowest flit = 19369
Fragmentation average = 0
	minimum = 0
	maximum = 0
Injected packet rate average = 0.021625
	minimum = 0.015 (at node 6)
	maximum = 0.029 (at node 4)
Accepted packet rate average = 0.0214375
	minimum = 0.015 (at node 9)
	maximum = 0.029 (at node 1)
Injected flit rate average = 0.021625
	minimum = 0.015 (at node 6)
	maximum = 0.029 (at node 4)
Accepted flit rate average= 0.0214375
	minimum = 0.015 (at node 9)
	maximum = 0.029 (at node 1)
Injected packet length average = 1
Accepted packet length average = 1
Total in-flight flits = 3 (0 measured)
latency change    = 1
throughput change = 1
Class 0:
Packet latency average = 19.3641
	minimum = 7
	maximum = 46
Network latency average = 19.3641
	minimum = 7
	maximum = 46
Slowest packet = 19369
Flit latency average = 19.3641
	minimum = 7
	maximum = 46
Slowest flit = 19369
Fragmentation average = 0
	minimum = 0
	maximum = 0
Injected packet rate average = 0.0200938
	minimum = 0.015 (at node 13)
	maximum = 0.0255 (at node 4)
Accepted packet rate average = 0.02
	minimum = 0.0145 (at node 7)
	maximum = 0.0255 (at node 1)
Injected flit rate average = 0.0200938
	minimum = 0.015 (at node 13)
	maximum = 0.0255 (at node 4)
Accepted flit rate average= 0.02
	minimum = 0.0145 (at node 7)
	maximum = 0.0255 (at node 1)
Injected packet length average = 1
Accepted packet length average = 1
Total in-flight flits = 3 (0 measured)
latency change    = 0.0143222
throughput change = 0.071875
Class 0:
Packet latency average = 19.5938
	minimum = 7
	maximum = 44
Network latency average = 19.5938
	minimum = 7
	maximum = 44
Slowest packet = 20140
Flit latency average = 19.5938
	minimum = 7
	maximum = 44
Slowest flit = 20140
Fragmentation average = 0
	minimum = 0
	maximum = 0
Injected packet rate average = 0.0209375
	minimum = 0.015 (at node 9)
	maximum = 0.028 (at node 2)
Accepted packet rate average = 0.0203125
	minimum = 0.014 (at node 6)
	maximum = 0.028 (at node 8)
Injected flit rate average = 0.0209375
	minimum = 0.015 (at node 9)
	maximum = 0.028 (at node 2)
Accepted flit rate average= 0.0203125
	minimum = 0.014 (at node 6)
	maximum = 0.028 (at node 8)
Injected packet length average = 1
Accepted packet length average = 1
Total in-flight flits = 13 (0 measured)
latency change    = 0.0117273
throughput change = 0.0153846
Warmed up ...Time used is 3000 cycles
Class 0:
Packet latency average = 19.2285
	minimum = 7
	maximum = 45
Network latency average = 19.2285
	minimum = 7
	maximum = 45
Slowest packet = 20465
Flit latency average = 19.327
	minimum = 7
	maximum = 45
Slowest flit = 20465
Fragmentation average = 0
	minimum = 0
	maximum = 0
Injected packet rate average = 0.01925
	minimum = 0.012 (at node 0)
	maximum = 0.024 (at node 4)
Accepted packet rate average = 0.0196875
	minimum = 0.014 (at node 0)
	maximum = 0.024 (at node 1)
Injected flit rate average = 0.01925
	minimum = 0.012 (at node 0)
	maximum = 0.024 (at node 4)
Accepted flit rate average= 0.0196875
	minimum = 0.014 (at node 0)
	maximum = 0.024 (at node 1)
Injected packet length average = 1
Accepted packet length average = 1
Total in-flight flits = 6 (6 measured)
latency change    = 0.0190015
throughput change = 0.031746
Class 0:
Packet latency average = 19.5926
	minimum = 7
	maximum = 45
Network latency average = 19.5926
	minimum = 7
	maximum = 45
Slowest packet = 20465
Flit latency average = 19.6341
	minimum = 7
	maximum = 45
Slowest flit = 20465
Fragmentation average = 0
	minimum = 0
	maximum = 0
Injected packet rate average = 0.0196875
	minimum = 0.0155 (at node 0)
	maximum = 0.027 (at node 6)
Accepted packet rate average = 0.0198125
	minimum = 0.0165 (at node 0)
	maximum = 0.0265 (at node 9)
Injected flit rate average = 0.0196875
	minimum = 0.0155 (at node 0)
	maximum = 0.027 (at node 6)
Accepted flit rate average= 0.0198125
	minimum = 0.0165 (at node 0)
	maximum = 0.0265 (at node 9)
Injected packet length average = 1
Accepted packet length average = 1
Total in-flight flits = 9 (9 measured)
latency change    = 0.0185844
throughput change = 0.00630915
Class 0:
Packet latency average = 19.8939
	minimum = 7
	maximum = 45
Network latency average = 19.8939
	minimum = 7
	maximum = 45
Slowest packet = 20465
Flit latency average = 19.9168
	minimum = 7
	maximum = 45
Slowest flit = 20465
Fragmentation average = 0
	minimum = 0
	maximum = 0
Injected packet rate average = 0.0201042
	minimum = 0.0166667 (at node 0)
	maximum = 0.0266667 (at node 12)
Accepted packet rate average = 0.0202917
	minimum = 0.017 (at node 0)
	maximum = 0.0273333 (at node 3)
Injected flit rate average = 0.0201042
	minimum = 0.0166667 (at node 0)
	maximum = 0.0266667 (at node 12)
Accepted flit rate average= 0.0202917
	minimum = 0.017 (at node 0)
	maximum = 0.0273333 (at node 3)
Injected packet length average = 1
Accepted packet length average = 1
Total in-flight flits = 4 (4 measured)
latency change    = 0.0151438
throughput change = 0.023614
Draining all recorded packets ...
Draining remaining packets ...
Time taken is 6060 cycles
Class 0:
Packet latency average = 19.3188
	minimum = 7
	maximum = 37
Network latency average = 19.3188
	minimum = 7
	maximum = 37
Slowest packet = 21210
Flit latency average = 19.3188
	minimum = 7
	maximum = 37
Slowest flit = 21210
Fragmentation average = 0
	minimum = 0
	maximum = 0
Injected packet rate average = 0.01925
	minimum = 0.011 (at node 10)
	maximum = 0.024 (at node 6)
Accepted packet rate average = 0.018625
	minimum = 0.011 (at node 10)
	maximum = 0.024 (at node 9)
Injected flit rate average = 0.01925
	minimum = 0.011 (at node 10)
	maximum = 0.024 (at node 6)
Accepted flit rate average= 0.018625
	minimum = 0.011 (at node 10)
	maximum = 0.024 (at node 9)
Injected packet length average = 1
Accepted packet length average = 1
Total in-flight flits = 10 (0 measured)
latency change    = 1
throughput change = 1
Class 0:
Packet latency average = 19.7721
	minimum = 7
	maximum = 38
Network latency average = 19.7721
	minimum = 7
	maximum = 38
Slowest packet = 21549
Flit latency average = 19.7721
	minimum = 7
	maximum = 38
Slowest flit = 21549
Fragmentation average = 0
	minimum = 0
	maximum = 0
Injected packet rate average = 0.0193437
	minimum = 0.012 (at node 10)
	maximum = 0.0255 (at node 8)
Accepted packet rate average = 0.0190625
	minimum = 0.012 (at node 10)
	maximum = 0.0245 (at node 2)
Injected flit rate average = 0.0193437
	minimum = 0.012 (at node 10)
	maximum = 0.0255 (at node 8)
Accepted flit rate average= 0.0190625
	minimum = 0.012 (at node 10)
	maximum = 0.0245 (at node 2)
Injected packet length average = 1
Accepted packet length average = 1
Total in-flight flits = 9 (0 measured)
latency change    = 0.0229282
throughput change = 0.0229508
Class 0:
Packet latency average = 19.3193
	minimum = 7
	maximum = 37
Network latency average = 19.3193
	minimum = 7
	maximum = 37
Slowest packet = 21805
Flit latency average = 19.3193
	minimum = 7
	maximum = 37
Slowest flit = 21805
Fragmentation average = 0
	minimum = 0
	maximum = 0
Injected packet rate average = 0.0205625
	minimum = 0.011 (at node 8)
	maximum = 0.027 (at node 4)
Accepted packet rate average = 0.02075
	minimum = 0.012 (at node 2)
	maximum = 0.028 (at node 1)
Injected flit rate average = 0.0205625
	minimum = 0.011 (at node 8)
	maximum = 0.027 (at node 4)
Accepted flit rate average= 0.02075
	minimum = 0.012 (at node 2)
	maximum = 0.028 (at node 1)
Injected packet length average = 1
Accepted packet length average = 1
Total in-flight flits = 6 (0 measured)
latency change    = 0.0234405
throughput change = 0.0813253
Warmed up ...Time used is 3000 cycles
Class 0:
Packet latency average = 20.0148
	minimum = 7
	maximum = 42
Network latency average = 20.0148
	minimum = 7
	maximum = 42
Slowest packet = 22191
Flit latency average = 20.0496
	minimum = 7
	maximum = 42
Slowest flit = 22191
Fragmentation average = 0
	minimum = 0
	maximum = 0
Injected packet rate average = 0.0215
	minimum = 0.015 (at node 1)
	maximum = 0.031 (at node 4)
Accepted packet rate average = 0.0214375
	minimum = 0.016 (at node 4)
	maximum = 0.03 (at node 1)
Injected flit rate average = 0.0215
	minimum = 0.015 (at node 1)
	maximum = 0.031 (at node 4)
Accepted flit rate average= 0.0214375
	minimum = 0.016 (at node 4)
	maximum = 0.03 (at node 1)
Injected packet length average = 1
Accepted packet length average = 1
Total in-flight flits = 7 (7 measured)
latency change    = 0.0347522
throughput change = 0.03207
Class 0:
Packet latency average = 19.7807
	minimum = 7
	maximum = 45
Network latency average = 19.7807
	minimum = 7
	maximum = 45
Slowest packet = 22582
Flit latency average = 19.8012
	minimum = 7
	maximum = 45
Slowest flit = 22582
Fragmentation average = 0
	minimum = 0
	maximum = 0
Injected packet rate average = 0.0202188
	minimum = 0.017 (at node 8)
	maximum = 0.0265 (at node 4)
Accepted packet rate average = 0.0202813
	minimum = 0.017 (at node 15)
	maximum = 0.0265 (at node 1)
Injected flit rate average = 0.0202188
	minimum = 0.017 (at node 8)
	maximum = 0.0265 (at node 4)
Accepted flit rate average= 0.0202813
	minimum = 0.017 (at node 15)
	maximum = 0.0265 (at node 1)
Injected packet length average = 1
Accepted packet length average = 1
Total in-flight flits = 4 (4 measured)
latency change    = 0.0118358
throughput change = 0.0570108
Class 0:
Packet latency average = 19.8546
	minimum = 7
	maximum = 45
Network latency average = 19.8546
	minimum = 7
	maximum = 45
Slowest packet = 22582
Flit latency average = 19.8681
	minimum = 7
	maximum = 45
Slowest flit = 22582
Fragmentation average = 0
	minimum = 0
	maximum = 0
Injected packet rate average = 0.0199167
	minimum = 0.0166667 (at node 1)
	maximum = 0.025 (at node 3)
Accepted packet rate average = 0.0198958
	minimum = 0.017 (at node 4)
	maximum = 0.025 (at node 12)
Injected flit rate average = 0.0199167
	minimum = 0.0166667 (at node 1)
	maximum = 0.025 (at node 3)
Accepted flit rate average= 0.0198958
	minimum = 0.017 (at node 4)
	maximum = 0.025 (at node 12)
Injected packet length average = 1
Accepted packet length average = 1
Total in-flight flits = 7 (7 measured)
latency change    = 0.00372047
throughput change = 0.0193717
Class 0:
Packet latency average = 19.8421
	minimum = 7
	maximum = 46
Network latency average = 19.8421
	minimum = 7
	maximum = 46
Slowest packet = 23326
Flit latency average = 19.8523
	minimum = 7
	maximum = 46
Slowest flit = 23326
Fragmentation average = 0
	minimum = 0
	maximum = 0
Injected packet rate average = 0.0199531
	minimum = 0.017 (at node 1)
	maximum = 0.025 (at node 3)
Accepted packet rate average = 0.0198906
	minimum = 0.017 (at node 4)
	maximum = 0.025 (at node 12)
Injected flit rate average = 0.0199531
	minimum = 0.017 (at node 1)
	maximum = 0.025 (at node 3)
Accepted flit rate average= 0.0198906
	minimum = 0.017 (at node 4)
	maximum = 0.025 (at node 12)
Injected packet length average = 1
Accepted packet length average = 1
Total in-flight flits = 10 (10 measured)
latency change    = 0.000626796
throughput change = 0.000261849
Class 0:
Packet latency average = 19.8379
	minimum = 7
	maximum = 46
Network latency average = 19.8379
	minimum = 7
	maximum = 46
Slowest packet = 23326
Flit latency average = 19.8461
	minimum = 7
	maximum = 46
Slowest flit = 23326
Fragmentation average = 0
	minimum = 0
	maximum = 0
Injected packet rate average = 0.0198125
	minimum = 0.0178 (at node 1)
	maximum = 0.0238 (at node 3)
Accepted packet rate average = 0.0197375
	minimum = 0.0174 (at node 13)
	maximum = 0.0236 (at node 12)
Injected flit rate average = 0.0198125
	minimum = 0.0178 (at node 1)
	maximum = 0.0238 (at node 3)
Accepted flit rate average= 0.0197375
	minimum = 0.0174 (at node 13)
	maximum = 0.0236 (at node 12)
Injected packet length average = 1
Accepted packet length average = 1
Total in-flight flits = 12 (12 measured)
latency change    = 0.000214611
throughput change = 0.00775807
Draining all recorded packets ...
Draining remaining packets ...
Time taken is 8063 cycles
Class 0:
Packet latency average = 20.1307
	minimum = 7
	maximum = 45
Network latency average = 20.1307
	minimum = 7
	maximum = 45
Slowest packet = 23937
Flit latency average = 20.1307
	minimum = 7
	maximum = 45
Slowest flit = 23937
Fragmentation average = 0
	minimum = 0
	maximum = 0
Injected packet rate average = 0.021125
	minimum = 0.016 (at node 1)
	maximum = 0.033 (at node 12)
Accepted packet rate average = 0.0205625
	minimum = 0.015 (at node 11)
	maximum = 0.033 (at node 3)
Injected flit rate average = 0.021125
	minimum = 0.016 (at node 1)
	maximum = 0.033 (at node 12)
Accepted flit rate average= 0.0205625
	minimum = 0.015 (at node 11)
	maximum = 0.033 (at node 3)
Injected packet length average = 1
Accepted packet length average = 1
Total in-flight flits = 9 (0 measured)
latency change    = 1
throughput change = 1
Class 0:
Packet latency average = 19.6442
	minimum = 7
	maximum = 45
Network latency average = 19.6442
	minimum = 7
	maximum = 45
Slowest packet = 23937
Flit latency average = 19.6442
	minimum = 7
	maximum = 45
Slowest flit = 23937
Fragmentation average = 0
	minimum = 0
	maximum = 0
Injected packet rate average = 0.0200625
	minimum = 0.0145 (at node 14)
	maximum = 0.026 (at node 12)
Accepted packet rate average = 0.0199375
	minimum = 0.0145 (at node 11)
	maximum = 0.0255 (at node 3)
Injected flit rate average = 0.0200625
	minimum = 0.0145 (at node 14)
	maximum = 0.026 (at node 12)
Accepted flit rate average= 0.0199375
	minimum = 0.0145 (at node 11)
	maximum = 0.0255 (at node 3)
Injected packet length average = 1
Accepted packet length average = 1
Total in-flight flits = 4 (0 measured)
latency change    = 0.0247655
throughput change = 0.031348
Class 0:
Packet latency average = 19.3323
	minimum = 7
	maximum = 38
Network latency average = 19.3323
	minimum = 7
	maximum = 38
Slowest packet = 24575
Flit latency average = 19.3323
	minimum = 7
	maximum = 38
Slowest flit = 24575
Fragmentation average = 0
	minimum = 0
	maximum = 0
Injected packet rate average = 0.0210625
	minimum = 0.012 (at node 13)
	maximum = 0.027 (at node 10)
Accepted packet rate average = 0.020875
	minimum = 0.012 (at node 7)
	maximum = 0.027 (at node 3)
Injected flit rate average = 0.0210625
	minimum = 0.012 (at node 13)
	maximum = 0.027 (at node 10)
Accepted flit rate average= 0.020875
	minimum = 0.012 (at node 7)
	maximum = 0.027 (at node 3)
Injected packet length average = 1
Accepted packet length average = 1
Total in-flight flits = 7 (0 measured)
latency change    = 0.0161318
throughput change = 0.0449102
Warmed up ...Time used is 3000 cycles
Class 0:
Packet latency average = 19.2888
	minimum = 7
	maximum = 40
Network latency average = 19.2888
	minimum = 7
	maximum = 40
Slowest packet = 24990
Flit latency average = 19.3617
	minimum = 7
	maximum = 40
Slowest flit = 24990
Fragmentation average = 0
	minimum = 0
	maximum = 0
Injected packet rate average = 0.020625
	minimum = 0.015 (at node 7)
	maximum = 0.026 (at node 2)
Accepted packet rate average = 0.0205625
	minimum = 0.016 (at node 13)
	maximum = 0.026 (at node 14)
Injected flit rate average = 0.020625
	minimum = 0.015 (at node 7)
	maximum = 0.026 (at node 2)
Accepted flit rate average= 0.0205625
	minimum = 0.016 (at node 13)
	maximum = 0.026 (at node 14)
Injected packet length average = 1
Accepted packet length average = 1
Total in-flight flits = 8 (8 measured)
latency change    = 0.00225599
throughput change = 0.0151976
Class 0:
Packet latency average = 19.5759
	minimum = 7
	maximum = 40
Network latency average = 19.5759
	minimum = 7
	maximum = 40
Slowest packet = 24990
Flit latency average = 19.6103
	minimum = 7
	maximum = 40
Slowest flit = 24990
Fragmentation average = 0
	minimum = 0
	maximum = 0
Injected packet rate average = 0.02
	minimum = 0.0145 (at node 7)
	maximum = 0.024 (at node 12)
Accepted packet rate average = 0.0199688
	minimum = 0.015 (at node 13)
	maximum = 0.0235 (at node 2)
Injected flit rate average = 0.02
	minimum = 0.0145 (at node 7)
	maximum = 0.024 (at node 12)
Accepted flit rate average= 0.0199688
	minimum = 0.015 (at node 13)
	maximum = 0.0235 (at node 2)
Injected packet length average = 1
Accepted packet length average = 1
Total in-flight flits = 8 (8 measured)
latency change    = 0.0146675
throughput change = 0.029734
Class 0:
Packet latency average = 19.817
	minimum = 7
	maximum = 41
Network latency average = 19.817
	minimum = 7
	maximum = 41
Slowest packet = 25448
Flit latency average = 19.8387
	minimum = 7
	maximum = 41
Slowest flit = 25448
Fragmentation average = 0
	minimum = 0
	maximum = 0
Injected packet rate average = 0.0194167
	minimum = 0.017 (at node 3)
	maximum = 0.0233333 (at node 12)
Accepted packet rate average = 0.0195
	minimum = 0.017 (at node 5)
	maximum = 0.0236667 (at node 3)
Injected flit rate average = 0.0194167
	minimum = 0.017 (at node 3)
	maximum = 0.0233333 (at node 12)
Accepted flit rate average= 0.0195
	minimum = 0.017 (at node 5)
	maximum = 0.0236667 (at node 3)
Injected packet length average = 1
Accepted packet length average = 1
Total in-flight flits = 3 (3 measured)
latency change    = 0.0121642
throughput change = 0.0240385
Draining all recorded packets ...
Draining remaining packets ...
Time taken is 6033 cycles
Class 0:
Packet latency average = 20.3492
	minimum = 7
	maximum = 37
Network latency average = 20.3492
	minimum = 7
	maximum = 37
Slowest packet = 25660
Flit latency average = 20.3492
	minimum = 7
	maximum = 37
Slowest flit = 25660
Fragmentation average = 0
	minimum = 0
	maximum = 0
Injected packet rate average = 0.02
	minimum = 0.013 (at node 5)
	maximum = 0.027 (at node 7)
Accepted packet rate average = 0.0196875
	minimum = 0.013 (at node 5)
	maximum = 0.026 (at node 2)
Injected flit rate average = 0.02
	minimum = 0.013 (at node 5)
	maximum = 0.027 (at node 7)
Accepted flit rate average= 0.0196875
	minimum = 0.013 (at node 5)
	maximum = 0.026 (at node 2)
Injected packet length average = 1
Accepted packet length average = 1
Total in-flight flits = 5 (0 measured)
latency change    = 1
throughput change = 1
Class 0:
Packet latency average = 20
	minimum = 7
	maximum = 45
Network latency average = 20
	minimum = 7
	maximum = 45
Slowest packet = 26022
Flit latency average = 20
	minimum = 7
	maximum = 45
Slowest flit = 26022
Fragmentation average = 0
	minimum = 0
	maximum = 0
Injected packet rate average = 0.0196875
	minimum = 0.012 (at node 10)
	maximum = 0.0245 (at node 8)
Accepted packet rate average = 0.0193437
	minimum = 0.012 (at node 10)
	maximum = 0.0235 (at node 2)
Injected flit rate average = 0.0196875
	minimum = 0.012 (at node 10)
	maximum = 0.0245 (at node 8)
Accepted flit rate average= 0.0193437
	minimum = 0.012 (at node 10)
	maximum = 0.0235 (at node 2)
Injected packet length average = 1
Accepted packet length average = 1
Total in-flight flits = 11 (0 measured)
latency change    = 0.0174603
throughput change = 0.0177706
Class 0:
Packet latency average = 19.9226
	minimum = 7
	maximum = 45
Network latency average = 19.9226
	minimum = 7
	maximum = 45
Slowest packet = 26476
Flit latency average = 19.9226
	minimum = 7
	maximum = 45
Slowest flit = 26476
Fragmentation average = 0
	minimum = 0
	maximum = 0
Injected packet rate average = 0.020125
	minimum = 0.009 (at node 5)
	maximum = 0.029 (at node 6)
Accepted packet rate average = 0.0201875
	minimum = 0.009 (at node 5)
	maximum = 0.03 (at node 9)
Injected flit rate average = 0.020125
	minimum = 0.009 (at node 5)
	maximum = 0.029 (at node 6)
Accepted flit rate average= 0.0201875
	minimum = 0.009 (at node 5)
	maximum = 0.03 (at node 9)
Injected packet length average = 1
Accepted packet length average = 1
Total in-flight flits = 10 (0 measured)
latency change    = 0.003885
throughput change = 0.0417957
Warmed up ...Time used is 3000 cycles
Class 0:
Packet latency average = 18.798
	minimum = 7
	maximum = 37
Network latency average = 18.798
	minimum = 7
	maximum = 37
Slowest packet = 26615
Flit latency average = 18.8675
	minimum = 7
	maximum = 37
Slowest flit = 26603
Fragmentation average = 0
	minimum = 0
	maximum = 0
Injected packet rate average = 0.0194375
	minimum = 0.011 (at node 6)
	maximum = 0.029 (at node 4)
Accepted packet rate average = 0.0198125
	minimum = 0.011 (at node 9)
	maximum = 0.029 (at node 1)
Injected flit rate average = 0.0194375
	minimum = 0.011 (at node 6)
	maximum = 0.029 (at node 4)
Accepted flit rate average= 0.0198125
	minimum = 0.011 (at node 9)
	maximum = 0.029 (at node 1)
Injected packet length average = 1
Accepted packet length average = 1
Total in-flight flits = 4 (4 measured)
latency change    = 0.059823
throughput change = 0.0189274
Class 0:
Packet latency average = 18.8529
	minimum = 7
	maximum = 47
Network latency average = 18.8529
	minimum = 7
	maximum = 47
Slowest packet = 27048
Flit latency average = 18.8857
	minimum = 7
	maximum = 47
Slowest flit = 27048
Fragmentation average = 0
	minimum = 0
	maximum = 0
Injected packet rate average = 0.0204063
	minimum = 0.0175 (at node 2)
	maximum = 0.0285 (at node 1)
Accepted packet rate average = 0.0205
	minimum = 0.0165 (at node 7)
	maximum = 0.029 (at node 4)
Injected flit rate average = 0.0204063
	minimum = 0.0175 (at node 2)
	maximum = 0.0285 (at node 1)
Accepted flit rate average= 0.0205
	minimum = 0.0165 (at node 7)
	maximum = 0.029 (at node 4)
Injected packet length average = 1
Accepted packet length average = 1
Total in-flight flits = 7 (7 measured)
latency change    = 0.00291178
throughput change = 0.0335366
Class 0:
Packet latency average = 19.1614
	minimum = 7
	maximum = 47
Network latency average = 19.1614
	minimum = 7
	maximum = 47
Slowest packet = 27048
Flit latency average = 19.1806
	minimum = 7
	maximum = 47
Slowest flit = 27048
Fragmentation average = 0
	minimum = 0
	maximum = 0
Injected packet rate average = 0.0198333
	minimum = 0.016 (at node 2)
	maximum = 0.0236667 (at node 1)
Accepted packet rate average = 0.0199583
	minimum = 0.016 (at node 8)
	maximum = 0.0243333 (at node 4)
Injected flit rate average = 0.0198333
	minimum = 0.016 (at node 2)
	maximum = 0.0236667 (at node 1)
Accepted flit rate average= 0.0199583
	minimum = 0.016 (at node 8)
	maximum = 0.0243333 (at node 4)
Injected packet length average = 1
Accepted packet length average = 1
Total in-flight flits = 4 (4 measured)
latency change    = 0.0160975
throughput change = 0.0271399
Class 0:
Packet latency average = 19.2608
	minimum = 7
	maximum = 47
Network latency average = 19.2608
	minimum = 7
	maximum = 47
Slowest packet = 27048
Flit latency average = 19.2744
	minimum = 7
	maximum = 47
Slowest flit = 27048
Fragmentation average = 0
	minimum = 0
	maximum = 0
Injected packet rate average = 0.0198906
	minimum = 0.01675 (at node 2)
	maximum = 0.02325 (at node 1)
Accepted packet rate average = 0.0199844
	minimum = 0.01675 (at node 8)
	maximum = 0.02375 (at node 4)
Injected flit rate average = 0.0198906
	minimum = 0.01675 (at node 2)
	maximum = 0.02325 (at node 1)
Accepted flit rate average= 0.0199844
	minimum = 0.01675 (at node 8)
	maximum = 0.02375 (at node 4)
Injected packet length average = 1
Accepted packet length average = 1
Total in-flight flits = 4 (4 measured)
latency change    = 0.00516296
throughput change = 0.0013031
Draining all recorded packets ...
Draining remaining packets ...
Time taken is 7051 cycles
Class 0:
Packet latency average = 19.6921
	minimum = 7
	maximum = 38
Network latency average = 19.6921
	minimum = 7
	maximum = 38
Slowest packet = 27993
Flit latency average = 19.6921
	minimum = 7
	maximum = 38
Slowest flit = 27993
Fragmentation average = 0
	minimum = 0
	maximum = 0
Injected packet rate average = 0.0190625
	minimum = 0.009 (at node 8)
	maximum = 0.028 (at node 13)
Accepted packet rate average = 0.018875
	minimum = 0.009 (at node 2)
	maximum = 0.027 (at node 4)
Injected flit rate average = 0.0190625
	minimum = 0.009 (at node 8)
	maximum = 0.028 (at node 13)
Accepted flit rate average= 0.018875
	minimum = 0.009 (at node 2)
	maximum = 0.027 (at node 4)
Injected packet length average = 1
Accepted packet length average = 1
Total in-flight flits = 3 (0 measured)
latency change    = 1
throughput change = 1
Class 0:
Packet latency average = 19.7923
	minimum = 7
	maximum = 38
Network latency average = 19.7923
	minimum = 7
	maximum = 38
Slowest packet = 27993
Flit latency average = 19.7923
	minimum = 7
	maximum = 38
Slowest flit = 27993
Fragmentation average = 0
	minimum = 0
	maximum = 0
Injected packet rate average = 0.01975
	minimum = 0.0145 (at node 8)
	maximum = 0.027 (at node 13)
Accepted packet rate average = 0.0195625
	minimum = 0.0145 (at node 2)
	maximum = 0.026 (at node 7)
Injected flit rate average = 0.01975
	minimum = 0.0145 (at node 8)
	maximum = 0.027 (at node 13)
Accepted flit rate average= 0.0195625
	minimum = 0.0145 (at node 2)
	maximum = 0.026 (at node 7)
Injected packet length average = 1
Accepted packet length average = 1
Total in-flight flits = 6 (0 measured)
latency change    = 0.00506657
throughput change = 0.0351438
Class 0:
Packet latency average = 19.8239
	minimum = 7
	maximum = 37
Network latency average = 19.8239
	minimum = 7
	maximum = 37
Slowest packet = 28524
Flit latency average = 19.8239
	minimum = 7
	maximum = 37
Slowest flit = 28524
Fragmentation average = 0
	minimum = 0
	maximum = 0
Injected packet rate average = 0.0200625
	minimum = 0.011 (at node 1)
	maximum = 0.028 (at node 8)
Accepted packet rate average = 0.019875
	minimum = 0.01 (at node 4)
	maximum = 0.028 (at node 2)
Injected flit rate average = 0.0200625
	minimum = 0.011 (at node 1)
	maximum = 0.028 (at node 8)
Accepted flit rate average= 0.019875
	minimum = 0.01 (at node 4)
	maximum = 0.028 (at node 2)
Injected packet length average = 1
Accepted packet length average = 1
Total in-flight flits = 9 (0 measured)
latency change    = 0.00159238
throughput change = 0.0157233
Warmed up ...Time used is 3000 cycles
Class 0:
Packet latency average = 18.6298
	minimum = 7
	maximum = 37
Network latency average = 18.6298
	minimum = 7
	maximum = 37
Slowest packet = 28854
Flit latency average = 18.6812
	minimum = 7
	maximum = 37
Slowest flit = 28841
Fragmentation average = 0
	minimum = 0
	maximum = 0
Injected packet rate average = 0.018375
	minimum = 0.013 (at node 11)
	maximum = 0.025 (at node 0)
Accepted packet rate average = 0.018625
	minimum = 0.014 (at node 14)
	maximum = 0.025 (at node 0)
Injected flit rate average = 0.018375
	minimum = 0.013 (at node 11)
	maximum = 0.025 (at node 0)
Accepted flit rate average= 0.018625
	minimum = 0.014 (at node 14)
	maximum = 0.025 (at node 0)
Injected packet length average = 1
Accepted packet length average = 1
Total in-flight flits = 5 (5 measured)
latency change    = 0.0640986
throughput change = 0.0671141
Class 0:
Packet latency average = 19.0553
	minimum = 7
	maximum = 37
Network latency average = 19.0553
	minimum = 7
	maximum = 37
Slowest packet = 28854
Flit latency average = 19.0737
	minimum = 7
	maximum = 37
Slowest flit = 28841
Fragmentation average = 0
	minimum = 0
	maximum = 0
Injected packet rate average = 0.0193437
	minimum = 0.015 (at node 8)
	maximum = 0.023 (at node 0)
Accepted packet rate average = 0.0195
	minimum = 0.015 (at node 2)
	maximum = 0.023 (at node 0)
Injected flit rate average = 0.0193437
	minimum = 0.015 (at node 8)
	maximum = 0.023 (at node 0)
Accepted flit rate average= 0.0195
	minimum = 0.015 (at node 2)
	maximum = 0.023 (at node 0)
Injected packet length average = 1
[...]
Slowest flit = 211435
Fragmentation average = 0
	minimum = 0
	maximum = 0
Injected packet rate average = 0.0185625
	minimum = 0.006 (at node 0)
	maximum = 0.027 (at node 4)
Accepted packet rate average = 0.0181875
	minimum = 0.006 (at node 0)
	maximum = 0.027 (at node 1)
Injected flit rate average = 0.0185625
	minimum = 0.006 (at node 0)
	maximum = 0.027 (at node 4)
Accepted flit rate average= 0.0181875
	minimum = 0.006 (at node 0)
	maximum = 0.027 (at node 1)
Injected packet length average = 1
Accepted packet length average = 1
Total in-flight flits = 6 (0 measured)
latency change    = 1
throughput change = 1
Class 0:
Packet latency average = 19.6688
	minimum = 7
	maximum = 38
Network latency average = 19.6688
	minimum = 7
	maximum = 38
Slowest packet = 211764
Flit latency average = 19.6688
	minimum = 7
	maximum = 38
Slowest flit = 211764
Fragmentation average = 0
	minimum = 0
	maximum = 0
Injected packet rate average = 0.0194062
	minimum = 0.009 (at node 0)
	maximum = 0.0245 (at node 5)
Accepted packet rate average = 0.01925
	minimum = 0.0085 (at node 0)
	maximum = 0.0245 (at node 5)
Injected flit rate average = 0.0194062
	minimum = 0.009 (at node 0)
	maximum = 0.0245 (at node 5)
Accepted flit rate average= 0.01925
	minimum = 0.0085 (at node 0)
	maximum = 0.0245 (at node 5)
Injected packet length average = 1
Accepted packet length average = 1
Total in-flight flits = 5 (0 measured)
latency change    = 0.0115958
throughput change = 0.0551948
Class 0:
Packet latency average = 20.165
	minimum = 7
	maximum = 38
Network latency average = 20.165
	minimum = 7
	maximum = 38
Slowest packet = 212167
Flit latency average = 20.165
	minimum = 7
	maximum = 38
Slowest flit = 212167
Fragmentation average = 0
	minimum = 0
	maximum = 0
Injected packet rate average = 0.019375
	minimum = 0.009 (at node 5)
	maximum = 0.024 (at node 4)
Accepted packet rate average = 0.0193125
	minimum = 0.009 (at node 5)
	maximum = 0.024 (at node 1)
Injected flit rate average = 0.019375
	minimum = 0.009 (at node 5)
	maximum = 0.024 (at node 4)
Accepted flit rate average= 0.0193125
	minimum = 0.009 (at node 5)
	maximum = 0.024 (at node 1)
Injected packet length average = 1
Accepted packet length average = 1
Total in-flight flits = 6 (0 measured)
latency change    = 0.0246078
throughput change = 0.00323625
Warmed up ...Time used is 3000 cycles
Class 0:
Packet latency average = 18.8328
	minimum = 7
	maximum = 37
Network latency average = 18.8328
	minimum = 7
	maximum = 37
Slowest packet = 212362
Flit latency average = 18.9493
	minimum = 7
	maximum = 37
Slowest flit = 212356
Fragmentation average = 0
	minimum = 0
	maximum = 0
Injected packet rate average = 0.020875
	minimum = 0.015 (at node 1)
	maximum = 0.03 (at node 15)
Accepted packet rate average = 0.0209375
	minimum = 0.015 (at node 4)
	maximum = 0.03 (at node 15)
Injected flit rate average = 0.020875
	minimum = 0.015 (at node 1)
	maximum = 0.03 (at node 15)
Accepted flit rate average= 0.0209375
	minimum = 0.015 (at node 4)
	maximum = 0.03 (at node 15)
Injected packet length average = 1
Accepted packet length average = 1
Total in-flight flits = 5 (5 measured)
latency change    = 0.0707393
throughput change = 0.0776119
Class 0:
Packet latency average = 19.2413
	minimum = 7
	maximum = 37
Network latency average = 19.2413
	minimum = 7
	maximum = 37
Slowest packet = 212362
Flit latency average = 19.2987
	minimum = 7
	maximum = 37
Slowest flit = 212356
Fragmentation average = 0
	minimum = 0
	maximum = 0
Injected packet rate average = 0.019875
	minimum = 0.012 (at node 1)
	maximum = 0.026 (at node 4)
Accepted packet rate average = 0.019875
	minimum = 0.012 (at node 4)
	maximum = 0.0255 (at node 1)
Injected flit rate average = 0.019875
	minimum = 0.012 (at node 1)
	maximum = 0.026 (at node 4)
Accepted flit rate average= 0.019875
	minimum = 0.012 (at node 4)
	maximum = 0.0255 (at node 1)
Injected packet length average = 1
Accepted packet length average = 1
Total in-flight flits = 6 (6 measured)
latency change    = 0.0212275
throughput change = 0.0534591
Class 0:
Packet latency average = 19.2336
	minimum = 7
	maximum = 37
Network latency average = 19.2336
	minimum = 7
	maximum = 37
Slowest packet = 212362
Flit latency average = 19.2727
	minimum = 7
	maximum = 37
Slowest flit = 212356
Fragmentation average = 0
	minimum = 0
	maximum = 0
Injected packet rate average = 0.0194167
	minimum = 0.0146667 (at node 1)
	maximum = 0.026 (at node 4)
Accepted packet rate average = 0.0194792
	minimum = 0.0146667 (at node 4)
	maximum = 0.0256667 (at node 1)
Injected flit rate average = 0.0194167
	minimum = 0.0146667 (at node 1)
	maximum = 0.026 (at node 4)
Accepted flit rate average= 0.0194792
	minimum = 0.0146667 (at node 4)
	maximum = 0.0256667 (at node 1)
Injected packet length average = 1
Accepted packet length average = 1
Total in-flight flits = 3 (3 measured)
latency change    = 0.000399579
throughput change = 0.0203209
Class 0:
Packet latency average = 19.3149
	minimum = 7
	maximum = 37
Network latency average = 19.3149
	minimum = 7
	maximum = 37
Slowest packet = 212362
Flit latency average = 19.3446
	minimum = 7
	maximum = 37
Slowest flit = 212356
Fragmentation average = 0
	minimum = 0
	maximum = 0
Injected packet rate average = 0.0190156
	minimum = 0.015 (at node 3)
	maximum = 0.02375 (at node 4)
Accepted packet rate average = 0.019
	minimum = 0.015 (at node 4)
	maximum = 0.02375 (at node 1)
Injected flit rate average = 0.0190156
	minimum = 0.015 (at node 3)
	maximum = 0.02375 (at node 4)
Accepted flit rate average= 0.019
	minimum = 0.015 (at node 4)
	maximum = 0.02375 (at node 1)
Injected packet length average = 1
Accepted packet length average = 1
Total in-flight flits = 7 (7 measured)
latency change    = 0.00420875
throughput change = 0.0252193
Class 0:
Packet latency average = 19.3335
	minimum = 7
	maximum = 38
Network latency average = 19.3335
	minimum = 7
	maximum = 38
Slowest packet = 213694
Flit latency average = 19.3566
	minimum = 7
	maximum = 38
Slowest flit = 213694
Fragmentation average = 0
	minimum = 0
	maximum = 0
Injected packet rate average = 0.0195375
	minimum = 0.0166 (at node 11)
	maximum = 0.023 (at node 4)
Accepted packet rate average = 0.019525
	minimum = 0.0166 (at node 14)
	maximum = 0.023 (at node 1)
Injected flit rate average = 0.0195375
	minimum = 0.0166 (at node 11)
	maximum = 0.023 (at node 4)
Accepted flit rate average= 0.019525
	minimum = 0.0166 (at node 14)
	maximum = 0.023 (at node 1)
Injected packet length average = 1
Accepted packet length average = 1
Total in-flight flits = 7 (7 measured)
latency change    = 0.000965758
throughput change = 0.0268886
Draining all recorded packets ...
Draining remaining packets ...
Time taken is 8058 cycles
Class 0:
Packet latency average = 18.8994
	minimum = 7
	maximum = 40
Network latency average = 18.8994
	minimum = 7
	maximum = 40
Slowest packet = 214254
Flit latency average = 18.8994
	minimum = 7
	maximum = 40
Slowest flit = 214254
Fragmentation average = 0
	minimum = 0
	maximum = 0
Injected packet rate average = 0.0220625
	minimum = 0.016 (at node 12)
	maximum = 0.034 (at node 5)
Accepted packet rate average = 0.02175
	minimum = 0.016 (at node 3)
	maximum = 0.034 (at node 5)
Injected flit rate average = 0.0220625
	minimum = 0.016 (at node 12)
	maximum = 0.034 (at node 5)
Accepted flit rate average= 0.02175
	minimum = 0.016 (at node 3)
	maximum = 0.034 (at node 5)
Injected packet length average = 1
Accepted packet length average = 1
Total in-flight flits = 5 (0 measured)
latency change    = 1
throughput change = 1
Class 0:
Packet latency average = 18.9895
	minimum = 7
	maximum = 40
Network latency average = 18.9895
	minimum = 7
	maximum = 40
Slowest packet = 214254
Flit latency average = 18.9895
	minimum = 7
	maximum = 40
Slowest flit = 214254
Fragmentation average = 0
	minimum = 0
	maximum = 0
Injected packet rate average = 0.0210313
	minimum = 0.0145 (at node 15)
	maximum = 0.028 (at node 1)
Accepted packet rate average = 0.0208125
	minimum = 0.0145 (at node 15)
	maximum = 0.0275 (at node 4)
Injected flit rate average = 0.0210313
	minimum = 0.0145 (at node 15)
	maximum = 0.028 (at node 1)
Accepted flit rate average= 0.0208125
	minimum = 0.0145 (at node 15)
	maximum = 0.0275 (at node 4)
Injected packet length average = 1
Accepted packet length average = 1
Total in-flight flits = 7 (0 measured)
latency change    = 0.00474284
throughput change = 0.045045
Class 0:
Packet latency average = 19.7608
	minimum = 7
	maximum = 38
Network latency average = 19.7608
	minimum = 7
	maximum = 38
Slowest packet = 214717
Flit latency average = 19.7608
	minimum = 7
	maximum = 38
Slowest flit = 214717
Fragmentation average = 0
	minimum = 0
	maximum = 0
Injected packet rate average = 0.0189375
	minimum = 0.014 (at node 4)
	maximum = 0.033 (at node 6)
Accepted packet rate average = 0.0188125
	minimum = 0.014 (at node 1)
	maximum = 0.033 (at node 9)
Injected flit rate average = 0.0189375
	minimum = 0.014 (at node 4)
	maximum = 0.033 (at node 6)
Accepted flit rate average= 0.0188125
	minimum = 0.014 (at node 1)
	maximum = 0.033 (at node 9)
Injected packet length average = 1
Accepted packet length average = 1
Total in-flight flits = 9 (0 measured)
latency change    = 0.0390322
throughput change = 0.106312
Warmed up ...Time used is 3000 cycles
Class 0:
Packet latency average = 20.4094
	minimum = 7
	maximum = 39
Network latency average = 20.4094
	minimum = 7
	maximum = 39
Slowest packet = 215022
Flit latency average = 20.6018
	minimum = 7
	maximum = 41
Slowest flit = 214898
Fragmentation average = 0
	minimum = 0
	maximum = 0
Injected packet rate average = 0.020375
	minimum = 0.014 (at node 0)
	maximum = 0.028 (at node 2)
Accepted packet rate average = 0.0205625
	minimum = 0.014 (at node 0)
	maximum = 0.029 (at node 8)
Injected flit rate average = 0.020375
	minimum = 0.014 (at node 0)
	maximum = 0.028 (at node 2)
Accepted flit rate average= 0.0205625
	minimum = 0.014 (at node 0)
	maximum = 0.029 (at node 8)
Injected packet length average = 1
Accepted packet length average = 1
Total in-flight flits = 6 (6 measured)
latency change    = 0.0317784
throughput change = 0.0851064
Class 0:
Packet latency average = 20.2808
	minimum = 7
	maximum = 41
Network latency average = 20.2808
	minimum = 7
	maximum = 41
Slowest packet = 215276
Flit latency average = 20.38
	minimum = 7
	maximum = 41
Slowest flit = 214898
Fragmentation average = 0
	minimum = 0
	maximum = 0
Injected packet rate average = 0.02025
	minimum = 0.015 (at node 0)
	maximum = 0.024 (at node 1)
Accepted packet rate average = 0.0203125
	minimum = 0.015 (at node 0)
	maximum = 0.0245 (at node 4)
Injected flit rate average = 0.02025
	minimum = 0.015 (at node 0)
	maximum = 0.024 (at node 1)
Accepted flit rate average= 0.0203125
	minimum = 0.015 (at node 0)
	maximum = 0.0245 (at node 4)
Injected packet length average = 1
Accepted packet length average = 1
Total in-flight flits = 7 (7 measured)
latency change    = 0.00633918
throughput change = 0.0123077
Class 0:
Packet latency average = 20.3354
	minimum = 7
	maximum = 41
Network latency average = 20.3354
	minimum = 7
	maximum = 41
Slowest packet = 215276
Flit latency average = 20.4025
	minimum = 7
	maximum = 41
Slowest flit = 214898
Fragmentation average = 0
	minimum = 0
	maximum = 0
Injected packet rate average = 0.0197917
	minimum = 0.014 (at node 4)
	maximum = 0.0236667 (at node 2)
Accepted packet rate average = 0.019875
	minimum = 0.014 (at node 1)
	maximum = 0.024 (at node 8)
Injected flit rate average = 0.0197917
	minimum = 0.014 (at node 4)
	maximum = 0.0236667 (at node 2)
Accepted flit rate average= 0.019875
	minimum = 0.014 (at node 1)
	maximum = 0.024 (at node 8)
Injected packet length average = 1
Accepted packet length average = 1
Total in-flight flits = 5 (5 measured)
latency change    = 0.00268686
throughput change = 0.0220126
Class 0:
Packet latency average = 20.1826
	minimum = 7
	maximum = 41
Network latency average = 20.1826
	minimum = 7
	maximum = 41
Slowest packet = 215276
Flit latency average = 20.235
	minimum = 7
	maximum = 41
Slowest flit = 214898
Fragmentation average = 0
	minimum = 0
	maximum = 0
Injected packet rate average = 0.0194687
	minimum = 0.01375 (at node 4)
	maximum = 0.02275 (at node 12)
Accepted packet rate average = 0.0194844
	minimum = 0.01375 (at node 1)
	maximum = 0.0225 (at node 3)
Injected flit rate average = 0.0194687
	minimum = 0.01375 (at node 4)
	maximum = 0.02275 (at node 12)
Accepted flit rate average= 0.0194844
	minimum = 0.01375 (at node 1)
	maximum = 0.0225 (at node 3)
Injected packet length average = 1
Accepted packet length average = 1
Total in-flight flits = 8 (8 measured)
latency change    = 0.00757571
throughput change = 0.0200481
Draining all recorded packets ...
Draining remaining packets ...
Time taken is 7063 cycles
Class 0:
Packet latency average = 19.3098
	minimum = 7
	maximum = 41
Network latency average = 19.3098
	minimum = 7
	maximum = 41
Slowest packet = 216332
Flit latency average = 19.3098
	minimum = 7
	maximum = 41
Slowest flit = 216332
Fragmentation average = 0
	minimum = 0
	maximum = 0
Injected packet rate average = 0.01875
	minimum = 0.012 (at node 10)
	maximum = 0.028 (at node 15)
Accepted packet rate average = 0.0185625
	minimum = 0.012 (at node 3)
	maximum = 0.027 (at node 15)
Injected flit rate average = 0.01875
	minimum = 0.012 (at node 10)
	maximum = 0.028 (at node 15)
Accepted flit rate average= 0.0185625
	minimum = 0.012 (at node 3)
	maximum = 0.027 (at node 15)
Injected packet length average = 1
Accepted packet length average = 1
Total in-flight flits = 3 (0 measured)
latency change    = 1
throughput change = 1
Class 0:
Packet latency average = 19.5137
	minimum = 7
	maximum = 42
Network latency average = 19.5137
	minimum = 7
	maximum = 42
Slowest packet = 216572
Flit latency average = 19.5137
	minimum = 7
	maximum = 42
Slowest flit = 216572
Fragmentation average = 0
	minimum = 0
	maximum = 0
Injected packet rate average = 0.0198438
	minimum = 0.0145 (at node 12)
	maximum = 0.0235 (at node 8)
Accepted packet rate average = 0.0193437
	minimum = 0.014 (at node 3)
	maximum = 0.023 (at node 6)
Injected flit rate average = 0.0198438
	minimum = 0.0145 (at node 12)
	maximum = 0.0235 (at node 8)
Accepted flit rate average= 0.0193437
	minimum = 0.014 (at node 3)
	maximum = 0.023 (at node 6)
Injected packet length average = 1
Accepted packet length average = 1
Total in-flight flits = 16 (0 measured)
latency change    = 0.0104525
throughput change = 0.0403877
Class 0:
Packet latency average = 20.7169
	minimum = 7
	maximum = 38
Network latency average = 20.7169
	minimum = 7
	maximum = 38
Slowest packet = 216787
Flit latency average = 20.7169
	minimum = 7
	maximum = 38
Slowest flit = 216787
Fragmentation average = 0
	minimum = 0
	maximum = 0
Injected packet rate average = 0.019625
	minimum = 0.014 (at node 11)
	maximum = 0.027 (at node 4)
Accepted packet rate average = 0.0203125
	minimum = 0.014 (at node 14)
	maximum = 0.028 (at node 3)
Injected flit rate average = 0.019625
	minimum = 0.014 (at node 11)
	maximum = 0.027 (at node 4)
Accepted flit rate average= 0.0203125
	minimum = 0.014 (at node 14)
	maximum = 0.028 (at node 3)
Injected packet length average = 1
Accepted packet length average = 1
Total in-flight flits = 5 (0 measured)
latency change    = 0.0580777
throughput change = 0.0476923
Warmed up ...Time used is 3000 cycles
Class 0:
Packet latency average = 19.6875
	minimum = 7
	maximum = 38
Network latency average = 19.6875
	minimum = 7
	maximum = 38
Slowest packet = 217351
Flit latency average = 19.8556
	minimum = 7
	maximum = 38
Slowest flit = 217351
Fragmentation average = 0
	minimum = 0
	maximum = 0
Injected packet rate average = 0.0171875
	minimum = 0.013 (at node 3)
	maximum = 0.022 (at node 10)
Accepted packet rate average = 0.0173125
	minimum = 0.013 (at node 1)
	maximum = 0.022 (at node 13)
Injected flit rate average = 0.0171875
	minimum = 0.013 (at node 3)
	maximum = 0.022 (at node 10)
Accepted flit rate average= 0.0173125
	minimum = 0.013 (at node 1)
	maximum = 0.022 (at node 13)
Injected packet length average = 1
Accepted packet length average = 1
Total in-flight flits = 3 (3 measured)
latency change    = 0.0522882
throughput change = 0.173285
Class 0:
Packet latency average = 19.5916
	minimum = 7
	maximum = 38
Network latency average = 19.5916
	minimum = 7
	maximum = 38
Slowest packet = 217351
Flit latency average = 19.673
	minimum = 7
	maximum = 38
Slowest flit = 217351
Fragmentation average = 0
	minimum = 0
	maximum = 0
Injected packet rate average = 0.018125
	minimum = 0.015 (at node 3)
	maximum = 0.0225 (at node 7)
Accepted packet rate average = 0.0180625
	minimum = 0.0155 (at node 0)
	maximum = 0.023 (at node 13)
Injected flit rate average = 0.018125
	minimum = 0.015 (at node 3)
	maximum = 0.0225 (at node 7)
Accepted flit rate average= 0.0180625
	minimum = 0.0155 (at node 0)
	maximum = 0.023 (at node 13)
Injected packet length average = 1
Accepted packet length average = 1
Total in-flight flits = 7 (7 measured)
latency change    = 0.00489377
throughput change = 0.0415225
Class 0:
Packet latency average = 19.3761
	minimum = 7
	maximum = 38
Network latency average = 19.3761
	minimum = 7
	maximum = 38
Slowest packet = 217351
Flit latency average = 19.4295
	minimum = 7
	maximum = 38
Slowest flit = 217351
Fragmentation average = 0
	minimum = 0
	maximum = 0
Injected packet rate average = 0.0187917
	minimum = 0.0136667 (at node 3)
	maximum = 0.0226667 (at node 7)
Accepted packet rate average = 0.0187708
	minimum = 0.0143333 (at node 12)
	maximum = 0.0223333 (at node 3)
Injected flit rate average = 0.0187917
	minimum = 0.0136667 (at node 3)
	maximum = 0.0226667 (at node 7)
Accepted flit rate average= 0.0187708
	minimum = 0.0143333 (at node 12)
	maximum = 0.0223333 (at node 3)
Injected packet length average = 1
Accepted packet length average = 1
Total in-flight flits = 6 (6 measured)
latency change    = 0.0111223
throughput change = 0.0377358
Class 0:
Packet latency average = 19.6528
	minimum = 7
	maximum = 40
Network latency average = 19.6528
	minimum = 7
	maximum = 40
Slowest packet = 218110
Flit latency average = 19.6907
	minimum = 7
	maximum = 40
Slowest flit = 218110
Fragmentation average = 0
	minimum = 0
	maximum = 0
Injected packet rate average = 0.0192812
	minimum = 0.01675 (at node 1)
	maximum = 0.02325 (at node 12)
Accepted packet rate average = 0.0192969
	minimum = 0.01675 (at node 4)
	maximum = 0.02325 (at node 3)
Injected flit rate average = 0.0192812
	minimum = 0.01675 (at node 1)
	maximum = 0.02325 (at node 12)
Accepted flit rate average= 0.0192969
	minimum = 0.01675 (at node 4)
	maximum = 0.02325 (at node 3)
Injected packet length average = 1
Accepted packet length average = 1
Total in-flight flits = 4 (4 measured)
latency change    = 0.0140809
throughput change = 0.0272605
Draining all recorded packets ...
Draining remaining packets ...
Time taken is 7064 cycles
====== Overall Traffic Statistics ======
====== Traffic class 0 ======
Packet latency average = 19.5902 (100 samples)
	minimum = 7 (100 samples)
	maximum = 43.86 (100 samples)
Network latency average = 19.5902 (100 samples)
	minimum = 7 (100 samples)
	maximum = 43.86 (100 samples)
Flit latency average = 19.6111 (100 samples)
	minimum = 7 (100 samples)
	maximum = 43.86 (100 samples)
Fragmentation average = 0 (100 samples)
	minimum = 0 (100 samples)
	maximum = 0 (100 samples)
Injected packet rate average = 0.0200386 (100 samples)
	minimum = 0.0160805 (100 samples)
	maximum = 0.024411 (100 samples)
Accepted packet rate average = 0.0200408 (100 samples)
	minimum = 0.0160838 (100 samples)
	maximum = 0.0244203 (100 samples)
Injected flit rate average = 0.0200386 (100 samples)
	minimum = 0.0160805 (100 samples)
	maximum = 0.024411 (100 samples)
Accepted flit rate average = 0.0200408 (100 samples)
	minimum = 0.0160838 (100 samples)
	maximum = 0.0244203 (100 samples)
Injected packet size average = 1 (100 samples)
Accepted packet size average = 1 (100 samples)
Hops average = 3.5076 (100 samples)
Total run time 18.6694
