BEGIN Configuration File: /tmp/tmpl2uiybbv.cfg
topology = mesh;
k = 4;
n = 2;
routing_function = romm;
num_vcs = 4;
vc_buf_size = 4;
wait_for_tail_credit = 1;
vc_allocator = islip;
sw_allocator = islip;
alloc_iters = 1;
credit_delay = 2;
routing_delay = 1;
vc_alloc_delay = 1;
sw_alloc_delay = 1;
input_speedup = 2;
output_speedup = 1;
internal_speedup = 1.0;
traffic = uniform;
packet_size = 1;
sim_type = latency;
injection_rate = 0.02;
warmup_periods = 3;
sample_period = 1000;
sim_count = 100;
seed = 4;

END Configuration File: /tmp/tmpl2uiybbv.cfg
Class 0:
Packet latency average = 19.3063
	minimum = 7
	maximum = 37
Network latency average = 19.3063
	minimum = 7
	maximum = 37
Slowest packet = 23
Flit latency average = 19.3063
	minimum = 7
	maximum = 37
Slowest flit = 23
Fragmentation average = 0
	minimum = 0
	maximum = 0
Injected packet rate average = 0.021
	minimum = 0.011 (at node 0)
	maximum = 0.032 (at node 5)
Accepted packet rate average = 0.0208125
	minimum = 0.013 (at node 2)
	maximum = 0.028 (at node 3)
Injected flit rate average = 0.021
	minimum = 0.011 (at node 0)
	maximum = 0.032 (at node 5)
Accepted flit rate average= 0.0208125
	minimum = 0.013 (at node 2)
	maximum = 0.028 (at node 3)
Injected packet length average = 1
Accepted packet length average = 1
Total in-flight flits = 3 (0 measured)
latency change    = 1
throughput change = 1
Class 0:
Packet latency average = 19.0502
	minimum = 7
	maximum = 37
Network latency average = 19.0502
	minimum = 7
	maximum = 37
Slowest packet = 23
Flit latency average = 19.0502
	minimum = 7
	maximum = 37
Slowest flit = 23
Fragmentation average = 0
	minimum = 0
	maximum = 0
Injected packet rate average = 0.0207188
	minimum = 0.0135 (at node 0)
	maximum = 0.025 (at node 5)
Accepted packet rate average = 0.0205625
	minimum = 0.017 (at node 7)
	maximum = 0.024 (at node 3)
Injected flit rate average = 0.0207188
	minimum = 0.0135 (at node 0)
	maximum = 0.025 (at node 5)
Accepted flit rate average= 0.0205625
	minimum = 0.017 (at node 7)
	maximum = 0.024 (at node 3)
Injected packet length average = 1
Accepted packet length average = 1
Total in-flight flits = 5 (0 measured)
latency change    = 0.0134463
throughput change = 0.0121581
Class 0:
Packet latency average = 19.8899
	minimum = 7
	maximum = 42
Network latency average = 19.8899
	minimum = 7
	maximum = 42
Slowest packet = 950
Flit latency average = 19.8899
	minimum = 7
	maximum = 42
Slowest flit = 950
Fragmentation average = 0
	minimum = 0
	maximum = 0
Injected packet rate average = 0.0204375
	minimum = 0.011 (at node 6)
	maximum = 0.031 (at node 14)
Accepted packet rate average = 0.0204375
	minimum = 0.01 (at node 1)
	maximum = 0.031 (at node 0)
Injected flit rate average = 0.0204375
	minimum = 0.011 (at node 6)
	maximum = 0.031 (at node 14)
Accepted flit rate average= 0.0204375
	minimum = 0.01 (at node 1)
	maximum = 0.031 (at node 0)
Injected packet length average = 1
Accepted packet length average = 1
Total in-flight flits = 5 (0 measured)
latency change    = 0.0422202
throughput change = 0.00611621
Warmed up ...Time used is 3000 cycles
Class 0:
Packet latency average = 19.571
	minimum = 7
	maximum = 37
Network latency average = 19.571
	minimum = 7
	maximum = 37
Slowest packet = 1028
Flit latency average = 19.5778
	minimum = 7
	maximum = 37
Slowest flit = 1028
Fragmentation average = 0
	minimum = 0
	maximum = 0
Injected packet rate average = 0.019875
	minimum = 0.011 (at node 12)
	maximum = 0.028 (at node 6)
Accepted packet rate average = 0.0196875
	minimum = 0.012 (at node 7)
	maximum = 0.028 (at node 10)
Injected flit rate average = 0.019875
	minimum = 0.011 (at node 12)
	maximum = 0.028 (at node 6)
Accepted flit rate average= 0.0196875
	minimum = 0.012 (at node 7)
	maximum = 0.028 (at node 10)
Injected packet length average = 1
Accepted packet length average = 1
Total in-flight flits = 8 (8 measured)
latency change    = 0.0162966
throughput change = 0.0380952
Class 0:
Packet latency average = 19.256
	minimum = 7
	maximum = 37
Network latency average = 19.256
	minimum = 7
	maximum = 37
Slowest packet = 1028
Flit latency average = 19.2619
	minimum = 7
	maximum = 37
Slowest flit = 1028
Fragmentation average = 0
	minimum = 0
	maximum = 0
Injected packet rate average = 0.0197813
	minimum = 0.0115 (at node 4)
	maximum = 0.0265 (at node 13)
Accepted packet rate average = 0.0196875
	minimum = 0.0145 (at node 3)
	maximum = 0.0255 (at node 0)
Injected flit rate average = 0.0197813
	minimum = 0.0115 (at node 4)
	maximum = 0.0265 (at node 13)
Accepted flit rate average= 0.0196875
	minimum = 0.0145 (at node 3)
	maximum = 0.0255 (at node 0)
Injected packet length average = 1
Accepted packet length average = 1
Total in-flight flits = 8 (8 measured)
latency change    = 0.0163569
throughput change = 0
Class 0:
Packet latency average = 19.478
	minimum = 7
	maximum = 38
Network latency average = 19.478
	minimum = 7
	maximum = 38
Slowest packet = 1670
Flit latency average = 19.4807
	minimum = 7
	maximum = 38
Slowest flit = 1670
Fragmentation average = 0
	minimum = 0
	maximum = 0
Injected packet rate average = 0.0199792
	minimum = 0.0133333 (at node 4)
	maximum = 0.0256667 (at node 6)
Accepted packet rate average = 0.0199792
	minimum = 0.015 (at node 3)
	maximum = 0.024 (at node 8)
Injected flit rate average = 0.0199792
	minimum = 0.0133333 (at node 4)
	maximum = 0.0256667 (at node 6)
Accepted flit rate average= 0.0199792
	minimum = 0.015 (at node 3)
	maximum = 0.024 (at node 8)
Injected packet length average = 1
Accepted packet length average = 1
Total in-flight flits = 5 (5 measured)
latency change    = 0.0113968
throughput change = 0.0145985
Draining all recorded packets ...
Draining remaining packets ...
Time taken is 6064 cycles
Class 0:
Packet latency average = 18.9243
	minimum = 7
	maximum = 37
Network latency average = 18.9243
	minimum = 7
	maximum = 37
Slowest packet = 1994
Flit latency average = 18.9243
	minimum = 7
	maximum = 37
Slowest flit = 1994
Fragmentation average = 0
	minimum = 0
	maximum = 0
Injected packet rate average = 0.020125
	minimum = 0.012 (at node 8)
	maximum = 0.027 (at node 10)
Accepted packet rate average = 0.0198125
	minimum = 0.014 (at node 15)
	maximum = 0.025 (at node 0)
Injected flit rate average = 0.020125
	minimum = 0.012 (at node 8)
	maximum = 0.027 (at node 10)
Accepted flit rate average= 0.0198125
	minimum = 0.014 (at node 15)
	maximum = 0.025 (at node 0)
Injected packet length average = 1
Accepted packet length average = 1
Total in-flight flits = 5 (0 measured)
latency change    = 1
throughput change = 1
Class 0:
Packet latency average = 19.0297
	minimum = 7
	maximum = 41
Network latency average = 19.0297
	minimum = 7
	maximum = 41
Slowest packet = 2375
Flit latency average = 19.0297
	minimum = 7
	maximum = 41
Slowest flit = 2375
Fragmentation average = 0
	minimum = 0
	maximum = 0
Injected packet rate average = 0.0200938
	minimum = 0.013 (at node 2)
	maximum = 0.028 (at node 10)
Accepted packet rate average = 0.0199688
	minimum = 0.014 (at node 8)
	maximum = 0.024 (at node 0)
Injected flit rate average = 0.0200938
	minimum = 0.013 (at node 2)
	maximum = 0.028 (at node 10)
Accepted flit rate average= 0.0199688
	minimum = 0.014 (at node 8)
	maximum = 0.024 (at node 0)
Injected packet length average = 1
Accepted packet length average = 1
Total in-flight flits = 4 (0 measured)
latency change    = 0.005541
throughput change = 0.00782473
Class 0:
Packet latency average = 19.4237
	minimum = 7
	maximum = 37
Network latency average = 19.4237
	minimum = 7
	maximum = 37
Slowest packet = 2658
Flit latency average = 19.4237
	minimum = 7
	maximum = 37
Slowest flit = 2658
Fragmentation average = 0
	minimum = 0
	maximum = 0
Injected packet rate average = 0.02
	minimum = 0.014 (at node 15)
	maximum = 0.03 (at node 7)
Accepted packet rate average = 0.0200625
	minimum = 0.016 (at node 5)
	maximum = 0.023 (at node 8)
Injected flit rate average = 0.02
	minimum = 0.014 (at node 15)
	maximum = 0.03 (at node 7)
Accepted flit rate average= 0.0200625
	minimum = 0.016 (at node 5)
	maximum = 0.023 (at node 8)
Injected packet length average = 1
Accepted packet length average = 1
Total in-flight flits = 3 (0 measured)
latency change    = 0.0202815
throughput change = 0.0046729
Warmed up ...Time used is 3000 cycles
Class 0:
Packet latency average = 19.5433
	minimum = 7
	maximum = 37
Network latency average = 19.5433
	minimum = 7
	maximum = 37
Slowest packet = 2952
Flit latency average = 19.5685
	minimum = 7
	maximum = 37
Slowest flit = 2952
Fragmentation average = 0
	minimum = 0
	maximum = 0
Injected packet rate average = 0.01825
	minimum = 0.011 (at node 3)
	maximum = 0.029 (at node 12)
Accepted packet rate average = 0.01825
	minimum = 0.013 (at node 6)
	maximum = 0.023 (at node 11)
Injected flit rate average = 0.01825
	minimum = 0.011 (at node 3)
	maximum = 0.029 (at node 12)
Accepted flit rate average= 0.01825
	minimum = 0.013 (at node 6)
	maximum = 0.023 (at node 11)
Injected packet length average = 1
Accepted packet length average = 1
Total in-flight flits = 3 (3 measured)
latency change    = 0.00611856
throughput change = 0.0993151
Class 0:
Packet latency average = 19.43
	minimum = 7
	maximum = 37
Network latency average = 19.43
	minimum = 7
	maximum = 37
Slowest packet = 2952
Flit latency average = 19.4431
	minimum = 7
	maximum = 37
Slowest flit = 2952
Fragmentation average = 0
	minimum = 0
	maximum = 0
Injected packet rate average = 0.0184375
	minimum = 0.014 (at node 7)
	maximum = 0.025 (at node 15)
Accepted packet rate average = 0.0184062
	minimum = 0.014 (at node 6)
	maximum = 0.0225 (at node 12)
Injected flit rate average = 0.0184375
	minimum = 0.014 (at node 7)
	maximum = 0.025 (at node 15)
Accepted flit rate average= 0.0184062
	minimum = 0.014 (at node 6)
	maximum = 0.0225 (at node 12)
Injected packet length average = 1
Accepted packet length average = 1
Total in-flight flits = 4 (4 measured)
latency change    = 0.00582698
throughput change = 0.00848896
Class 0:
Packet latency average = 19.3322
	minimum = 7
	maximum = 37
Network latency average = 19.3322
	minimum = 7
	maximum = 37
Slowest packet = 2952
Flit latency average = 19.3414
	minimum = 7
	maximum = 37
Slowest flit = 2952
Fragmentation average = 0
	minimum = 0
	maximum = 0
Injected packet rate average = 0.0182083
	minimum = 0.014 (at node 2)
	maximum = 0.0233333 (at node 15)
Accepted packet rate average = 0.018125
	minimum = 0.0133333 (at node 6)
	maximum = 0.021 (at node 12)
Injected flit rate average = 0.0182083
	minimum = 0.014 (at node 2)
	maximum = 0.0233333 (at node 15)
Accepted flit rate average= 0.018125
	minimum = 0.0133333 (at node 6)
	maximum = 0.021 (at node 12)
Injected packet length average = 1
Accepted packet length average = 1
Total in-flight flits = 7 (7 measured)
latency change    = 0.00506173
throughput change = 0.0155172
Class 0:
Packet latency average = 19.3158
	minimum = 7
	maximum = 41
Network latency average = 19.3158
	minimum = 7
	maximum = 41
Slowest packet = 3988
Flit latency average = 19.3226
	minimum = 7
	maximum = 41
Slowest flit = 3988
Fragmentation average = 0
	minimum = 0
	maximum = 0
Injected packet rate average = 0.0185625
	minimum = 0.014 (at node 7)
	maximum = 0.024 (at node 15)
Accepted packet rate average = 0.0185
	minimum = 0.01625 (at node 6)
	maximum = 0.02175 (at node 12)
Injected flit rate average = 0.0185625
	minimum = 0.014 (at node 7)
	maximum = 0.024 (at node 15)
Accepted flit rate average= 0.0185
	minimum = 0.01625 (at node 6)
	maximum = 0.02175 (at node 12)
Injected packet length average = 1
Accepted packet length average = 1
Total in-flight flits = 7 (7 measured)
latency change    = 0.000846243
throughput change = 0.0202703
Draining all recorded packets ...
Draining remaining packets ...
Time taken is 7053 cycles
Class 0:
Packet latency average = 19.8012
	minimum = 7
	maximum = 38
Network latency average = 19.8012
	minimum = 7
	maximum = 38
Slowest packet = 4249
Flit latency average = 19.8012
	minimum = 7
	maximum = 38
Slowest flit = 4249
Fragmentation average = 0
	minimum = 0
	maximum = 0
Injected packet rate average = 0.020875
	minimum = 0.011 (at node 1)
	maximum = 0.028 (at node 8)
Accepted packet rate average = 0.0204375
	minimum = 0.014 (at node 8)
	maximum = 0.024 (at node 7)
Injected flit rate average = 0.020875
	minimum = 0.011 (at node 1)
	maximum = 0.028 (at node 8)
Accepted flit rate average= 0.0204375
	minimum = 0.014 (at node 8)
	maximum = 0.024 (at node 7)
Injected packet length average = 1
Accepted packet length average = 1
Total in-flight flits = 7 (0 measured)
latency change    = 1
throughput change = 1
Class 0:
Packet latency average = 19.8862
	minimum = 7
	maximum = 38
Network latency average = 19.8862
	minimum = 7
	maximum = 38
Slowest packet = 4249
Flit latency average = 19.8862
	minimum = 7
	maximum = 38
Slowest flit = 4249
Fragmentation average = 0
	minimum = 0
	maximum = 0
Injected packet rate average = 0.0195
	minimum = 0.0135 (at node 5)
	maximum = 0.025 (at node 2)
Accepted packet rate average = 0.0192187
	minimum = 0.0155 (at node 8)
	maximum = 0.0225 (at node 12)
Injected flit rate average = 0.0195
	minimum = 0.0135 (at node 5)
	maximum = 0.025 (at node 2)
Accepted flit rate average= 0.0192187
	minimum = 0.0155 (at node 8)
	maximum = 0.0225 (at node 12)
Injected packet length average = 1
Accepted packet length average = 1
Total in-flight flits = 9 (0 measured)
latency change    = 0.00427209
throughput change = 0.0634146
Class 0:
Packet latency average = 19.2401
	minimum = 7
	maximum = 38
Network latency average = 19.2401
	minimum = 7
	maximum = 38
Slowest packet = 4953
Flit latency average = 19.2401
	minimum = 7
	maximum = 38
Slowest flit = 4953
Fragmentation average = 0
	minimum = 0
	maximum = 0
Injected packet rate average = 0.0189375
	minimum = 0.015 (at node 6)
	maximum = 0.022 (at node 7)
Accepted packet rate average = 0.019
	minimum = 0.012 (at node 13)
	maximum = 0.033 (at node 0)
Injected flit rate average = 0.0189375
	minimum = 0.015 (at node 6)
	maximum = 0.022 (at node 7)
Accepted flit rate average= 0.019
	minimum = 0.012 (at node 13)
	maximum = 0.033 (at node 0)
Injected packet length average = 1
Accepted packet length average = 1
Total in-flight flits = 8 (0 measured)
latency change    = 0.0335781
throughput change = 0.0115132
Warmed up ...Time used is 3000 cycles
Class 0:
Packet latency average = 19.7342
	minimum = 7
	maximum = 37
Network latency average = 19.7342
	minimum = 7
	maximum = 37
Slowest packet = 5209
Flit latency average = 19.8673
	minimum = 7
	maximum = 37
Slowest flit = 5209
Fragmentation average = 0
	minimum = 0
	maximum = 0
Injected packet rate average = 0.02
	minimum = 0.013 (at node 14)
	maximum = 0.026 (at node 15)
Accepted packet rate average = 0.02025
	minimum = 0.013 (at node 13)
	maximum = 0.03 (at node 5)
Injected flit rate average = 0.02
	minimum = 0.013 (at node 14)
	maximum = 0.026 (at node 15)
Accepted flit rate average= 0.02025
	minimum = 0.013 (at node 13)
	maximum = 0.03 (at node 5)
Injected packet length average = 1
Accepted packet length average = 1
Total in-flight flits = 4 (4 measured)
latency change    = 0.025035
throughput change = 0.0617284
Class 0:
Packet latency average = 20.1622
	minimum = 7
	maximum = 38
Network latency average = 20.1622
	minimum = 7
	maximum = 38
Slowest packet = 5466
Flit latency average = 20.224
	minimum = 7
	maximum = 38
Slowest flit = 5466
Fragmentation average = 0
	minimum = 0
	maximum = 0
Injected packet rate average = 0.0200313
	minimum = 0.016 (at node 1)
	maximum = 0.027 (at node 15)
Accepted packet rate average = 0.0200938
	minimum = 0.017 (at node 13)
	maximum = 0.026 (at node 5)
Injected flit rate average = 0.0200313
	minimum = 0.016 (at node 1)
	maximum = 0.027 (at node 15)
Accepted flit rate average= 0.0200938
	minimum = 0.017 (at node 13)
	maximum = 0.026 (at node 5)
Injected packet length average = 1
Accepted packet length average = 1
Total in-flight flits = 6 (6 measured)
latency change    = 0.0212292
throughput change = 0.00777605
Class 0:
Packet latency average = 19.9508
	minimum = 7
	maximum = 38
Network latency average = 19.9508
	minimum = 7
	maximum = 38
Slowest packet = 5466
Flit latency average = 19.9929
	minimum = 7
	maximum = 38
Slowest flit = 5466
Fragmentation average = 0
	minimum = 0
	maximum = 0
Injected packet rate average = 0.0204792
	minimum = 0.015 (at node 2)
	maximum = 0.025 (at node 15)
Accepted packet rate average = 0.0205
	minimum = 0.0183333 (at node 9)
	maximum = 0.0236667 (at node 5)
Injected flit rate average = 0.0204792
	minimum = 0.015 (at node 2)
	maximum = 0.025 (at node 15)
Accepted flit rate average= 0.0205
	minimum = 0.0183333 (at node 9)
	maximum = 0.0236667 (at node 5)
Injected packet length average = 1
Accepted packet length average = 1
Total in-flight flits = 7 (7 measured)
latency change    = 0.0105953
throughput change = 0.0198171
Class 0:
Packet latency average = 19.8229
	minimum = 7
	maximum = 38
Network latency average = 19.8229
	minimum = 7
	maximum = 38
Slowest packet = 5466
Flit latency average = 19.8554
	minimum = 7
	maximum = 38
Slowest flit = 5466
Fragmentation average = 0
	minimum = 0
	maximum = 0
Injected packet rate average = 0.020375
	minimum = 0.0165 (at node 2)
	maximum = 0.02275 (at node 9)
Accepted packet rate average = 0.0204219
	minimum = 0.01825 (at node 9)
	maximum = 0.02425 (at node 5)
Injected flit rate average = 0.020375
	minimum = 0.0165 (at node 2)
	maximum = 0.02275 (at node 9)
Accepted flit rate average= 0.0204219
	minimum = 0.01825 (at node 9)
	maximum = 0.02425 (at node 5)
Injected packet length average = 1
Accepted packet length average = 1
Total in-flight flits = 5 (5 measured)
latency change    = 0.00645106
throughput change = 0.00382555
Draining all recorded packets ...
Draining remaining packets ...
Time taken is 7052 cycles
Class 0:
Packet latency average = 19.0031
	minimum = 7
	maximum = 38
Network latency average = 19.0031
	minimum = 7
	maximum = 38
Slowest packet = 6577
Flit latency average = 19.0031
	minimum = 7
	maximum = 38
Slowest flit = 6577
Fragmentation average = 0
	minimum = 0
	maximum = 0
Injected packet rate average = 0.0201875
	minimum = 0.011 (at node 7)
	maximum = 0.029 (at node 1)
Accepted packet rate average = 0.02
	minimum = 0.011 (at node 7)
	maximum = 0.028 (at node 5)
Injected flit rate average = 0.0201875
	minimum = 0.011 (at node 7)
	maximum = 0.029 (at node 1)
Accepted flit rate average= 0.02
	minimum = 0.011 (at node 7)
	maximum = 0.028 (at node 5)
Injected packet length average = 1
Accepted packet length average = 1
Total in-flight flits = 3 (0 measured)
latency change    = 1
throughput change = 1
Class 0:
Packet latency average = 19.3175
	minimum = 7
	maximum = 42
Network latency average = 19.3175
	minimum = 7
	maximum = 42
Slowest packet = 6901
Flit latency average = 19.3175
	minimum = 7
	maximum = 42
Slowest flit = 6901
Fragmentation average = 0
	minimum = 0
	maximum = 0
Injected packet rate average = 0.0205313
	minimum = 0.0145 (at node 7)
	maximum = 0.0275 (at node 4)
Accepted packet rate average = 0.020375
	minimum = 0.015 (at node 7)
	maximum = 0.024 (at node 1)
Injected flit rate average = 0.0205313
	minimum = 0.0145 (at node 7)
	maximum = 0.0275 (at node 4)
Accepted flit rate average= 0.020375
	minimum = 0.015 (at node 7)
	maximum = 0.024 (at node 1)
Injected packet length average = 1
Accepted packet length average = 1
Total in-flight flits = 5 (0 measured)
latency change    = 0.0162733
throughput change = 0.0184049
Class 0:
Packet latency average = 19.5974
	minimum = 7
	maximum = 37
Network latency average = 19.5974
	minimum = 7
	maximum = 37
Slowest packet = 7013
Flit latency average = 19.5974
	minimum = 7
	maximum = 37
Slowest flit = 7013
Fragmentation average = 0
	minimum = 0
	maximum = 0
Injected packet rate average = 0.018875
	minimum = 0.013 (at node 7)
	maximum = 0.026 (at node 15)
Accepted packet rate average = 0.0189375
	minimum = 0.011 (at node 8)
	maximum = 0.032 (at node 12)
Injected flit rate average = 0.018875
	minimum = 0.013 (at node 7)
	maximum = 0.026 (at node 15)
Accepted flit rate average= 0.0189375
	minimum = 0.011 (at node 8)
	maximum = 0.032 (at node 12)
Injected packet length average = 1
Accepted packet length average = 1
Total in-flight flits = 4 (0 measured)
latency change    = 0.0142813
throughput change = 0.0759076
Warmed up ...Time used is 3000 cycles
Class 0:
Packet latency average = 19.6635
	minimum = 7
	maximum = 37
Network latency average = 19.6635
	minimum = 7
	maximum = 37
Slowest packet = 7458
Flit latency average = 19.7085
	minimum = 7
	maximum = 37
Slowest flit = 7458
Fragmentation average = 0
	minimum = 0
	maximum = 0
Injected packet rate average = 0.0200625
	minimum = 0.011 (at node 9)
	maximum = 0.027 (at node 11)
Accepted packet rate average = 0.0199375
	minimum = 0.011 (at node 15)
	maximum = 0.027 (at node 5)
Injected flit rate average = 0.0200625
	minimum = 0.011 (at node 9)
	maximum = 0.027 (at node 11)
Accepted flit rate average= 0.0199375
	minimum = 0.011 (at node 15)
	maximum = 0.027 (at node 5)
Injected packet length average = 1
Accepted packet length average = 1
Total in-flight flits = 6 (6 measured)
latency change    = 0.0033632
throughput change = 0.0501567
Class 0:
Packet latency average = 19.6335
	minimum = 7
	maximum = 37
Network latency average = 19.6335
	minimum = 7
	maximum = 37
Slowest packet = 7458
Flit latency average = 19.6562
	minimum = 7
	maximum = 37
Slowest flit = 7458
Fragmentation average = 0
	minimum = 0
	maximum = 0
Injected packet rate average = 0.020125
	minimum = 0.0155 (at node 9)
	maximum = 0.026 (at node 6)
Accepted packet rate average = 0.0199063
	minimum = 0.015 (at node 15)
	maximum = 0.026 (at node 2)
Injected flit rate average = 0.020125
	minimum = 0.0155 (at node 9)
	maximum = 0.026 (at node 6)
Accepted flit rate average= 0.0199063
	minimum = 0.015 (at node 15)
	maximum = 0.026 (at node 2)
Injected packet length average = 1
Accepted packet length average = 1
Total in-flight flits = 11 (11 measured)
latency change    = 0.00152804
throughput change = 0.00156986
Class 0:
Packet latency average = 19.5353
	minimum = 7
	maximum = 37
Network latency average = 19.5353
	minimum = 7
	maximum = 37
Slowest packet = 7458
Flit latency average = 19.5507
	minimum = 7
	maximum = 37
Slowest flit = 7458
Fragmentation average = 0
	minimum = 0
	maximum = 0
Injected packet rate average = 0.0201458
	minimum = 0.0173333 (at node 3)
	maximum = 0.0243333 (at node 6)
Accepted packet rate average = 0.020125
	minimum = 0.014 (at node 15)
	maximum = 0.024 (at node 8)
Injected flit rate average = 0.0201458
	minimum = 0.0173333 (at node 3)
	maximum = 0.0243333 (at node 6)
Accepted flit rate average= 0.020125
	minimum = 0.014 (at node 15)
	maximum = 0.024 (at node 8)
Injected packet length average = 1
Accepted packet length average = 1
Total in-flight flits = 5 (5 measured)
latency change    = 0.00502414
throughput change = 0.0108696
Class 0:
Packet latency average = 19.5066
	minimum = 7
	maximum = 37
Network latency average = 19.5066
	minimum = 7
	maximum = 37
Slowest packet = 7458
Flit latency average = 19.5181
	minimum = 7
	maximum = 37
Slowest flit = 7458
Fragmentation average = 0
	minimum = 0
	maximum = 0
Injected packet rate average = 0.0203438
	minimum = 0.01725 (at node 3)
	maximum = 0.0235 (at node 6)
Accepted packet rate average = 0.0202969
	minimum = 0.01625 (at node 15)
	maximum = 0.02375 (at node 0)
Injected flit rate average = 0.0203438
	minimum = 0.01725 (at node 3)
	maximum = 0.0235 (at node 6)
Accepted flit rate average= 0.0202969
	minimum = 0.01625 (at node 15)
	maximum = 0.02375 (at node 0)
Injected packet length average = 1
Accepted packet length average = 1
Total in-flight flits = 7 (7 measured)
latency change    = 0.00147537
throughput change = 0.00846805
Draining all recorded packets ...
Draining remaining packets ...
Time taken is 7045 cycles
Class 0:
Packet latency average = 19.1287
	minimum = 7
	maximum = 37
Network latency average = 19.1287
	minimum = 7
	maximum = 37
Slowest packet = 8902
Flit latency average = 19.1287
	minimum = 7
	maximum = 37
Slowest flit = 8902
Fragmentation average = 0
	minimum = 0
	maximum = 0
Injected packet rate average = 0.01925
	minimum = 0.011 (at node 0)
	maximum = 0.026 (at node 5)
Accepted packet rate average = 0.0189375
	minimum = 0.012 (at node 13)
	maximum = 0.025 (at node 1)
Injected flit rate average = 0.01925
	minimum = 0.011 (at node 0)
	maximum = 0.026 (at node 5)
Accepted flit rate average= 0.0189375
	minimum = 0.012 (at node 13)
	maximum = 0.025 (at node 1)
Injected packet length average = 1
Accepted packet length average = 1
Total in-flight flits = 5 (0 measured)
latency change    = 1
throughput change = 1
Class 0:
Packet latency average = 19.2215
	minimum = 7
	maximum = 38
Network latency average = 19.2215
	minimum = 7
	maximum = 38
Slowest packet = 9059
Flit latency average = 19.2215
	minimum = 7
	maximum = 38
Slowest flit = 9059
Fragmentation average = 0
	minimum = 0
	maximum = 0
Injected packet rate average = 0.0199063
	minimum = 0.015 (at node 13)
	maximum = 0.025 (at node 5)
Accepted packet rate average = 0.01975
	minimum = 0.016 (at node 6)
	maximum = 0.024 (at node 5)
Injected flit rate average = 0.0199063
	minimum = 0.015 (at node 13)
	maximum = 0.025 (at node 5)
Accepted flit rate average= 0.01975
	minimum = 0.016 (at node 6)
	maximum = 0.024 (at node 5)
Injected packet length average = 1
Accepted packet length average = 1
Total in-flight flits = 5 (0 measured)
latency change    = 0.00482824
throughput change = 0.0411392
Class 0:
Packet latency average = 19.8457
	minimum = 7
	maximum = 37
Network latency average = 19.8457
	minimum = 7
	maximum = 37
Slowest packet = 9253
Flit latency average = 19.8457
	minimum = 7
	maximum = 37
Slowest flit = 9253
Fragmentation average = 0
	minimum = 0
	maximum = 0
Injected packet rate average = 0.0200625
	minimum = 0.013 (at node 9)
	maximum = 0.028 (at node 7)
Accepted packet rate average = 0.02025
	minimum = 0.011 (at node 9)
	maximum = 0.03 (at node 12)
Injected flit rate average = 0.0200625
	minimum = 0.013 (at node 9)
	maximum = 0.028 (at node 7)
Accepted flit rate average= 0.02025
	minimum = 0.011 (at node 9)
	maximum = 0.03 (at node 12)
Injected packet length average = 1
Accepted packet length average = 1
Total in-flight flits = 2 (0 measured)
latency change    = 0.0314507
throughput change = 0.0246914
Warmed up ...Time used is 3000 cycles
Class 0:
Packet latency average = 19.118
	minimum = 7
	maximum = 37
Network latency average = 19.118
	minimum = 7
	maximum = 37
Slowest packet = 9719
Flit latency average = 19.1512
	minimum = 7
	maximum = 37
Slowest flit = 9719
Fragmentation average = 0
	minimum = 0
	maximum = 0
Injected packet rate average = 0.020625
	minimum = 0.013 (at node 11)
	maximum = 0.034 (at node 5)
Accepted packet rate average = 0.02025
	minimum = 0.015 (at node 1)
	maximum = 0.03 (at node 0)
Injected flit rate average = 0.020625
	minimum = 0.013 (at node 11)
	maximum = 0.034 (at node 5)
Accepted flit rate average= 0.02025
	minimum = 0.015 (at node 1)
	maximum = 0.03 (at node 0)
Injected packet length average = 1
Accepted packet length average = 1
Total in-flight flits = 8 (8 measured)
latency change    = 0.0380618
throughput change = 0
Class 0:
Packet latency average = 19.2627
	minimum = 7
	maximum = 37
Network latency average = 19.2627
	minimum = 7
	maximum = 37
Slowest packet = 9719
Flit latency average = 19.2794
	minimum = 7
	maximum = 37
Slowest flit = 9719
Fragmentation average = 0
	minimum = 0
	maximum = 0
Injected packet rate average = 0.02
	minimum = 0.012 (at node 4)
	maximum = 0.0275 (at node 6)
Accepted packet rate average = 0.0196875
	minimum = 0.0145 (at node 10)
	maximum = 0.027 (at node 0)
Injected flit rate average = 0.02
	minimum = 0.012 (at node 4)
	maximum = 0.0275 (at node 6)
Accepted flit rate average= 0.0196875
	minimum = 0.0145 (at node 10)
	maximum = 0.027 (at node 0)
Injected packet length average = 1
Accepted packet length average = 1
Total in-flight flits = 12 (12 measured)
latency change    = 0.00751328
throughput change = 0.0285714
Class 0:
Packet latency average = 19.4474
	minimum = 7
	maximum = 37
Network latency average = 19.4474
	minimum = 7
	maximum = 37
Slowest packet = 9719
Flit latency average = 19.4576
	minimum = 7
	maximum = 37
Slowest flit = 9719
Fragmentation average = 0
	minimum = 0
	maximum = 0
Injected packet rate average = 0.0207083
	minimum = 0.0143333 (at node 3)
	maximum = 0.026 (at node 6)
Accepted packet rate average = 0.020625
	minimum = 0.017 (at node 1)
	maximum = 0.025 (at node 0)
Injected flit rate average = 0.0207083
	minimum = 0.0143333 (at node 3)
	maximum = 0.026 (at node 6)
Accepted flit rate average= 0.020625
	minimum = 0.017 (at node 1)
	maximum = 0.025 (at node 0)
Injected packet length average = 1
Accepted packet length average = 1
Total in-flight flits = 6 (6 measured)
latency change    = 0.00949381
throughput change = 0.0454545
Draining all recorded packets ...
Draining remaining packets ...
Time taken is 6058 cycles
Class 0:
Packet latency average = 19.9484
	minimum = 7
	maximum = 37
Network latency average = 19.9484
	minimum = 7
	maximum = 37
Slowest packet = 10611
Flit latency average = 19.9484
	minimum = 7
	maximum = 37
Slowest flit = 10611
Fragmentation average = 0
	minimum = 0
	maximum = 0
Injected packet rate average = 0.0196875
	minimum = 0.013 (at node 8)
	maximum = 0.034 (at node 14)
Accepted packet rate average = 0.019375
	minimum = 0.01 (at node 1)
	maximum = 0.029 (at node 3)
Injected flit rate average = 0.0196875
	minimum = 0.013 (at node 8)
	maximum = 0.034 (at node 14)
Accepted flit rate average= 0.019375
	minimum = 0.01 (at node 1)
	maximum = 0.029 (at node 3)
Injected packet length average = 1
Accepted packet length average = 1
Total in-flight flits = 5 (0 measured)
latency change    = 1
throughput change = 1
Class 0:
Packet latency average = 19.6931
	minimum = 7
	maximum = 38
Network latency average = 19.6931
	minimum = 7
	maximum = 38
Slowest packet = 11078
Flit latency average = 19.6931
	minimum = 7
	maximum = 38
Slowest flit = 11078
Fragmentation average = 0
	minimum = 0
	maximum = 0
Injected packet rate average = 0.0207188
	minimum = 0.015 (at node 3)
	maximum = 0.029 (at node 14)
Accepted packet rate average = 0.0204688
	minimum = 0.016 (at node 2)
	maximum = 0.0255 (at node 8)
Injected flit rate average = 0.0207188
	minimum = 0.015 (at node 3)
	maximum = 0.029 (at node 14)
Accepted flit rate average= 0.0204688
	minimum = 0.016 (at node 2)
	maximum = 0.0255 (at node 8)
Injected packet length average = 1
Accepted packet length average = 1
Total in-flight flits = 8 (0 measured)
latency change    = 0.0129617
throughput change = 0.0534351
Class 0:
Packet latency average = 19.4559
	minimum = 7
	maximum = 37
Network latency average = 19.4559
	minimum = 7
	maximum = 37
Slowest packet = 11261
Flit latency average = 19.4559
	minimum = 7
	maximum = 37
Slowest flit = 11261
Fragmentation average = 0
	minimum = 0
	maximum = 0
Injected packet rate average = 0.020625
	minimum = 0.014 (at node 14)
	maximum = 0.031 (at node 13)
Accepted packet rate average = 0.0205625
	minimum = 0.012 (at node 10)
	maximum = 0.029 (at node 2)
Injected flit rate average = 0.020625
	minimum = 0.014 (at node 14)
	maximum = 0.031 (at node 13)
Accepted flit rate average= 0.0205625
	minimum = 0.012 (at node 10)
	maximum = 0.029 (at node 2)
Injected packet length average = 1
Accepted packet length average = 1
Total in-flight flits = 9 (0 measured)
latency change    = 0.0121918
throughput change = 0.00455927
Warmed up ...Time used is 3000 cycles
Class 0:
Packet latency average = 19.6166
	minimum = 7
	maximum = 37
Network latency average = 19.6166
	minimum = 7
	maximum = 37
Slowest packet = 11672
Flit latency average = 19.6507
	minimum = 7
	maximum = 37
Slowest flit = 11672
Fragmentation average = 0
	minimum = 0
	maximum = 0
Injected packet rate average = 0.0209375
	minimum = 0.012 (at node 1)
	maximum = 0.03 (at node 8)
Accepted packet rate average = 0.0209375
	minimum = 0.014 (at node 6)
	maximum = 0.033 (at node 14)
Injected flit rate average = 0.0209375
	minimum = 0.012 (at node 1)
	maximum = 0.03 (at node 8)
Accepted flit rate average= 0.0209375
	minimum = 0.014 (at node 6)
	maximum = 0.033 (at node 14)
Injected packet length average = 1
Accepted packet length average = 1
Total in-flight flits = 9 (9 measured)
latency change    = 0.00818886
throughput change = 0.0179104
Class 0:
Packet latency average = 19.7461
	minimum = 7
	maximum = 37
Network latency average = 19.7461
	minimum = 7
	maximum = 37
Slowest packet = 11672
Flit latency average = 19.7621
	minimum = 7
	maximum = 37
Slowest flit = 11672
Fragmentation average = 0
	minimum = 0
	maximum = 0
Injected packet rate average = 0.0199375
	minimum = 0.0155 (at node 1)
	maximum = 0.0255 (at node 11)
Accepted packet rate average = 0.0200938
	minimum = 0.014 (at node 6)
	maximum = 0.0265 (at node 3)
Injected flit rate average = 0.0199375
	minimum = 0.0155 (at node 1)
	maximum = 0.0255 (at node 11)
Accepted flit rate average= 0.0200938
	minimum = 0.014 (at node 6)
	maximum = 0.0265 (at node 3)
Injected packet length average = 1
Accepted packet length average = 1
Total in-flight flits = 4 (4 measured)
latency change    = 0.00655788
throughput change = 0.0419907
Class 0:
Packet latency average = 19.6373
	minimum = 7
	maximum = 37
Network latency average = 19.6373
	minimum = 7
	maximum = 37
Slowest packet = 11672
Flit latency average = 19.6494
	minimum = 7
	maximum = 37
Slowest flit = 11672
Fragmentation average = 0
	minimum = 0
	maximum = 0
Injected packet rate average = 0.01925
	minimum = 0.016 (at node 6)
	maximum = 0.023 (at node 11)
Accepted packet rate average = 0.0193125
	minimum = 0.0156667 (at node 15)
	maximum = 0.023 (at node 3)
Injected flit rate average = 0.01925
	minimum = 0.016 (at node 6)
	maximum = 0.023 (at node 11)
Accepted flit rate average= 0.0193125
	minimum = 0.0156667 (at node 15)
	maximum = 0.023 (at node 3)
Injected packet length average = 1
Accepted packet length average = 1
Total in-flight flits = 6 (6 measured)
latency change    = 0.00554059
throughput change = 0.0404531
Draining all recorded packets ...
Draining remaining packets ...
Time taken is 6047 cycles
Class 0:
Packet latency average = 20.2908
	minimum = 7
	maximum = 44
Network latency average = 20.2908
	minimum = 7
	maximum = 44
Slowest packet = 12661
Flit latency average = 20.2908
	minimum = 7
	maximum = 44
Slowest flit = 12661
Fragmentation average = 0
	minimum = 0
	maximum = 0
Injected packet rate average = 0.0196875
	minimum = 0.011 (at node 5)
	maximum = 0.028 (at node 7)
Accepted packet rate average = 0.019125
	minimum = 0.01 (at node 5)
	maximum = 0.027 (at node 2)
Injected flit rate average = 0.0196875
	minimum = 0.011 (at node 5)
	maximum = 0.028 (at node 7)
Accepted flit rate average= 0.019125
	minimum = 0.01 (at node 5)
	maximum = 0.027 (at node 2)
Injected packet length average = 1
Accepted packet length average = 1
Total in-flight flits = 9 (0 measured)
latency change    = 1
throughput change = 1
Class 0:
Packet latency average = 19.5463
	minimum = 7
	maximum = 44
Network latency average = 19.5463
	minimum = 7
	maximum = 44
Slowest packet = 12661
Flit latency average = 19.5463
	minimum = 7
	maximum = 44
Slowest flit = 12661
Fragmentation average = 0
	minimum = 0
	maximum = 0
Injected packet rate average = 0.019875
	minimum = 0.0145 (at node 14)
	maximum = 0.0265 (at node 0)
Accepted packet rate average = 0.0195625
	minimum = 0.0145 (at node 5)
	maximum = 0.0235 (at node 6)
Injected flit rate average = 0.019875
	minimum = 0.0145 (at node 14)
	maximum = 0.0265 (at node 0)
Accepted flit rate average= 0.0195625
	minimum = 0.0145 (at node 5)
	maximum = 0.0235 (at node 6)
Injected packet length average = 1
Accepted packet length average = 1
Total in-flight flits = 10 (0 measured)
latency change    = 0.0380902
throughput change = 0.0223642
Class 0:
Packet latency average = 19.5339
	minimum = 7
	maximum = 37
Network latency average = 19.5339
	minimum = 7
	maximum = 37
Slowest packet = 13130
Flit latency average = 19.5339
	minimum = 7
	maximum = 37
Slowest flit = 13130
Fragmentation average = 0
	minimum = 0
	maximum = 0
Injected packet rate average = 0.023
	minimum = 0.016 (at node 12)
	maximum = 0.03 (at node 0)
Accepted packet rate average = 0.0230625
	minimum = 0.016 (at node 2)
	maximum = 0.034 (at node 10)
Injected flit rate average = 0.023
	minimum = 0.016 (at node 12)
	maximum = 0.03 (at node 0)
Accepted flit rate average= 0.0230625
	minimum = 0.016 (at node 2)
	maximum = 0.034 (at node 10)
Injected packet length average = 1
Accepted packet length average = 1
Total in-flight flits = 9 (0 measured)
latency change    = 0.000637382
throughput change = 0.151762
Warmed up ...Time used is 3000 cycles
Class 0:
Packet latency average = 18.882
	minimum = 7
	maximum = 32
Network latency average = 18.882
	minimum = 7
	maximum = 32
Slowest packet = 13509
Flit latency average = 18.9427
	minimum = 7
	maximum = 32
Slowest flit = 13509
Fragmentation average = 0
	minimum = 0
	maximum = 0
Injected packet rate average = 0.0193125
	minimum = 0.008 (at node 12)
	maximum = 0.029 (at node 7)
Accepted packet rate average = 0.019625
	minimum = 0.01 (at node 15)
	maximum = 0.029 (at node 6)
Injected flit rate average = 0.0193125
	minimum = 0.008 (at node 12)
	maximum = 0.029 (at node 7)
Accepted flit rate average= 0.019625
	minimum = 0.01 (at node 15)
	maximum = 0.029 (at node 6)
Injected packet length average = 1
Accepted packet length average = 1
Total in-flight flits = 4 (4 measured)
latency change    = 0.0345254
throughput change = 0.175159
Class 0:
Packet latency average = 19.2614
	minimum = 7
	maximum = 37
Network latency average = 19.2614
	minimum = 7
	maximum = 37
Slowest packet = 13835
Flit latency average = 19.2857
	minimum = 7
	maximum = 37
Slowest flit = 13835
Fragmentation average = 0
	minimum = 0
	maximum = 0
Injected packet rate average = 0.0200625
	minimum = 0.0145 (at node 12)
	maximum = 0.0275 (at node 8)
Accepted packet rate average = 0.020125
	minimum = 0.0125 (at node 15)
	maximum = 0.0265 (at node 6)
Injected flit rate average = 0.0200625
	minimum = 0.0145 (at node 12)
	maximum = 0.0275 (at node 8)
Accepted flit rate average= 0.020125
	minimum = 0.0125 (at node 15)
	maximum = 0.0265 (at node 6)
Injected packet length average = 1
Accepted packet length average = 1
Total in-flight flits = 7 (7 measured)
latency change    = 0.0197
throughput change = 0.0248447
Class 0:
Packet latency average = 19.2997
	minimum = 7
	maximum = 37
Network latency average = 19.2997
	minimum = 7
	maximum = 37
Slowest packet = 13835
Flit latency average = 19.3158
	minimum = 7
	maximum = 37
Slowest flit = 13835
Fragmentation average = 0
	minimum = 0
	maximum = 0
Injected packet rate average = 0.0196875
	minimum = 0.0143333 (at node 12)
	maximum = 0.0256667 (at node 8)
Accepted packet rate average = 0.0197917
	minimum = 0.014 (at node 15)
	maximum = 0.0253333 (at node 4)
Injected flit rate average = 0.0196875
	minimum = 0.0143333 (at node 12)
	maximum = 0.0256667 (at node 8)
Accepted flit rate average= 0.0197917
	minimum = 0.014 (at node 15)
	maximum = 0.0253333 (at node 4)
Injected packet length average = 1
Accepted packet length average = 1
Total in-flight flits = 4 (4 measured)
latency change    = 0.00198262
throughput change = 0.0168421
Class 0:
Packet latency average = 19.3912
	minimum = 7
	maximum = 37
Network latency average = 19.3912
	minimum = 7
	maximum = 37
Slowest packet = 13835
Flit latency average = 19.4025
	minimum = 7
	maximum = 37
Slowest flit = 13835
Fragmentation average = 0
	minimum = 0
	maximum = 0
Injected packet rate average = 0.0200625
	minimum = 0.0155 (at node 12)
	maximum = 0.0255 (at node 8)
Accepted packet rate average = 0.0201094
	minimum = 0.016 (at node 15)
	maximum = 0.0245 (at node 11)
Injected flit rate average = 0.0200625
	minimum = 0.0155 (at node 12)
	maximum = 0.0255 (at node 8)
Accepted flit rate average= 0.0201094
	minimum = 0.016 (at node 15)
	maximum = 0.0245 (at node 11)
Injected packet length average = 1
Accepted packet length average = 1
Total in-flight flits = 6 (6 measured)
latency change    = 0.00472147
throughput change = 0.015799
Draining all recorded packets ...
Draining remaining packets ...
Time taken is 7060 cycles
Class 0:
Packet latency average = 18.9571
	minimum = 7
	maximum = 37
Network latency average = 18.9571
	minimum = 7
	maximum = 37
Slowest packet = 14942
Flit latency average = 18.9571
	minimum = 7
	maximum = 37
Slowest flit = 14942
Fragmentation average = 0
	minimum = 0
	maximum = 0
Injected packet rate average = 0.019375
	minimum = 0.013 (at node 3)
	maximum = 0.029 (at node 10)
Accepted packet rate average = 0.0189375
	minimum = 0.012 (at node 13)
	maximum = 0.024 (at node 1)
Injected flit rate average = 0.019375
	minimum = 0.013 (at node 3)
	maximum = 0.029 (at node 10)
Accepted flit rate average= 0.0189375
	minimum = 0.012 (at node 13)
	maximum = 0.024 (at node 1)
Injected packet length average = 1
Accepted packet length average = 1
Total in-flight flits = 7 (0 measured)
latency change    = 1
throughput change = 1
Class 0:
Packet latency average = 19.6116
	minimum = 7
	maximum = 37
Network latency average = 19.6116
	minimum = 7
	maximum = 37
Slowest packet = 14942
Flit latency average = 19.6116
	minimum = 7
	maximum = 37
Slowest flit = 14942
Fragmentation average = 0
	minimum = 0
	maximum = 0
Injected packet rate average = 0.0189375
	minimum = 0.012 (at node 1)
	maximum = 0.026 (at node 9)
Accepted packet rate average = 0.0189062
	minimum = 0.012 (at node 13)
	maximum = 0.023 (at node 2)
Injected flit rate average = 0.0189375
	minimum = 0.012 (at node 1)
	maximum = 0.026 (at node 9)
Accepted flit rate average= 0.0189062
	minimum = 0.012 (at node 13)
	maximum = 0.023 (at node 2)
Injected packet length average = 1
Accepted packet length average = 1
Total in-flight flits = 1 (0 measured)
latency change    = 0.0333719
throughput change = 0.00165289
Class 0:
Packet latency average = 19.8271
	minimum = 7
	maximum = 37
Network latency average = 19.8271
	minimum = 7
	maximum = 37
Slowest packet = 15423
Flit latency average = 19.8271
	minimum = 7
	maximum = 37
Slowest flit = 15423
Fragmentation average = 0
	minimum = 0
	maximum = 0
Injected packet rate average = 0.01875
	minimum = 0.008 (at node 8)
	maximum = 0.027 (at node 6)
Accepted packet rate average = 0.0184375
	minimum = 0.012 (at node 7)
	maximum = 0.024 (at node 13)
Injected flit rate average = 0.01875
	minimum = 0.008 (at node 8)
	maximum = 0.027 (at node 6)
Accepted flit rate average= 0.0184375
	minimum = 0.012 (at node 7)
	maximum = 0.024 (at node 13)
Injected packet length average = 1
Accepted packet length average = 1
Total in-flight flits = 6 (0 measured)
latency change    = 0.0108714
throughput change = 0.0254237
Warmed up ...Time used is 3000 cycles
Class 0:
Packet latency average = 20.1965
	minimum = 7
	maximum = 37
Network latency average = 20.1965
	minimum = 7
	maximum = 37
Slowest packet = 15715
Flit latency average = 20.1306
	minimum = 7
	maximum = 37
Slowest flit = 15715
Fragmentation average = 0
	minimum = 0
	maximum = 0
Injected packet rate average = 0.01825
	minimum = 0.014 (at node 11)
	maximum = 0.025 (at node 4)
Accepted packet rate average = 0.0181875
	minimum = 0.013 (at node 14)
	maximum = 0.025 (at node 5)
Injected flit rate average = 0.01825
	minimum = 0.014 (at node 11)
	maximum = 0.025 (at node 4)
Accepted flit rate average= 0.0181875
	minimum = 0.013 (at node 14)
	maximum = 0.025 (at node 5)
Injected packet length average = 1
Accepted packet length average = 1
Total in-flight flits = 7 (7 measured)
latency change    = 0.0182889
throughput change = 0.0137457
Class 0:
Packet latency average = 20.024
	minimum = 7
	maximum = 37
Network latency average = 20.024
	minimum = 7
	maximum = 37
Slowest packet = 15715
Flit latency average = 19.9952
	minimum = 7
	maximum = 37
Slowest flit = 15715
Fragmentation average = 0
	minimum = 0
	maximum = 0
Injected packet rate average = 0.0196875
	minimum = 0.012 (at node 9)
	maximum = 0.0265 (at node 13)
Accepted packet rate average = 0.0197188
	minimum = 0.0165 (at node 2)
	maximum = 0.0265 (at node 5)
Injected flit rate average = 0.0196875
	minimum = 0.012 (at node 9)
	maximum = 0.0265 (at node 13)
Accepted flit rate average= 0.0197188
	minimum = 0.0165 (at node 2)
	maximum = 0.0265 (at node 5)
Injected packet length average = 1
Accepted packet length average = 1
Total in-flight flits = 5 (5 measured)
latency change    = 0.00861422
throughput change = 0.0776545
Class 0:
Packet latency average = 20.0095
	minimum = 7
	maximum = 37
Network latency average = 20.0095
	minimum = 7
	maximum = 37
Slowest packet = 15715
Flit latency average = 19.9906
	minimum = 7
	maximum = 37
Slowest flit = 15715
Fragmentation average = 0
	minimum = 0
	maximum = 0
Injected packet rate average = 0.0198958
	minimum = 0.0143333 (at node 9)
	maximum = 0.0246667 (at node 3)
Accepted packet rate average = 0.019875
	minimum = 0.018 (at node 8)
	maximum = 0.0246667 (at node 5)
Injected flit rate average = 0.0198958
	minimum = 0.0143333 (at node 9)
	maximum = 0.0246667 (at node 3)
Accepted flit rate average= 0.019875
	minimum = 0.018 (at node 8)
	maximum = 0.0246667 (at node 5)
Injected packet length average = 1
Accepted packet length average = 1
Total in-flight flits = 7 (7 measured)
latency change    = 0.000724972
throughput change = 0.00786164
Class 0:
Packet latency average = 19.7361
	minimum = 7
	maximum = 37
Network latency average = 19.7361
	minimum = 7
	maximum = 37
Slowest packet = 15715
Flit latency average = 19.7232
	minimum = 7
	maximum = 37
Slowest flit = 15715
Fragmentation average = 0
	minimum = 0
	maximum = 0
Injected packet rate average = 0.01975
	minimum = 0.01625 (at node 6)
	maximum = 0.02525 (at node 3)
Accepted packet rate average = 0.0198125
	minimum = 0.01775 (at node 2)
	maximum = 0.02475 (at node 5)
Injected flit rate average = 0.01975
	minimum = 0.01625 (at node 6)
	maximum = 0.02525 (at node 3)
Accepted flit rate average= 0.0198125
	minimum = 0.01775 (at node 2)
	maximum = 0.02475 (at node 5)
Injected packet length average = 1
Accepted packet length average = 1
Total in-flight flits = 2 (2 measured)
latency change    = 0.0138508
throughput change = 0.00315457
Class 0:
Packet latency average = 19.6338
	minimum = 7
	maximum = 43
Network latency average = 19.6338
	minimum = 7
	maximum = 43
Slowest packet = 17022
Flit latency average = 19.6238
	minimum = 7
	maximum = 43
Slowest flit = 17022
Fragmentation average = 0
	minimum = 0
	maximum = 0
Injected packet rate average = 0.01975
	minimum = 0.0166 (at node 6)
	maximum = 0.0246 (at node 3)
Accepted packet rate average = 0.0197375
	minimum = 0.016 (at node 6)
	maximum = 0.0244 (at node 5)
Injected flit rate average = 0.01975
	minimum = 0.0166 (at node 6)
	maximum = 0.0246 (at node 3)
Accepted flit rate average= 0.0197375
	minimum = 0.016 (at node 6)
	maximum = 0.0244 (at node 5)
Injected packet length average = 1
Accepted packet length average = 1
Total in-flight flits = 7 (7 measured)
latency change    = 0.00521103
throughput change = 0.00379987
Draining all recorded packets ...
Draining remaining packets ...
Time taken is 8031 cycles
Class 0:
Packet latency average = 18.6806
	minimum = 7
	maximum = 37
Network latency average = 18.6806
	minimum = 7
	maximum = 37
Slowest packet = 17311
Flit latency average = 18.6806
	minimum = 7
	maximum = 37
Slowest flit = 17311
Fragmentation average = 0
	minimum = 0
	maximum = 0
Injected packet rate average = 0.018375
	minimum = 0.012 (at node 8)
	maximum = 0.028 (at node 12)
Accepted packet rate average = 0.018
	minimum = 0.011 (at node 7)
	maximum = 0.026 (at node 6)
Injected flit rate average = 0.018375
	minimum = 0.012 (at node 8)
	maximum = 0.028 (at node 12)
Accepted flit rate average= 0.018
	minimum = 0.011 (at node 7)
	maximum = 0.026 (at node 6)
Injected packet length average = 1
Accepted packet length average = 1
Total in-flight flits = 6 (0 measured)
latency change    = 1
throughput change = 1
Class 0:
Packet latency average = 19.0216
	minimum = 7
	maximum = 38
Network latency average = 19.0216
	minimum = 7
	maximum = 38
Slowest packet = 17718
Flit latency average = 19.0216
	minimum = 7
	maximum = 38
Slowest flit = 17718
Fragmentation average = 0
	minimum = 0
	maximum = 0
Injected packet rate average = 0.0190312
	minimum = 0.015 (at node 6)
	maximum = 0.0255 (at node 12)
Accepted packet rate average = 0.0187812
	minimum = 0.015 (at node 2)
	maximum = 0.0225 (at node 5)
Injected flit rate average = 0.0190312
	minimum = 0.015 (at node 6)
	maximum = 0.0255 (at node 12)
Accepted flit rate average= 0.0187812
	minimum = 0.015 (at node 2)
	maximum = 0.0225 (at node 5)
Injected packet length average = 1
Accepted packet length average = 1
Total in-flight flits = 8 (0 measured)
latency change    = 0.0179309
throughput change = 0.0415973
Class 0:
Packet latency average = 19.6645
	minimum = 7
	maximum = 37
Network latency average = 19.6645
	minimum = 7
	maximum = 37
Slowest packet = 17940
Flit latency average = 19.6645
	minimum = 7
	maximum = 37
Slowest flit = 17940
Fragmentation average = 0
	minimum = 0
	maximum = 0
Injected packet rate average = 0.0193125
	minimum = 0.01 (at node 5)
	maximum = 0.026 (at node 14)
Accepted packet rate average = 0.0195625
	minimum = 0.012 (at node 0)
	maximum = 0.034 (at node 4)
Injected flit rate average = 0.0193125
	minimum = 0.01 (at node 5)
	maximum = 0.026 (at node 14)
Accepted flit rate average= 0.0195625
	minimum = 0.012 (at node 0)
	maximum = 0.034 (at node 4)
Injected packet length average = 1
Accepted packet length average = 1
Total in-flight flits = 4 (0 measured)
latency change    = 0.0326937
throughput change = 0.0399361
Warmed up ...Time used is 3000 cycles
Class 0:
Packet latency average = 18.9942
	minimum = 7
	maximum = 37
Network latency average = 18.9942
	minimum = 7
	maximum = 37
Slowest packet = 18445
Flit latency average = 19.0575
	minimum = 7
	maximum = 37
Slowest flit = 18445
Fragmentation average = 0
	minimum = 0
	maximum = 0
Injected packet rate average = 0.0218125
	minimum = 0.015 (at node 3)
	maximum = 0.033 (at node 10)
Accepted packet rate average = 0.02175
	minimum = 0.013 (at node 9)
	maximum = 0.033 (at node 6)
Injected flit rate average = 0.0218125
	minimum = 0.015 (at node 3)
	maximum = 0.033 (at node 10)
Accepted flit rate average= 0.02175
	minimum = 0.013 (at node 9)
	maximum = 0.033 (at node 6)
Injected packet length average = 1
Accepted packet length average = 1
Total in-flight flits = 5 (5 measured)
latency change    = 0.0352924
throughput change = 0.100575
Class 0:
Packet latency average = 19.1786
	minimum = 7
	maximum = 37
Network latency average = 19.1786
	minimum = 7
	maximum = 37
Slowest packet = 18445
Flit latency average = 19.2114
	minimum = 7
	maximum = 37
Slowest flit = 18445
Fragmentation average = 0
	minimum = 0
	maximum = 0
Injected packet rate average = 0.020375
	minimum = 0.016 (at node 2)
	maximum = 0.0265 (at node 5)
Accepted packet rate average = 0.02025
	minimum = 0.012 (at node 3)
	maximum = 0.024 (at node 4)
Injected flit rate average = 0.020375
	minimum = 0.016 (at node 2)
	maximum = 0.0265 (at node 5)
Accepted flit rate average= 0.02025
	minimum = 0.012 (at node 3)
	maximum = 0.024 (at node 4)
Injected packet length average = 1
Accepted packet length average = 1
Total in-flight flits = 8 (8 measured)
latency change    = 0.00961414
throughput change = 0.0740741
Class 0:
Packet latency average = 19.4979
	minimum = 7
	maximum = 38
Network latency average = 19.4979
	minimum = 7
	maximum = 38
Slowest packet = 19155
Flit latency average = 19.5189
	minimum = 7
	maximum = 38
Slowest flit = 19155
Fragmentation average = 0
	minimum = 0
	maximum = 0
Injected packet rate average = 0.0197917
	minimum = 0.0156667 (at node 13)
	maximum = 0.025 (at node 5)
Accepted packet rate average = 0.0197917
	minimum = 0.0136667 (at node 3)
	maximum = 0.0243333 (at node 8)
Injected flit rate average = 0.0197917
	minimum = 0.0156667 (at node 13)
	maximum = 0.025 (at node 5)
Accepted flit rate average= 0.0197917
	minimum = 0.0136667 (at node 3)
	maximum = 0.0243333 (at node 8)
Injected packet length average = 1
Accepted packet length average = 1
Total in-flight flits = 4 (4 measured)
latency change    = 0.0163769
throughput change = 0.0231579
Class 0:
Packet latency average = 19.4626
	minimum = 7
	maximum = 38
Network latency average = 19.4626
	minimum = 7
	maximum = 38
Slowest packet = 19155
Flit latency average = 19.4786
	minimum = 7
	maximum = 38
Slowest flit = 19155
Fragmentation average = 0
	minimum = 0
	maximum = 0
Injected packet rate average = 0.0197188
	minimum = 0.01625 (at node 13)
	maximum = 0.02325 (at node 5)
Accepted packet rate average = 0.0196875
	minimum = 0.01375 (at node 3)
	maximum = 0.0245 (at node 8)
Injected flit rate average = 0.0197188
	minimum = 0.01625 (at node 13)
	maximum = 0.02325 (at node 5)
Accepted flit rate average= 0.0196875
	minimum = 0.01375 (at node 3)
	maximum = 0.0245 (at node 8)
Injected packet length average = 1
Accepted packet length average = 1
Total in-flight flits = 6 (6 measured)
latency change    = 0.00181406
throughput change = 0.00529101
Class 0:
Packet latency average = 19.4927
	minimum = 7
	maximum = 38
Network latency average = 19.4927
	minimum = 7
	maximum = 38
Slowest packet = 19155
Flit latency average = 19.5054
	minimum = 7
	maximum = 38
Slowest flit = 19155
Fragmentation average = 0
	minimum = 0
	maximum = 0
Injected packet rate average = 0.0199125
	minimum = 0.0168 (at node 13)
	maximum = 0.0224 (at node 4)
Accepted packet rate average = 0.0198125
	minimum = 0.0146 (at node 3)
	maximum = 0.0242 (at node 8)
Injected flit rate average = 0.0199125
	minimum = 0.0168 (at node 13)
	maximum = 0.0224 (at node 4)
Accepted flit rate average= 0.0198125
	minimum = 0.0146 (at node 3)
	maximum = 0.0242 (at node 8)
Injected packet length average = 1
Accepted packet length average = 1
Total in-flight flits = 12 (12 measured)
latency change    = 0.00154655
throughput change = 0.00630915
Draining all recorded packets ...
Draining remaining packets ...
Time taken is 8056 cycles
Class 0:
Packet latency average = 19.9692
	minimum = 7
	maximum = 37
Network latency average = 19.9692
	minimum = 7
	maximum = 37
Slowest packet = 19926
Flit latency average = 19.9692
	minimum = 7
	maximum = 37
Slowest flit = 19926
Fragmentation average = 0
	minimum = 0
	maximum = 0
Injected packet rate average = 0.0205625
	minimum = 0.014 (at node 13)
	maximum = 0.028 (at node 5)
Accepted packet rate average = 0.0203125
	minimum = 0.014 (at node 13)
	maximum = 0.035 (at node 8)
Injected flit rate average = 0.0205625
	minimum = 0.014 (at node 13)
	maximum = 0.028 (at node 5)
Accepted flit rate average= 0.0203125
	minimum = 0.014 (at node 13)
	maximum = 0.035 (at node 8)
Injected packet length average = 1
Accepted packet length average = 1
Total in-flight flits = 4 (0 measured)
latency change    = 1
throughput change = 1
Class 0:
Packet latency average = 19.6708
	minimum = 7
	maximum = 37
Network latency average = 19.6708
	minimum = 7
	maximum = 37
Slowest packet = 19926
Flit latency average = 19.6708
	minimum = 7
	maximum = 37
Slowest flit = 19926
Fragmentation average = 0
	minimum = 0
	maximum = 0
Injected packet rate average = 0.0201563
	minimum = 0.0145 (at node 13)
	maximum = 0.025 (at node 10)
Accepted packet rate average = 0.0199375
	minimum = 0.0145 (at node 11)
	maximum = 0.0275 (at node 8)
Injected flit rate average = 0.0201563
	minimum = 0.0145 (at node 13)
	maximum = 0.025 (at node 10)
Accepted flit rate average= 0.0199375
	minimum = 0.0145 (at node 11)
	maximum = 0.0275 (at node 8)
Injected packet length average = 1
Accepted packet length average = 1
Total in-flight flits = 7 (0 measured)
latency change    = 0.0151689
throughput change = 0.0188088
Class 0:
Packet latency average = 18.55
	minimum = 7
	maximum = 37
Network latency average = 18.55
	minimum = 7
	maximum = 37
Slowest packet = 20459
Flit latency average = 18.55
	minimum = 7
	maximum = 37
Slowest flit = 20459
Fragmentation average = 0
	minimum = 0
	maximum = 0
Injected packet rate average = 0.0199375
	minimum = 0.01 (at node 4)
	maximum = 0.031 (at node 5)
Accepted packet rate average = 0.02
	minimum = 0.014 (at node 12)
	maximum = 0.03 (at node 10)
Injected flit rate average = 0.0199375
	minimum = 0.01 (at node 4)
	maximum = 0.031 (at node 5)
Accepted flit rate average= 0.02
	minimum = 0.014 (at node 12)
	maximum = 0.03 (at node 10)
Injected packet length average = 1
Accepted packet length average = 1
Total in-flight flits = 6 (0 measured)
latency change    = 0.060423
throughput change = 0.003125
Warmed up ...Time used is 3000 cycles
Class 0:
Packet latency average = 19.3111
	minimum = 7
	maximum = 40
Network latency average = 19.3111
	minimum = 7
	maximum = 40
Slowest packet = 20809
Flit latency average = 19.4237
	minimum = 7
	maximum = 40
Slowest flit = 20809
Fragmentation average = 0
	minimum = 0
	maximum = 0
Injected packet rate average = 0.020125
	minimum = 0.013 (at node 11)
	maximum = 0.028 (at node 0)
Accepted packet rate average = 0.0200625
	minimum = 0.015 (at node 3)
	maximum = 0.029 (at node 13)
Injected flit rate average = 0.020125
	minimum = 0.013 (at node 11)
	maximum = 0.028 (at node 0)
Accepted flit rate average= 0.0200625
	minimum = 0.015 (at node 3)
	maximum = 0.029 (at node 13)
Injected packet length average = 1
Accepted packet length average = 1
Total in-flight flits = 7 (7 measured)
latency change    = 0.0394131
throughput change = 0.00311526
Class 0:
Packet latency average = 19.2379
	minimum = 7
	maximum = 40
Network latency average = 19.2379
	minimum = 7
	maximum = 40
Slowest packet = 20809
Flit latency average = 19.2946
	minimum = 7
	maximum = 40
Slowest flit = 20809
Fragmentation average = 0
	minimum = 0
	maximum = 0
Injected packet rate average = 0.020125
	minimum = 0.0165 (at node 8)
	maximum = 0.028 (at node 1)
Accepted packet rate average = 0.0201563
	minimum = 0.0135 (at node 0)
	maximum = 0.026 (at node 13)
Injected flit rate average = 0.020125
	minimum = 0.0165 (at node 8)
	maximum = 0.028 (at node 1)
Accepted flit rate average= 0.0201563
	minimum = 0.0135 (at node 0)
	maximum = 0.026 (at node 13)
Injected packet length average = 1
Accepted packet length average = 1
Total in-flight flits = 5 (5 measured)
latency change    = 0.00380704
throughput change = 0.00465116
Class 0:
Packet latency average = 19.1726
	minimum = 7
	maximum = 40
Network latency average = 19.1726
	minimum = 7
	maximum = 40
Slowest packet = 20809
Flit latency average = 19.211
	minimum = 7
	maximum = 40
Slowest flit = 20809
Fragmentation average = 0
	minimum = 0
	maximum = 0
Injected packet rate average = 0.0199375
	minimum = 0.018 (at node 15)
	maximum = 0.023 (at node 9)
Accepted packet rate average = 0.0200417
	minimum = 0.0166667 (at node 0)
	maximum = 0.0236667 (at node 4)
Injected flit rate average = 0.0199375
	minimum = 0.018 (at node 15)
	maximum = 0.023 (at node 9)
Accepted flit rate average= 0.0200417
	minimum = 0.0166667 (at node 0)
	maximum = 0.0236667 (at node 4)
Injected packet length average = 1
Accepted packet length average = 1
Total in-flight flits = 1 (1 measured)
latency change    = 0.00340473
throughput change = 0.00571726
Draining all recorded packets ...
Draining remaining packets ...
Time taken is 6036 cycles
Class 0:
Packet latency average = 18.8585
	minimum = 7
	maximum = 37
Network latency average = 18.8585
	minimum = 7
	maximum = 37
Slowest packet = 21852
Flit latency average = 18.8585
	minimum = 7
	maximum = 37
Slowest flit = 21852
Fragmentation average = 0
	minimum = 0
	maximum = 0
Injected packet rate average = 0.019875
	minimum = 0.015 (at node 8)
	maximum = 0.026 (at node 1)
Accepted packet rate average = 0.0194375
	minimum = 0.012 (at node 0)
	maximum = 0.03 (at node 4)
Injected flit rate average = 0.019875
	minimum = 0.015 (at node 8)
	maximum = 0.026 (at node 1)
Accepted flit rate average= 0.0194375
	minimum = 0.012 (at node 0)
	maximum = 0.03 (at node 4)
Injected packet length average = 1
Accepted packet length average = 1
Total in-flight flits = 7 (0 measured)
latency change    = 1
throughput change = 1
Class 0:
Packet latency average = 19.3093
	minimum = 7
	maximum = 42
Network latency average = 19.3093
	minimum = 7
	maximum = 42
Slowest packet = 22060
Flit latency average = 19.3093
	minimum = 7
	maximum = 42
Slowest flit = 22060
Fragmentation average = 0
	minimum = 0
	maximum = 0
Injected packet rate average = 0.0200625
	minimum = 0.0145 (at node 8)
	maximum = 0.025 (at node 1)
Accepted packet rate average = 0.0199063
	minimum = 0.0145 (at node 2)
	maximum = 0.029 (at node 4)
Injected flit rate average = 0.0200625
	minimum = 0.0145 (at node 8)
	maximum = 0.025 (at node 1)
Accepted flit rate average= 0.0199063
	minimum = 0.0145 (at node 2)
	maximum = 0.029 (at node 4)
Injected packet length average = 1
Accepted packet length average = 1
Total in-flight flits = 5 (0 measured)
latency change    = 0.0233433
throughput change = 0.0235479
Class 0:
Packet latency average = 19.9838
	minimum = 7
	maximum = 37
Network latency average = 19.9838
	minimum = 7
	maximum = 37
Slowest packet = 22398
Flit latency average = 19.9838
	minimum = 7
	maximum = 37
Slowest flit = 22398
Fragmentation average = 0
	minimum = 0
	maximum = 0
Injected packet rate average = 0.0199375
	minimum = 0.014 (at node 9)
	maximum = 0.026 (at node 10)
Accepted packet rate average = 0.01925
	minimum = 0.011 (at node 6)
	maximum = 0.025 (at node 2)
Injected flit rate average = 0.0199375
	minimum = 0.014 (at node 9)
	maximum = 0.026 (at node 10)
Accepted flit rate average= 0.01925
	minimum = 0.011 (at node 6)
	maximum = 0.025 (at node 2)
Injected packet length average = 1
Accepted packet length average = 1
Total in-flight flits = 16 (0 measured)
latency change    = 0.0337526
throughput change = 0.0340909
Warmed up ...Time used is 3000 cycles
Class 0:
Packet latency average = 19.4859
	minimum = 7
	maximum = 39
Network latency average = 19.4859
	minimum = 7
	maximum = 39
Slowest packet = 22971
Flit latency average = 19.5791
	minimum = 7
	maximum = 39
Slowest flit = 22971
Fragmentation average = 0
	minimum = 0
	maximum = 0
Injected packet rate average = 0.0200625
	minimum = 0.013 (at node 11)
	maximum = 0.029 (at node 7)
Accepted packet rate average = 0.0209375
	minimum = 0.015 (at node 0)
	maximum = 0.025 (at node 11)
Injected flit rate average = 0.0200625
	minimum = 0.013 (at node 11)
	maximum = 0.029 (at node 7)
Accepted flit rate average= 0.0209375
	minimum = 0.015 (at node 0)
	maximum = 0.025 (at node 11)
Injected packet length average = 1
Accepted packet length average = 1
Total in-flight flits = 2 (2 measured)
latency change    = 0.0255504
throughput change = 0.080597
Class 0:
Packet latency average = 19.1144
	minimum = 7
	maximum = 39
Network latency average = 19.1144
	minimum = 7
	maximum = 39
Slowest packet = 22971
Flit latency average = 19.1713
	minimum = 7
	maximum = 39
Slowest flit = 22971
Fragmentation average = 0
	minimum = 0
	maximum = 0
Injected packet rate average = 0.02025
	minimum = 0.0145 (at node 15)
	maximum = 0.0245 (at node 4)
Accepted packet rate average = 0.0204375
	minimum = 0.0175 (at node 8)
	maximum = 0.024 (at node 9)
Injected flit rate average = 0.02025
	minimum = 0.0145 (at node 15)
	maximum = 0.0245 (at node 4)
Accepted flit rate average= 0.0204375
	minimum = 0.0175 (at node 8)
	maximum = 0.024 (at node 9)
Injected packet length average = 1
Accepted packet length average = 1
Total in-flight flits = 10 (10 measured)
latency change    = 0.0194342
throughput change = 0.0244648
Class 0:
Packet latency average = 19.1989
	minimum = 7
	maximum = 39
Network latency average = 19.1989
	minimum = 7
	maximum = 39
Slowest packet = 22971
Flit latency average = 19.236
	minimum = 7
	maximum = 39
Slowest flit = 22971
Fragmentation average = 0
	minimum = 0
	maximum = 0
Injected packet rate average = 0.0199583
	minimum = 0.0153333 (at node 10)
	maximum = 0.0243333 (at node 7)
Accepted packet rate average = 0.020125
	minimum = 0.0176667 (at node 3)
	maximum = 0.0223333 (at node 11)
Injected flit rate average = 0.0199583
	minimum = 0.0153333 (at node 10)
	maximum = 0.0243333 (at node 7)
Accepted flit rate average= 0.020125
	minimum = 0.0176667 (at node 3)
	maximum = 0.0223333 (at node 11)
Injected packet length average = 1
Accepted packet length average = 1
Total in-flight flits = 8 (8 measured)
latency change    = 0.00440271
throughput change = 0.015528
Class 0:
Packet latency average = 19.2799
	minimum = 7
	maximum = 39
Network latency average = 19.2799
	minimum = 7
	maximum = 39
Slowest packet = 22971
Flit latency average = 19.3065
	minimum = 7
	maximum = 39
Slowest flit = 22971
Fragmentation average = 0
	minimum = 0
	maximum = 0
Injected packet rate average = 0.0201719
	minimum = 0.01725 (at node 9)
	maximum = 0.024 (at node 7)
Accepted packet rate average = 0.0203438
	minimum = 0.0175 (at node 3)
	maximum = 0.023 (at node 11)
Injected flit rate average = 0.0201719
	minimum = 0.01725 (at node 9)
	maximum = 0.024 (at node 7)
Accepted flit rate average= 0.0203438
	minimum = 0.0175 (at node 3)
	maximum = 0.023 (at node 11)
Injected packet length average = 1
Accepted packet length average = 1
Total in-flight flits = 5 (5 measured)
latency change    = 0.00420076
throughput change = 0.0107527
Draining all recorded packets ...
Draining remaining packets ...
Time taken is 7045 cycles
Class 0:
Packet latency average = 19.2657
	minimum = 7
	maximum = 37
Network latency average = 19.2657
	minimum = 7
	maximum = 37
Slowest packet = 24152
Flit latency average = 19.2657
	minimum = 7
	maximum = 37
Slowest flit = 24152
Fragmentation average = 0
	minimum = 0
	maximum = 0
Injected packet rate average = 0.0181875
	minimum = 0.011 (at node 4)
	maximum = 0.027 (at node 1)
Accepted packet rate average = 0.017875
	minimum = 0.011 (at node 15)
	maximum = 0.028 (at node 10)
Injected flit rate average = 0.0181875
	minimum = 0.011 (at node 4)
	maximum = 0.027 (at node 1)
Accepted flit rate average= 0.017875
	minimum = 0.011 (at node 15)
	maximum = 0.028 (at node 10)
Injected packet length average = 1
Accepted packet length average = 1
Total in-flight flits = 5 (0 measured)
latency change    = 1
throughput change = 1
Class 0:
Packet latency average = 19.4974
	minimum = 7
	maximum = 37
Network latency average = 19.4974
	minimum = 7
	maximum = 37
Slowest packet = 24152
Flit latency average = 19.4974
	minimum = 7
	maximum = 37
Slowest flit = 24152
Fragmentation average = 0
	minimum = 0
	maximum = 0
Injected packet rate average = 0.0182187
	minimum = 0.012 (at node 13)
	maximum = 0.025 (at node 1)
Accepted packet rate average = 0.0180937
	minimum = 0.0145 (at node 8)
	maximum = 0.024 (at node 10)
Injected flit rate average = 0.0182187
	minimum = 0.012 (at node 13)
	maximum = 0.025 (at node 1)
Accepted flit rate average= 0.0180937
	minimum = 0.0145 (at node 8)
	maximum = 0.024 (at node 10)
Injected packet length average = 1
Accepted packet length average = 1
Total in-flight flits = 4 (0 measured)
latency change    = 0.0118824
throughput change = 0.0120898
Class 0:
Packet latency average = 19.6052
	minimum = 7
	maximum = 37
Network latency average = 19.6052
	minimum = 7
	maximum = 37
Slowest packet = 24612
Flit latency average = 19.6052
	minimum = 7
	maximum = 37
Slowest flit = 24612
Fragmentation average = 0
	minimum = 0
	maximum = 0
Injected packet rate average = 0.0215
	minimum = 0.015 (at node 6)
	maximum = 0.03 (at node 5)
Accepted packet rate average = 0.0216875
	minimum = 0.012 (at node 7)
	maximum = 0.034 (at node 14)
Injected flit rate average = 0.0215
	minimum = 0.015 (at node 6)
	maximum = 0.03 (at node 5)
Accepted flit rate average= 0.0216875
	minimum = 0.012 (at node 7)
	maximum = 0.034 (at node 14)
Injected packet length average = 1
Accepted packet length average = 1
Total in-flight flits = 1 (0 measured)
latency change    = 0.00549742
throughput change = 0.165706
Warmed up ...Time used is 3000 cycles
Class 0:
Packet latency average = 20.4367
	minimum = 7
	maximum = 37
Network latency average = 20.4367
	minimum = 7
	maximum = 37
Slowest packet = 24934
Flit latency average = 20.4751
	minimum = 7
	maximum = 37
Slowest flit = 24934
Fragmentation average = 0
	minimum = 0
	maximum = 0
Injected packet rate average = 0.019125
	minimum = 0.01 (at node 2)
	maximum = 0.03 (at node 7)
Accepted packet rate average = 0.0188125
	minimum = 0.011 (at node 6)
	maximum = 0.024 (at node 15)
Injected flit rate average = 0.019125
	minimum = 0.01 (at node 2)
	maximum = 0.03 (at node 7)
Accepted flit rate average= 0.0188125
	minimum = 0.011 (at node 6)
	maximum = 0.024 (at node 15)
Injected packet length average = 1
Accepted packet length average = 1
Total in-flight flits = 6 (6 measured)
latency change    = 0.0406857
throughput change = 0.152824
Class 0:
Packet latency average = 19.9026
	minimum = 7
	maximum = 37
Network latency average = 19.9026
	minimum = 7
	maximum = 37
Slowest packet = 24934
Flit latency average = 19.9213
	minimum = 7
	maximum = 37
Slowest flit = 24934
Fragmentation average = 0
	minimum = 0
	maximum = 0
Injected packet rate average = 0.0205
	minimum = 0.0145 (at node 15)
	maximum = 0.0275 (at node 7)
Accepted packet rate average = 0.02025
	minimum = 0.0165 (at node 14)
	maximum = 0.025 (at node 9)
Injected flit rate average = 0.0205
	minimum = 0.0145 (at node 15)
	maximum = 0.0275 (at node 7)
Accepted flit rate average= 0.02025
	minimum = 0.0165 (at node 14)
	maximum = 0.025 (at node 9)
Injected packet length average = 1
Accepted packet length average = 1
Total in-flight flits = 9 (9 measured)
latency change    = 0.0268326
throughput change = 0.0709877
Class 0:
Packet latency average = 19.7288
	minimum = 7
	maximum = 37
Network latency average = 19.7288
	minimum = 7
	maximum = 37
Slowest packet = 24934
Flit latency average = 19.7415
	minimum = 7
	maximum = 37
Slowest flit = 24934
Fragmentation average = 0
	minimum = 0
	maximum = 0
Injected packet rate average = 0.0203542
	minimum = 0.0156667 (at node 2)
	maximum = 0.0243333 (at node 14)
Accepted packet rate average = 0.0201458
	minimum = 0.016 (at node 2)
	maximum = 0.025 (at node 9)
Injected flit rate average = 0.0203542
	minimum = 0.0156667 (at node 2)
	maximum = 0.0243333 (at node 14)
Accepted flit rate average= 0.0201458
	minimum = 0.016 (at node 2)
	maximum = 0.025 (at node 9)
Injected packet length average = 1
Accepted packet length average = 1
Total in-flight flits = 11 (11 measured)
latency change    = 0.00881195
throughput change = 0.00517063
Class 0:
Packet latency average = 19.6374
	minimum = 7
	maximum = 39
Network latency average = 19.6374
	minimum = 7
	maximum = 39
Slowest packet = 25986
Flit latency average = 19.647
	minimum = 7
	maximum = 39
Slowest flit = 25986
Fragmentation average = 0
	minimum = 0
	maximum = 0
Injected packet rate average = 0.0201406
	minimum = 0.0155 (at node 5)
	maximum = 0.02375 (at node 10)
Accepted packet rate average = 0.0200938
	minimum = 0.01825 (at node 8)
	maximum = 0.02325 (at node 3)
Injected flit rate average = 0.0201406
	minimum = 0.0155 (at node 5)
	maximum = 0.02375 (at node 10)
Accepted flit rate average= 0.0200938
	minimum = 0.01825 (at node 8)
	maximum = 0.02325 (at node 3)
Injected packet length average = 1
Accepted packet length average = 1
Total in-flight flits = 4 (4 measured)
latency change    = 0.00465564
throughput change = 0.00259202
Class 0:
Packet latency average = 19.6693
	minimum = 7
	maximum = 39
Network latency average = 19.6693
	minimum = 7
	maximum = 39
Slowest packet = 25986
Flit latency average = 19.677
	minimum = 7
	maximum = 39
Slowest flit = 25986
Fragmentation average = 0
	minimum = 0
	maximum = 0
Injected packet rate average = 0.0203375
	minimum = 0.0164 (at node 5)
	maximum = 0.0238 (at node 10)
Accepted packet rate average = 0.0202375
	minimum = 0.0182 (at node 6)
	maximum = 0.0222 (at node 9)
Injected flit rate average = 0.0203375
	minimum = 0.0164 (at node 5)
	maximum = 0.0238 (at node 10)
Accepted flit rate average= 0.0202375
	minimum = 0.0182 (at node 6)
	maximum = 0.0222 (at node 9)
Injected packet length average = 1
Accepted packet length average = 1
Total in-flight flits = 9 (9 measured)
latency change    = 0.00162643
throughput change = 0.00710315
Draining all recorded packets ...
Draining remaining packets ...
Time taken is 8043 cycles
Class 0:
Packet latency average = 19.5323
	minimum = 7
	maximum = 37
Network latency average = 19.5323
	minimum = 7
	maximum = 37
Slowest packet = 26580
Flit latency average = 19.5323
	minimum = 7
	maximum = 37
Slowest flit = 26580
Fragmentation average = 0
	minimum = 0
	maximum = 0
Injected packet rate average = 0.01975
	minimum = 0.012 (at node 14)
	maximum = 0.029 (at node 7)
Accepted packet rate average = 0.019375
	minimum = 0.012 (at node 1)
	maximum = 0.03 (at node 5)
Injected flit rate average = 0.01975
	minimum = 0.012 (at node 14)
	maximum = 0.029 (at node 7)
Accepted flit rate average= 0.019375
	minimum = 0.012 (at node 1)
	maximum = 0.03 (at node 5)
Injected packet length average = 1
Accepted packet length average = 1
Total in-flight flits = 6 (0 measured)
latency change    = 1
throughput change = 1
Class 0:
Packet latency average = 19.7762
	minimum = 7
	maximum = 38
Network latency average = 19.7762
	minimum = 7
	maximum = 38
Slowest packet = 26971
Flit latency average = 19.7762
	minimum = 7
	maximum = 38
Slowest flit = 26971
Fragmentation average = 0
	minimum = 0
	maximum = 0
Injected packet rate average = 0.0202813
	minimum = 0.016 (at node 14)
	maximum = 0.025 (at node 9)
Accepted packet rate average = 0.0199688
	minimum = 0.0155 (at node 7)
	maximum = 0.029 (at node 5)
Injected flit rate average = 0.0202813
	minimum = 0.016 (at node 14)
	maximum = 0.025 (at node 9)
Accepted flit rate average= 0.0199688
	minimum = 0.0155 (at node 7)
	maximum = 0.029 (at node 5)
Injected packet length average = 1
Accepted packet length average = 1
Total in-flight flits = 10 (0 measured)
latency change    = 0.0123358
throughput change = 0.029734
Class 0:
Packet latency average = 19.2107
	minimum = 7
	maximum = 37
Network latency average = 19.2107
	minimum = 7
	maximum = 37
Slowest packet = 27213
Flit latency average = 19.2107
	minimum = 7
	maximum = 37
Slowest flit = 27213
Fragmentation average = 0
	minimum = 0
	maximum = 0
Injected packet rate average = 0.020625
	minimum = 0.015 (at node 7)
	maximum = 0.03 (at node 3)
Accepted packet rate average = 0.0210625
	minimum = 0.013 (at node 8)
	maximum = 0.033 (at node 7)
Injected flit rate average = 0.020625
	minimum = 0.015 (at node 7)
	maximum = 0.03 (at node 3)
Accepted flit rate average= 0.0210625
	minimum = 0.013 (at node 8)
	maximum = 0.033 (at node 7)
Injected packet length average = 1
Accepted packet length average = 1
Total in-flight flits = 3 (0 measured)
latency change    = 0.0294383
throughput change = 0.0519288
Warmed up ...Time used is 3000 cycles
Class 0:
Packet latency average = 19.4082
	minimum = 7
	maximum = 37
Network latency average = 19.4082
	minimum = 7
	maximum = 37
Slowest packet = 27579
Flit latency average = 19.4326
	minimum = 7
	maximum = 37
Slowest flit = 27579
Fragmentation average = 0
	minimum = 0
	maximum = 0
Injected packet rate average = 0.0200625
	minimum = 0.015 (at node 0)
	maximum = 0.025 (at node 3)
Accepted packet rate average = 0.0199375
	minimum = 0.011 (at node 2)
	maximum = 0.029 (at node 3)
Injected flit rate average = 0.0200625
	minimum = 0.015 (at node 0)
	maximum = 0.025 (at node 3)
Accepted flit rate average= 0.0199375
	minimum = 0.011 (at node 2)
	maximum = 0.029 (at node 3)
Injected packet length average = 1
Accepted packet length average = 1
Total in-flight flits = 5 (5 measured)
latency change    = 0.0101784
throughput change = 0.0564263
Class 0:
Packet latency average = 19.3454
	minimum = 7
	maximum = 39
Network latency average = 19.3454
	minimum = 7
	maximum = 39
Slowest packet = 27950
Flit latency average = 19.3574
	minimum = 7
	maximum = 39
Slowest flit = 27950
Fragmentation average = 0
	minimum = 0
	maximum = 0
Injected packet rate average = 0.020875
	minimum = 0.016 (at node 7)
	maximum = 0.0265 (at node 3)
Accepted packet rate average = 0.0208125
	minimum = 0.016 (at node 8)
	maximum = 0.0285 (at node 3)
Injected flit rate average = 0.020875
	minimum = 0.016 (at node 7)
	maximum = 0.0265 (at node 3)
Accepted flit rate average= 0.0208125
	minimum = 0.016 (at node 8)
	maximum = 0.0285 (at node 3)
Injected packet length average = 1
Accepted packet length average = 1
Total in-flight flits = 5 (5 measured)
latency change    = 0.0032477
throughput change = 0.042042
Class 0:
Packet latency average = 19.6019
	minimum = 7
	maximum = 39
Network latency average = 19.6019
	minimum = 7
	maximum = 39
Slowest packet = 27950
Flit latency average = 19.6094
	minimum = 7
	maximum = 39
Slowest flit = 27950
Fragmentation average = 0
	minimum = 0
	maximum = 0
Injected packet rate average = 0.0199792
	minimum = 0.0173333 (at node 7)
	maximum = 0.024 (at node 3)
Accepted packet rate average = 0.02
	minimum = 0.016 (at node 8)
	maximum = 0.027 (at node 3)
Injected flit rate average = 0.0199792
	minimum = 0.0173333 (at node 7)
	maximum = 0.024 (at node 3)
Accepted flit rate average= 0.02
	minimum = 0.016 (at node 8)
	maximum = 0.027 (at node 3)
Injected packet length average = 1
Accepted packet length average = 1
Total in-flight flits = 2 (2 measured)
latency change    = 0.0130845
throughput change = 0.040625
Class 0:
Packet latency average = 19.5863
	minimum = 7
	maximum = 39
Network latency average = 19.5863
	minimum = 7
	maximum = 39
Slowest packet = 27950
Flit latency average = 19.5922
	minimum = 7
	maximum = 39
Slowest flit = 27950
Fragmentation average = 0
	minimum = 0
	maximum = 0
Injected packet rate average = 0.0192031
	minimum = 0.01675 (at node 7)
	maximum = 0.02275 (at node 3)
Accepted packet rate average = 0.0191562
	minimum = 0.01625 (at node 7)
	maximum = 0.02425 (at node 3)
Injected flit rate average = 0.0192031
	minimum = 0.01675 (at node 7)
	maximum = 0.02275 (at node 3)
Accepted flit rate average= 0.0191562
	minimum = 0.01625 (at node 7)
	maximum = 0.02425 (at node 3)
Injected packet length average = 1
Accepted packet length average = 1
Total in-flight flits = 6 (6 measured)
latency change    = 0.000797375
throughput change = 0.0440457
Draining all recorded packets ...
Draining remaining packets ...
Time taken is 7057 cycles
Class 0:
Packet latency average = 19.2492
	minimum = 7
	maximum = 37
Network latency average = 19.2492
	minimum = 7
	maximum = 37
Slowest packet = 28786
Flit latency average = 19.2492
	minimum = 7
	maximum = 37
Slowest flit = 28786
Fragmentation average = 0
	minimum = 0
	maximum = 0
Injected packet rate average = 0.021125
	minimum = 0.014 (at node 7)
	maximum = 0.031 (at node 5)
Accepted packet rate average = 0.0205625
	minimum = 0.01 (at node 9)
	maximum = 0.029 (at node 8)
Injected flit rate average = 0.021125
	minimum = 0.014 (at node 7)
	maximum = 0.031 (at node 5)
Accepted flit rate average= 0.0205625
	minimum = 0.01 (at node 9)
	maximum = 0.029 (at node 8)
Injected packet length average = 1
Accepted packet length average = 1
Total in-flight flits = 9 (0 measured)
latency change    = 1
throughput change = 1
Class 0:
Packet latency average = 19.255
	minimum = 7
	maximum = 37
Network latency average = 19.255
	minimum = 7
	maximum = 37
Slowest packet = 28786
Flit latency average = 19.255
	minimum = 7
	maximum = 37
Slowest flit = 28786
Fragmentation average = 0
	minimum = 0
	maximum = 0
Injected packet rate average = 0.0205625
	minimum = 0.0135 (at node 7)
	maximum = 0.026 (at node 14)
Accepted packet rate average = 0.0203438
	minimum = 0.015 (at node 9)
	maximum = 0.024 (at node 4)
Injected flit rate average = 0.0205625
	minimum = 0.0135 (at node 7)
	maximum = 0.026 (at node 14)
Accepted flit rate average= 0.0203438
	minimum = 0.015 (at node 9)
	maximum = 0.024 (at node 4)
Injected packet length average = 1
Accepted packet length average = 1
Total in-flight flits = 7 (0 measured)
latency change    = 0.000298738
throughput change = 0.0107527
Class 0:
Packet latency average = 19.6923
[...]
	minimum = 0.01675 (at node 4)
	maximum = 0.0255 (at node 0)
Accepted packet rate average = 0.0209844
	minimum = 0.017 (at node 7)
	maximum = 0.02725 (at node 6)
Injected flit rate average = 0.0209219
	minimum = 0.01675 (at node 4)
	maximum = 0.0255 (at node 0)
Accepted flit rate average= 0.0209844
	minimum = 0.017 (at node 7)
	maximum = 0.02725 (at node 6)
Injected packet length average = 1
Accepted packet length average = 1
Total in-flight flits = 5 (5 measured)
latency change    = 0.000645065
throughput change = 0.0245719
Class 0:
Packet latency average = 19.2771
	minimum = 7
	maximum = 42
Network latency average = 19.2771
	minimum = 7
	maximum = 42
Slowest packet = 217486
Flit latency average = 19.3041
	minimum = 7
	maximum = 42
Slowest flit = 217486
Fragmentation average = 0
	minimum = 0
	maximum = 0
Injected packet rate average = 0.020625
	minimum = 0.0156 (at node 4)
	maximum = 0.0248 (at node 0)
Accepted packet rate average = 0.0206375
	minimum = 0.0174 (at node 7)
	maximum = 0.0266 (at node 6)
Injected flit rate average = 0.020625
	minimum = 0.0156 (at node 4)
	maximum = 0.0248 (at node 0)
Accepted flit rate average= 0.0206375
	minimum = 0.0174 (at node 7)
	maximum = 0.0266 (at node 6)
Injected packet length average = 1
Accepted packet length average = 1
Total in-flight flits = 8 (8 measured)
latency change    = 0.00181418
throughput change = 0.016808
Draining all recorded packets ...
Draining remaining packets ...
Time taken is 8057 cycles
Class 0:
Packet latency average = 19.0487
	minimum = 7
	maximum = 38
Network latency average = 19.0487
	minimum = 7
	maximum = 38
Slowest packet = 219131
Flit latency average = 19.0487
	minimum = 7
	maximum = 38
Slowest flit = 219131
Fragmentation average = 0
	minimum = 0
	maximum = 0
Injected packet rate average = 0.0195625
	minimum = 0.011 (at node 11)
	maximum = 0.028 (at node 4)
Accepted packet rate average = 0.01925
	minimum = 0.012 (at node 12)
	maximum = 0.031 (at node 6)
Injected flit rate average = 0.0195625
	minimum = 0.011 (at node 11)
	maximum = 0.028 (at node 4)
Accepted flit rate average= 0.01925
	minimum = 0.012 (at node 12)
	maximum = 0.031 (at node 6)
Injected packet length average = 1
Accepted packet length average = 1
Total in-flight flits = 5 (0 measured)
latency change    = 1
throughput change = 1
Class 0:
Packet latency average = 18.7409
	minimum = 7
	maximum = 38
Network latency average = 18.7409
	minimum = 7
	maximum = 38
Slowest packet = 219131
Flit latency average = 18.7409
	minimum = 7
	maximum = 38
Slowest flit = 219131
Fragmentation average = 0
	minimum = 0
	maximum = 0
Injected packet rate average = 0.0191875
	minimum = 0.0145 (at node 14)
	maximum = 0.028 (at node 2)
Accepted packet rate average = 0.0189375
	minimum = 0.0125 (at node 12)
	maximum = 0.024 (at node 6)
Injected flit rate average = 0.0191875
	minimum = 0.0145 (at node 14)
	maximum = 0.028 (at node 2)
Accepted flit rate average= 0.0189375
	minimum = 0.0125 (at node 12)
	maximum = 0.024 (at node 6)
Injected packet length average = 1
Accepted packet length average = 1
Total in-flight flits = 8 (0 measured)
latency change    = 0.0164227
throughput change = 0.0165017
Class 0:
Packet latency average = 19.3716
	minimum = 7
	maximum = 37
Network latency average = 19.3716
	minimum = 7
	maximum = 37
Slowest packet = 219632
Flit latency average = 19.3716
	minimum = 7
	maximum = 37
Slowest flit = 219632
Fragmentation average = 0
	minimum = 0
	maximum = 0
Injected packet rate average = 0.018375
	minimum = 0.01 (at node 11)
	maximum = 0.028 (at node 0)
Accepted packet rate average = 0.0185
	minimum = 0.014 (at node 5)
	maximum = 0.029 (at node 2)
Injected flit rate average = 0.018375
	minimum = 0.01 (at node 11)
	maximum = 0.028 (at node 0)
Accepted flit rate average= 0.0185
	minimum = 0.014 (at node 5)
	maximum = 0.029 (at node 2)
Injected packet length average = 1
Accepted packet length average = 1
Total in-flight flits = 6 (0 measured)
latency change    = 0.0325578
throughput change = 0.0236486
Warmed up ...Time used is 3000 cycles
Class 0:
Packet latency average = 18.875
	minimum = 7
	maximum = 38
Network latency average = 18.875
	minimum = 7
	maximum = 38
Slowest packet = 220000
Flit latency average = 19.021
	minimum = 7
	maximum = 38
Slowest flit = 220000
Fragmentation average = 0
	minimum = 0
	maximum = 0
Injected packet rate average = 0.0209375
	minimum = 0.015 (at node 12)
	maximum = 0.025 (at node 13)
Accepted packet rate average = 0.020875
	minimum = 0.012 (at node 13)
	maximum = 0.027 (at node 7)
Injected flit rate average = 0.0209375
	minimum = 0.015 (at node 12)
	maximum = 0.025 (at node 13)
Accepted flit rate average= 0.020875
	minimum = 0.012 (at node 13)
	maximum = 0.027 (at node 7)
Injected packet length average = 1
Accepted packet length average = 1
Total in-flight flits = 7 (7 measured)
latency change    = 0.0263111
throughput change = 0.113772
Class 0:
Packet latency average = 18.8731
	minimum = 7
	maximum = 38
Network latency average = 18.8731
	minimum = 7
	maximum = 38
Slowest packet = 220000
Flit latency average = 18.9453
	minimum = 7
	maximum = 38
Slowest flit = 220000
Fragmentation average = 0
	minimum = 0
	maximum = 0
Injected packet rate average = 0.0211875
	minimum = 0.015 (at node 12)
	maximum = 0.027 (at node 9)
Accepted packet rate average = 0.021125
	minimum = 0.016 (at node 3)
	maximum = 0.0275 (at node 4)
Injected flit rate average = 0.0211875
	minimum = 0.015 (at node 12)
	maximum = 0.027 (at node 9)
Accepted flit rate average= 0.021125
	minimum = 0.016 (at node 3)
	maximum = 0.0275 (at node 4)
Injected packet length average = 1
Accepted packet length average = 1
Total in-flight flits = 8 (8 measured)
latency change    = 9.88533e-05
throughput change = 0.0118343
Class 0:
Packet latency average = 19.1433
	minimum = 7
	maximum = 38
Network latency average = 19.1433
	minimum = 7
	maximum = 38
Slowest packet = 220000
Flit latency average = 19.1909
	minimum = 7
	maximum = 38
Slowest flit = 220000
Fragmentation average = 0
	minimum = 0
	maximum = 0
Injected packet rate average = 0.0206042
	minimum = 0.0156667 (at node 12)
	maximum = 0.0256667 (at node 2)
Accepted packet rate average = 0.020625
	minimum = 0.0163333 (at node 1)
	maximum = 0.027 (at node 4)
Injected flit rate average = 0.0206042
	minimum = 0.0156667 (at node 12)
	maximum = 0.0256667 (at node 2)
Accepted flit rate average= 0.020625
	minimum = 0.0163333 (at node 1)
	maximum = 0.027 (at node 4)
Injected packet length average = 1
Accepted packet length average = 1
Total in-flight flits = 5 (5 measured)
latency change    = 0.0141124
throughput change = 0.0242424
Class 0:
Packet latency average = 19.2185
	minimum = 7
	maximum = 38
Network latency average = 19.2185
	minimum = 7
	maximum = 38
Slowest packet = 220000
Flit latency average = 19.2536
	minimum = 7
	maximum = 38
Slowest flit = 220000
Fragmentation average = 0
	minimum = 0
	maximum = 0
Injected packet rate average = 0.0207813
	minimum = 0.016 (at node 12)
	maximum = 0.025 (at node 2)
Accepted packet rate average = 0.0208281
	minimum = 0.01725 (at node 3)
	maximum = 0.02575 (at node 4)
Injected flit rate average = 0.0207813
	minimum = 0.016 (at node 12)
	maximum = 0.025 (at node 2)
Accepted flit rate average= 0.0208281
	minimum = 0.01725 (at node 3)
	maximum = 0.02575 (at node 4)
Injected packet length average = 1
Accepted packet length average = 1
Total in-flight flits = 3 (3 measured)
latency change    = 0.00391525
throughput change = 0.00975244
Draining all recorded packets ...
Draining remaining packets ...
Time taken is 7038 cycles
Class 0:
Packet latency average = 20.0217
	minimum = 7
	maximum = 37
Network latency average = 20.0217
	minimum = 7
	maximum = 37
Slowest packet = 221172
Flit latency average = 20.0217
	minimum = 7
	maximum = 37
Slowest flit = 221172
Fragmentation average = 0
	minimum = 0
	maximum = 0
Injected packet rate average = 0.0204375
	minimum = 0.014 (at node 3)
	maximum = 0.028 (at node 11)
Accepted packet rate average = 0.0201875
	minimum = 0.011 (at node 13)
	maximum = 0.026 (at node 5)
Injected flit rate average = 0.0204375
	minimum = 0.014 (at node 3)
	maximum = 0.028 (at node 11)
Accepted flit rate average= 0.0201875
	minimum = 0.011 (at node 13)
	maximum = 0.026 (at node 5)
Injected packet length average = 1
Accepted packet length average = 1
Total in-flight flits = 4 (0 measured)
latency change    = 1
throughput change = 1
Class 0:
Packet latency average = 20.1002
	minimum = 7
	maximum = 37
Network latency average = 20.1002
	minimum = 7
	maximum = 37
Slowest packet = 221172
Flit latency average = 20.1002
	minimum = 7
	maximum = 37
Slowest flit = 221172
Fragmentation average = 0
	minimum = 0
	maximum = 0
Injected packet rate average = 0.0205938
	minimum = 0.0165 (at node 10)
	maximum = 0.0285 (at node 11)
Accepted packet rate average = 0.0202813
	minimum = 0.0125 (at node 13)
	maximum = 0.024 (at node 11)
Injected flit rate average = 0.0205938
	minimum = 0.0165 (at node 10)
	maximum = 0.0285 (at node 11)
Accepted flit rate average= 0.0202813
	minimum = 0.0125 (at node 13)
	maximum = 0.024 (at node 11)
Injected packet length average = 1
Accepted packet length average = 1
Total in-flight flits = 10 (0 measured)
latency change    = 0.00390456
throughput change = 0.0046225
Class 0:
Packet latency average = 19.1603
	minimum = 7
	maximum = 37
Network latency average = 19.1603
	minimum = 7
	maximum = 37
Slowest packet = 221820
Flit latency average = 19.1603
	minimum = 7
	maximum = 37
Slowest flit = 221820
Fragmentation average = 0
	minimum = 0
	maximum = 0
Injected packet rate average = 0.021125
	minimum = 0.015 (at node 1)
	maximum = 0.03 (at node 10)
Accepted packet rate average = 0.0214375
	minimum = 0.015 (at node 7)
	maximum = 0.029 (at node 14)
Injected flit rate average = 0.021125
	minimum = 0.015 (at node 1)
	maximum = 0.03 (at node 10)
Accepted flit rate average= 0.0214375
	minimum = 0.015 (at node 7)
	maximum = 0.029 (at node 14)
Injected packet length average = 1
Accepted packet length average = 1
Total in-flight flits = 5 (0 measured)
latency change    = 0.0490494
throughput change = 0.0539359
Warmed up ...Time used is 3000 cycles
Class 0:
Packet latency average = 19.1683
	minimum = 7
	maximum = 38
Network latency average = 19.1683
	minimum = 7
	maximum = 38
Slowest packet = 222281
Flit latency average = 19.1981
	minimum = 7
	maximum = 38
Slowest flit = 222281
Fragmentation average = 0
	minimum = 0
	maximum = 0
Injected packet rate average = 0.0191875
	minimum = 0.01 (at node 1)
	maximum = 0.026 (at node 14)
Accepted packet rate average = 0.01925
	minimum = 0.011 (at node 5)
	maximum = 0.027 (at node 7)
Injected flit rate average = 0.0191875
	minimum = 0.01 (at node 1)
	maximum = 0.026 (at node 14)
Accepted flit rate average= 0.01925
	minimum = 0.011 (at node 5)
	maximum = 0.027 (at node 7)
Injected packet length average = 1
Accepted packet length average = 1
Total in-flight flits = 4 (4 measured)
latency change    = 0.000415633
throughput change = 0.113636
Class 0:
Packet latency average = 19.5272
	minimum = 7
	maximum = 38
Network latency average = 19.5272
	minimum = 7
	maximum = 38
Slowest packet = 222281
Flit latency average = 19.539
	minimum = 7
	maximum = 38
Slowest flit = 222281
Fragmentation average = 0
	minimum = 0
	maximum = 0
Injected packet rate average = 0.0195625
	minimum = 0.014 (at node 5)
	maximum = 0.023 (at node 14)
Accepted packet rate average = 0.0196563
	minimum = 0.014 (at node 12)
	maximum = 0.0255 (at node 7)
Injected flit rate average = 0.0195625
	minimum = 0.014 (at node 5)
	maximum = 0.023 (at node 14)
Accepted flit rate average= 0.0196563
	minimum = 0.014 (at node 12)
	maximum = 0.0255 (at node 7)
Injected packet length average = 1
Accepted packet length average = 1
Total in-flight flits = 2 (2 measured)
latency change    = 0.0183808
throughput change = 0.0206677
Class 0:
Packet latency average = 19.4615
	minimum = 7
	maximum = 38
Network latency average = 19.4615
	minimum = 7
	maximum = 38
Slowest packet = 222281
Flit latency average = 19.4696
	minimum = 7
	maximum = 38
Slowest flit = 222281
Fragmentation average = 0
	minimum = 0
	maximum = 0
Injected packet rate average = 0.0195417
	minimum = 0.0156667 (at node 8)
	maximum = 0.023 (at node 14)
Accepted packet rate average = 0.0195625
	minimum = 0.0166667 (at node 4)
	maximum = 0.0236667 (at node 8)
Injected flit rate average = 0.0195417
	minimum = 0.0156667 (at node 8)
	maximum = 0.023 (at node 14)
Accepted flit rate average= 0.0195625
	minimum = 0.0166667 (at node 4)
	maximum = 0.0236667 (at node 8)
Injected packet length average = 1
Accepted packet length average = 1
Total in-flight flits = 4 (4 measured)
latency change    = 0.0033804
throughput change = 0.00479233
Class 0:
Packet latency average = 19.5917
	minimum = 7
	maximum = 38
Network latency average = 19.5917
	minimum = 7
	maximum = 38
Slowest packet = 222281
Flit latency average = 19.5973
	minimum = 7
	maximum = 38
Slowest flit = 222281
Fragmentation average = 0
	minimum = 0
	maximum = 0
Injected packet rate average = 0.0197344
	minimum = 0.0165 (at node 8)
	maximum = 0.0225 (at node 14)
Accepted packet rate average = 0.0196719
	minimum = 0.01525 (at node 4)
	maximum = 0.0235 (at node 7)
Injected flit rate average = 0.0197344
	minimum = 0.0165 (at node 8)
	maximum = 0.0225 (at node 14)
Accepted flit rate average= 0.0196719
	minimum = 0.01525 (at node 4)
	maximum = 0.0235 (at node 7)
Injected packet length average = 1
Accepted packet length average = 1
Total in-flight flits = 9 (9 measured)
latency change    = 0.00664824
throughput change = 0.00555997
Draining all recorded packets ...
Draining remaining packets ...
Time taken is 7069 cycles
Class 0:
Packet latency average = 19.7324
	minimum = 7
	maximum = 37
Network latency average = 19.7324
	minimum = 7
	maximum = 37
Slowest packet = 223464
Flit latency average = 19.7324
	minimum = 7
	maximum = 37
Slowest flit = 223464
Fragmentation average = 0
	minimum = 0
	maximum = 0
Injected packet rate average = 0.0215625
	minimum = 0.013 (at node 5)
	maximum = 0.028 (at node 11)
Accepted packet rate average = 0.02125
	minimum = 0.015 (at node 10)
	maximum = 0.031 (at node 2)
Injected flit rate average = 0.0215625
	minimum = 0.013 (at node 5)
	maximum = 0.028 (at node 11)
Accepted flit rate average= 0.02125
	minimum = 0.015 (at node 10)
	maximum = 0.031 (at node 2)
Injected packet length average = 1
Accepted packet length average = 1
Total in-flight flits = 5 (0 measured)
latency change    = 1
throughput change = 1
Class 0:
Packet latency average = 19.8607
	minimum = 7
	maximum = 38
Network latency average = 19.8607
	minimum = 7
	maximum = 38
Slowest packet = 223884
Flit latency average = 19.8607
	minimum = 7
	maximum = 38
Slowest flit = 223884
Fragmentation average = 0
	minimum = 0
	maximum = 0
Injected packet rate average = 0.0204375
	minimum = 0.017 (at node 5)
	maximum = 0.0285 (at node 11)
Accepted packet rate average = 0.0201875
	minimum = 0.017 (at node 7)
	maximum = 0.024 (at node 12)
Injected flit rate average = 0.0204375
	minimum = 0.017 (at node 5)
	maximum = 0.0285 (at node 11)
Accepted flit rate average= 0.0201875
	minimum = 0.017 (at node 7)
	maximum = 0.024 (at node 12)
Injected packet length average = 1
Accepted packet length average = 1
Total in-flight flits = 8 (0 measured)
latency change    = 0.00646142
throughput change = 0.0526316
Class 0:
Packet latency average = 19.0288
	minimum = 7
	maximum = 37
Network latency average = 19.0288
	minimum = 7
	maximum = 37
Slowest packet = 224100
Flit latency average = 19.0288
	minimum = 7
	maximum = 37
Slowest flit = 224100
Fragmentation average = 0
	minimum = 0
	maximum = 0
Injected packet rate average = 0.0195
	minimum = 0.013 (at node 14)
	maximum = 0.03 (at node 6)
Accepted packet rate average = 0.0195625
	minimum = 0.01 (at node 10)
	maximum = 0.026 (at node 1)
Injected flit rate average = 0.0195
	minimum = 0.013 (at node 14)
	maximum = 0.03 (at node 6)
Accepted flit rate average= 0.0195625
	minimum = 0.01 (at node 10)
	maximum = 0.026 (at node 1)
Injected packet length average = 1
Accepted packet length average = 1
Total in-flight flits = 7 (0 measured)
latency change    = 0.0437195
throughput change = 0.0319489
Warmed up ...Time used is 3000 cycles
Class 0:
Packet latency average = 18.8433
	minimum = 7
	maximum = 37
Network latency average = 18.8433
	minimum = 7
	maximum = 37
Slowest packet = 224591
Flit latency average = 18.9805
	minimum = 7
	maximum = 37
Slowest flit = 224405
Fragmentation average = 0
	minimum = 0
	maximum = 0
Injected packet rate average = 0.0189375
	minimum = 0.012 (at node 0)
	maximum = 0.029 (at node 9)
Accepted packet rate average = 0.0191875
	minimum = 0.013 (at node 15)
	maximum = 0.025 (at node 5)
Injected flit rate average = 0.0189375
	minimum = 0.012 (at node 0)
	maximum = 0.029 (at node 9)
Accepted flit rate average= 0.0191875
	minimum = 0.013 (at node 15)
	maximum = 0.025 (at node 5)
Injected packet length average = 1
Accepted packet length average = 1
Total in-flight flits = 3 (3 measured)
latency change    = 0.00984012
throughput change = 0.019544
Class 0:
Packet latency average = 19.2904
	minimum = 7
	maximum = 37
Network latency average = 19.2904
	minimum = 7
	maximum = 37
Slowest packet = 224591
Flit latency average = 19.354
	minimum = 7
	maximum = 37
Slowest flit = 224405
Fragmentation average = 0
	minimum = 0
	maximum = 0
Injected packet rate average = 0.0192187
	minimum = 0.016 (at node 6)
	maximum = 0.025 (at node 9)
Accepted packet rate average = 0.0191562
	minimum = 0.0135 (at node 15)
	maximum = 0.023 (at node 10)
Injected flit rate average = 0.0192187
	minimum = 0.016 (at node 6)
	maximum = 0.025 (at node 9)
Accepted flit rate average= 0.0191562
	minimum = 0.0135 (at node 15)
	maximum = 0.023 (at node 10)
Injected packet length average = 1
Accepted packet length average = 1
Total in-flight flits = 9 (9 measured)
latency change    = 0.0231771
throughput change = 0.00163132
Class 0:
Packet latency average = 19.3746
	minimum = 7
	maximum = 37
Network latency average = 19.3746
	minimum = 7
	maximum = 37
Slowest packet = 224591
Flit latency average = 19.4163
	minimum = 7
	maximum = 37
Slowest flit = 224405
Fragmentation average = 0
	minimum = 0
	maximum = 0
Injected packet rate average = 0.019125
	minimum = 0.016 (at node 6)
	maximum = 0.025 (at node 9)
Accepted packet rate average = 0.0191667
	minimum = 0.015 (at node 3)
	maximum = 0.0253333 (at node 10)
Injected flit rate average = 0.019125
	minimum = 0.016 (at node 6)
	maximum = 0.025 (at node 9)
Accepted flit rate average= 0.0191667
	minimum = 0.015 (at node 3)
	maximum = 0.0253333 (at node 10)
Injected packet length average = 1
Accepted packet length average = 1
Total in-flight flits = 5 (5 measured)
latency change    = 0.00434385
throughput change = 0.000543478
Draining all recorded packets ...
Draining remaining packets ...
Time taken is 6058 cycles
====== Overall Traffic Statistics ======
====== Traffic class 0 ======
Packet latency average = 19.5619 (100 samples)
	minimum = 7 (100 samples)
	maximum = 39.26 (100 samples)
Network latency average = 19.5619 (100 samples)
	minimum = 7 (100 samples)
	maximum = 39.26 (100 samples)
Flit latency average = 19.5775 (100 samples)
	minimum = 7 (100 samples)
	maximum = 39.29 (100 samples)
Fragmentation average = 0 (100 samples)
	minimum = 0 (100 samples)
	maximum = 0 (100 samples)
Injected packet rate average = 0.0200248 (100 samples)
	minimum = 0.0161435 (100 samples)
	maximum = 0.0241573 (100 samples)
Accepted packet rate average = 0.020025 (100 samples)
	minimum = 0.0161715 (100 samples)
	maximum = 0.0242265 (100 samples)
Injected flit rate average = 0.0200248 (100 samples)
	minimum = 0.0161435 (100 samples)
	maximum = 0.0241573 (100 samples)
Accepted flit rate average = 0.020025 (100 samples)
	minimum = 0.0161715 (100 samples)
	maximum = 0.0242265 (100 samples)
Injected packet size average = 1 (100 samples)
Accepted packet size average = 1 (100 samples)
Hops average = 3.50291 (100 samples)
Total run time 5.08309
