BEGIN Configuration File: /tmp/tmp67fwlkxp.cfg
topology = mesh;
k = 4;
n = 2;
routing_function = planar_adapt;
num_vcs = 4;
vc_buf_size = 4;
wait_for_tail_credit = 1;
vc_allocator = islip;
sw_allocator = islip;
alloc_iters = 1;
credit_delay = 2;
routing_delay = 1;
vc_alloc_delay = 1;
sw_alloc_delay = 1;
input_speedup = 2;
output_speedup = 1;
internal_speedup = 1.0;
traffic = transpose;
packet_size = 1;
sim_type = latency;
injection_rate = 0.02;
warmup_periods = 3;
sample_period = 1000;
sim_count = 100;
seed = 2;

END Configuration File: /tmp/tmp67fwlkxp.cfg
Class 0:
Packet latency average = 18.7762
	minimum = 7
	maximum = 43
Network latency average = 18.7762
	minimum = 7
	maximum = 43
Slowest packet = 122
Flit latency average = 18.7762
	minimum = 7
	maximum = 43
Slowest flit = 122
Fragmentation average = 0
	minimum = 0
	maximum = 0
Injected packet rate average = 0.0180625
	minimum = 0.008 (at node 9)
	maximum = 0.025 (at node 10)
Accepted packet rate average = 0.0173125
	minimum = 0.007 (at node 6)
	maximum = 0.025 (at node 10)
Injected flit rate average = 0.0180625
	minimum = 0.008 (at node 9)
	maximum = 0.025 (at node 10)
Accepted flit rate average= 0.0173125
	minimum = 0.007 (at node 6)
	maximum = 0.025 (at node 10)
Injected packet length average = 1
Accepted packet length average = 1
Total in-flight flits = 12 (0 measured)
latency change    = 1
throughput change = 1
Class 0:
Packet latency average = 19.3586
	minimum = 7
	maximum = 43
Network latency average = 19.3586
	minimum = 7
	maximum = 43
Slowest packet = 122
Flit latency average = 19.3586
	minimum = 7
	maximum = 43
Slowest flit = 122
Fragmentation average = 0
	minimum = 0
	maximum = 0
Injected packet rate average = 0.0190937
	minimum = 0.0145 (at node 2)
	maximum = 0.028 (at node 10)
Accepted packet rate average = 0.019
	minimum = 0.014 (at node 6)
	maximum = 0.028 (at node 10)
Injected flit rate average = 0.0190937
	minimum = 0.0145 (at node 2)
	maximum = 0.028 (at node 10)
Accepted flit rate average= 0.019
	minimum = 0.014 (at node 6)
	maximum = 0.028 (at node 10)
Injected packet length average = 1
Accepted packet length average = 1
Total in-flight flits = 3 (0 measured)
latency change    = 0.0300838
throughput change = 0.0888158
Class 0:
Packet latency average = 19.9794
	minimum = 7
	maximum = 46
Network latency average = 19.9794
	minimum = 7
	maximum = 46
Slowest packet = 834
Flit latency average = 19.9794
	minimum = 7
	maximum = 46
Slowest flit = 834
Fragmentation average = 0
	minimum = 0
	maximum = 0
Injected packet rate average = 0.0185
	minimum = 0.011 (at node 6)
	maximum = 0.025 (at node 10)
Accepted packet rate average = 0.0181875
	minimum = 0.01 (at node 2)
	maximum = 0.024 (at node 10)
Injected flit rate average = 0.0185
	minimum = 0.011 (at node 6)
	maximum = 0.025 (at node 10)
Accepted flit rate average= 0.0181875
	minimum = 0.01 (at node 2)
	maximum = 0.024 (at node 10)
Injected packet length average = 1
Accepted packet length average = 1
Total in-flight flits = 8 (0 measured)
latency change    = 0.0310735
throughput change = 0.0446735
Warmed up ...Time used is 3000 cycles
Class 0:
Packet latency average = 19.4266
	minimum = 7
	maximum = 45
Network latency average = 19.4266
	minimum = 7
	maximum = 45
Slowest packet = 1189
Flit latency average = 19.5366
	minimum = 7
	maximum = 45
Slowest flit = 1189
Fragmentation average = 0
	minimum = 0
	maximum = 0
Injected packet rate average = 0.0229375
	minimum = 0.013 (at node 6)
	maximum = 0.03 (at node 12)
Accepted packet rate average = 0.0230625
	minimum = 0.013 (at node 9)
	maximum = 0.03 (at node 3)
Injected flit rate average = 0.0229375
	minimum = 0.013 (at node 6)
	maximum = 0.03 (at node 12)
Accepted flit rate average= 0.0230625
	minimum = 0.013 (at node 9)
	maximum = 0.03 (at node 3)
Injected packet length average = 1
Accepted packet length average = 1
Total in-flight flits = 6 (6 measured)
latency change    = 0.0284553
throughput change = 0.211382
Class 0:
Packet latency average = 19.5517
	minimum = 7
	maximum = 45
Network latency average = 19.5517
	minimum = 7
	maximum = 45
Slowest packet = 1189
Flit latency average = 19.6104
	minimum = 7
	maximum = 45
Slowest flit = 1189
Fragmentation average = 0
	minimum = 0
	maximum = 0
Injected packet rate average = 0.0210625
	minimum = 0.017 (at node 1)
	maximum = 0.026 (at node 7)
Accepted packet rate average = 0.0210938
	minimum = 0.0165 (at node 4)
	maximum = 0.026 (at node 13)
Injected flit rate average = 0.0210625
	minimum = 0.017 (at node 1)
	maximum = 0.026 (at node 7)
Accepted flit rate average= 0.0210938
	minimum = 0.0165 (at node 4)
	maximum = 0.026 (at node 13)
Injected packet length average = 1
Accepted packet length average = 1
Total in-flight flits = 7 (7 measured)
latency change    = 0.00640002
throughput change = 0.0933333
Class 0:
Packet latency average = 19.4702
	minimum = 7
	maximum = 45
Network latency average = 19.4702
	minimum = 7
	maximum = 45
Slowest packet = 1189
Flit latency average = 19.5105
	minimum = 7
	maximum = 45
Slowest flit = 1189
Fragmentation average = 0
	minimum = 0
	maximum = 0
Injected packet rate average = 0.0206667
	minimum = 0.018 (at node 8)
	maximum = 0.0243333 (at node 10)
Accepted packet rate average = 0.0207708
	minimum = 0.018 (at node 8)
	maximum = 0.0246667 (at node 10)
Injected flit rate average = 0.0206667
	minimum = 0.018 (at node 8)
	maximum = 0.0243333 (at node 10)
Accepted flit rate average= 0.0207708
	minimum = 0.018 (at node 8)
	maximum = 0.0246667 (at node 10)
Injected packet length average = 1
Accepted packet length average = 1
Total in-flight flits = 3 (3 measured)
latency change    = 0.00418857
throughput change = 0.0155466
Class 0:
Packet latency average = 19.4419
	minimum = 7
	maximum = 45
Network latency average = 19.4419
	minimum = 7
	maximum = 45
Slowest packet = 1189
Flit latency average = 19.4728
	minimum = 7
	maximum = 45
Slowest flit = 1189
Fragmentation average = 0
	minimum = 0
	maximum = 0
Injected packet rate average = 0.0204688
	minimum = 0.01725 (at node 2)
	maximum = 0.0225 (at node 4)
Accepted packet rate average = 0.0204219
	minimum = 0.017 (at node 8)
	maximum = 0.02275 (at node 10)
Injected flit rate average = 0.0204688
	minimum = 0.01725 (at node 2)
	maximum = 0.0225 (at node 4)
Accepted flit rate average= 0.0204219
	minimum = 0.017 (at node 8)
	maximum = 0.02275 (at node 10)
Injected packet length average = 1
Accepted packet length average = 1
Total in-flight flits = 11 (11 measured)
latency change    = 0.00145529
throughput change = 0.0170875
Class 0:
Packet latency average = 19.3043
	minimum = 7
	maximum = 46
Network latency average = 19.3043
	minimum = 7
	maximum = 46
Slowest packet = 2395
Flit latency average = 19.3295
	minimum = 7
	maximum = 46
Slowest flit = 2395
Fragmentation average = 0
	minimum = 0
	maximum = 0
Injected packet rate average = 0.0206
	minimum = 0.0174 (at node 2)
	maximum = 0.0236 (at node 15)
Accepted packet rate average = 0.0206
	minimum = 0.017 (at node 8)
	maximum = 0.0238 (at node 15)
Injected flit rate average = 0.0206
	minimum = 0.0174 (at node 2)
	maximum = 0.0236 (at node 15)
Accepted flit rate average= 0.0206
	minimum = 0.017 (at node 8)
	maximum = 0.0238 (at node 15)
Injected packet length average = 1
Accepted packet length average = 1
Total in-flight flits = 8 (8 measured)
latency change    = 0.00712848
throughput change = 0.00864684
Draining all recorded packets ...
Draining remaining packets ...
Time taken is 8056 cycles
Class 0:
Packet latency average = 20.4625
	minimum = 7
	maximum = 42
Network latency average = 20.4625
	minimum = 7
	maximum = 42
Slowest packet = 2785
Flit latency average = 20.4625
	minimum = 7
	maximum = 42
Slowest flit = 2785
Fragmentation average = 0
	minimum = 0
	maximum = 0
Injected packet rate average = 0.020375
	minimum = 0.015 (at node 5)
	maximum = 0.03 (at node 3)
Accepted packet rate average = 0.02
	minimum = 0.015 (at node 5)
	maximum = 0.03 (at node 12)
Injected flit rate average = 0.020375
	minimum = 0.015 (at node 5)
	maximum = 0.03 (at node 3)
Accepted flit rate average= 0.02
	minimum = 0.015 (at node 5)
	maximum = 0.03 (at node 12)
Injected packet length average = 1
Accepted packet length average = 1
Total in-flight flits = 6 (0 measured)
latency change    = 1
throughput change = 1
Class 0:
Packet latency average = 19.7383
	minimum = 7
	maximum = 42
Network latency average = 19.7383
	minimum = 7
	maximum = 42
Slowest packet = 2785
Flit latency average = 19.7383
	minimum = 7
	maximum = 42
Slowest flit = 2785
Fragmentation average = 0
	minimum = 0
	maximum = 0
Injected packet rate average = 0.0209063
	minimum = 0.017 (at node 9)
	maximum = 0.025 (at node 3)
Accepted packet rate average = 0.0207813
	minimum = 0.017 (at node 6)
	maximum = 0.0245 (at node 0)
Injected flit rate average = 0.0209063
	minimum = 0.017 (at node 9)
	maximum = 0.025 (at node 3)
Accepted flit rate average= 0.0207813
	minimum = 0.017 (at node 6)
	maximum = 0.0245 (at node 0)
Injected packet length average = 1
Accepted packet length average = 1
Total in-flight flits = 4 (0 measured)
latency change    = 0.0366877
throughput change = 0.037594
Class 0:
Packet latency average = 20.5101
	minimum = 7
	maximum = 43
Network latency average = 20.5101
	minimum = 7
	maximum = 43
Slowest packet = 3510
Flit latency average = 20.5101
	minimum = 7
	maximum = 43
Slowest flit = 3510
Fragmentation average = 0
	minimum = 0
	maximum = 0
Injected packet rate average = 0.022
	minimum = 0.015 (at node 1)
	maximum = 0.03 (at node 12)
Accepted packet rate average = 0.0215625
	minimum = 0.015 (at node 4)
	maximum = 0.03 (at node 3)
Injected flit rate average = 0.022
	minimum = 0.015 (at node 1)
	maximum = 0.03 (at node 12)
Accepted flit rate average= 0.0215625
	minimum = 0.015 (at node 4)
	maximum = 0.03 (at node 3)
Injected packet length average = 1
Accepted packet length average = 1
Total in-flight flits = 11 (0 measured)
latency change    = 0.0376301
throughput change = 0.0362319
Warmed up ...Time used is 3000 cycles
Class 0:
Packet latency average = 19.6146
	minimum = 7
	maximum = 50
Network latency average = 19.6146
	minimum = 7
	maximum = 50
Slowest packet = 3801
Flit latency average = 19.8654
	minimum = 7
	maximum = 50
Slowest flit = 3801
Fragmentation average = 0
	minimum = 0
	maximum = 0
Injected packet rate average = 0.019125
	minimum = 0.013 (at node 9)
	maximum = 0.027 (at node 1)
Accepted packet rate average = 0.0195
	minimum = 0.013 (at node 6)
	maximum = 0.026 (at node 4)
Injected flit rate average = 0.019125
	minimum = 0.013 (at node 9)
	maximum = 0.027 (at node 1)
Accepted flit rate average= 0.0195
	minimum = 0.013 (at node 6)
	maximum = 0.026 (at node 4)
Injected packet length average = 1
Accepted packet length average = 1
Total in-flight flits = 5 (5 measured)
latency change    = 0.0456561
throughput change = 0.105769
Class 0:
Packet latency average = 19.3289
	minimum = 7
	maximum = 50
Network latency average = 19.3289
	minimum = 7
	maximum = 50
Slowest packet = 3801
Flit latency average = 19.461
	minimum = 7
	maximum = 50
Slowest flit = 3801
Fragmentation average = 0
	minimum = 0
	maximum = 0
Injected packet rate average = 0.019
	minimum = 0.0145 (at node 9)
	maximum = 0.0235 (at node 5)
Accepted packet rate average = 0.01925
	minimum = 0.0135 (at node 6)
	maximum = 0.0235 (at node 5)
Injected flit rate average = 0.019
	minimum = 0.0145 (at node 9)
	maximum = 0.0235 (at node 5)
Accepted flit rate average= 0.01925
	minimum = 0.0135 (at node 6)
	maximum = 0.0235 (at node 5)
Injected packet length average = 1
Accepted packet length average = 1
Total in-flight flits = 3 (3 measured)
latency change    = 0.0147806
throughput change = 0.012987
Class 0:
Packet latency average = 19.6194
	minimum = 7
	maximum = 50
Network latency average = 19.6194
	minimum = 7
	maximum = 50
Slowest packet = 3801
Flit latency average = 19.7037
	minimum = 7
	maximum = 50
Slowest flit = 3801
Fragmentation average = 0
	minimum = 0
	maximum = 0
Injected packet rate average = 0.01925
	minimum = 0.0146667 (at node 6)
	maximum = 0.0226667 (at node 1)
Accepted packet rate average = 0.0193333
	minimum = 0.0153333 (at node 6)
	maximum = 0.0226667 (at node 4)
Injected flit rate average = 0.01925
	minimum = 0.0146667 (at node 6)
	maximum = 0.0226667 (at node 1)
Accepted flit rate average= 0.0193333
	minimum = 0.0153333 (at node 6)
	maximum = 0.0226667 (at node 4)
Injected packet length average = 1
Accepted packet length average = 1
Total in-flight flits = 7 (7 measured)
latency change    = 0.014806
throughput change = 0.00431034
Class 0:
Packet latency average = 19.4524
	minimum = 7
	maximum = 50
Network latency average = 19.4524
	minimum = 7
	maximum = 50
Slowest packet = 3801
Flit latency average = 19.5169
	minimum = 7
	maximum = 50
Slowest flit = 3801
Fragmentation average = 0
	minimum = 0
	maximum = 0
Injected packet rate average = 0.0192969
	minimum = 0.01475 (at node 6)
	maximum = 0.0225 (at node 5)
Accepted packet rate average = 0.019375
	minimum = 0.015 (at node 9)
	maximum = 0.0225 (at node 5)
Injected flit rate average = 0.0192969
	minimum = 0.01475 (at node 6)
	maximum = 0.0225 (at node 5)
Accepted flit rate average= 0.019375
	minimum = 0.015 (at node 9)
	maximum = 0.0225 (at node 5)
Injected packet length average = 1
Accepted packet length average = 1
Total in-flight flits = 6 (6 measured)
latency change    = 0.00858561
throughput change = 0.00215054
Draining all recorded packets ...
Draining remaining packets ...
Time taken is 7045 cycles
Class 0:
Packet latency average = 19.3467
	minimum = 7
	maximum = 53
Network latency average = 19.3467
	minimum = 7
	maximum = 53
Slowest packet = 5051
Flit latency average = 19.3467
	minimum = 7
	maximum = 53
Slowest flit = 5051
Fragmentation average = 0
	minimum = 0
	maximum = 0
Injected packet rate average = 0.0221875
	minimum = 0.011 (at node 2)
	maximum = 0.034 (at node 1)
Accepted packet rate average = 0.0218125
	minimum = 0.011 (at node 8)
	maximum = 0.033 (at node 0)
Injected flit rate average = 0.0221875
	minimum = 0.011 (at node 2)
	maximum = 0.034 (at node 1)
Accepted flit rate average= 0.0218125
	minimum = 0.011 (at node 8)
	maximum = 0.033 (at node 0)
Injected packet length average = 1
Accepted packet length average = 1
Total in-flight flits = 6 (0 measured)
latency change    = 1
throughput change = 1
Class 0:
Packet latency average = 19.6713
	minimum = 7
	maximum = 53
Network latency average = 19.6713
	minimum = 7
	maximum = 53
Slowest packet = 5051
Flit latency average = 19.6713
	minimum = 7
	maximum = 53
Slowest flit = 5051
Fragmentation average = 0
	minimum = 0
	maximum = 0
Injected packet rate average = 0.0201563
	minimum = 0.0165 (at node 7)
	maximum = 0.0265 (at node 0)
Accepted packet rate average = 0.0200625
	minimum = 0.0165 (at node 8)
	maximum = 0.0265 (at node 0)
Injected flit rate average = 0.0201563
	minimum = 0.0165 (at node 7)
	maximum = 0.0265 (at node 0)
Accepted flit rate average= 0.0200625
	minimum = 0.0165 (at node 8)
	maximum = 0.0265 (at node 0)
Injected packet length average = 1
Accepted packet length average = 1
Total in-flight flits = 3 (0 measured)
latency change    = 0.0165029
throughput change = 0.0872274
Class 0:
Packet latency average = 19.2952
	minimum = 7
	maximum = 44
Network latency average = 19.2952
	minimum = 7
	maximum = 44
Slowest packet = 5614
Flit latency average = 19.2952
	minimum = 7
	maximum = 44
Slowest flit = 5614
Fragmentation average = 0
	minimum = 0
	maximum = 0
Injected packet rate average = 0.020125
	minimum = 0.012 (at node 1)
	maximum = 0.028 (at node 4)
Accepted packet rate average = 0.0196875
	minimum = 0.012 (at node 4)
	maximum = 0.028 (at node 8)
Injected flit rate average = 0.020125
	minimum = 0.012 (at node 1)
	maximum = 0.028 (at node 4)
Accepted flit rate average= 0.0196875
	minimum = 0.012 (at node 4)
	maximum = 0.028 (at node 8)
Injected packet length average = 1
Accepted packet length average = 1
Total in-flight flits = 10 (0 measured)
latency change    = 0.0194919
throughput change = 0.0190476
Warmed up ...Time used is 3000 cycles
Class 0:
Packet latency average = 20.7197
	minimum = 7
	maximum = 42
Network latency average = 20.7197
	minimum = 7
	maximum = 42
Slowest packet = 5863
Flit latency average = 20.6934
	minimum = 7
	maximum = 42
Slowest flit = 5863
Fragmentation average = 0
	minimum = 0
	maximum = 0
Injected packet rate average = 0.0168125
	minimum = 0.012 (at node 10)
	maximum = 0.027 (at node 2)
Accepted packet rate average = 0.017125
	minimum = 0.012 (at node 10)
	maximum = 0.026 (at node 3)
Injected flit rate average = 0.0168125
	minimum = 0.012 (at node 10)
	maximum = 0.027 (at node 2)
Accepted flit rate average= 0.017125
	minimum = 0.012 (at node 10)
	maximum = 0.026 (at node 3)
Injected packet length average = 1
Accepted packet length average = 1
Total in-flight flits = 5 (5 measured)
latency change    = 0.068749
throughput change = 0.149635
Class 0:
Packet latency average = 20.5461
	minimum = 7
	maximum = 42
Network latency average = 20.5461
	minimum = 7
	maximum = 42
Slowest packet = 5863
Flit latency average = 20.5369
	minimum = 7
	maximum = 42
Slowest flit = 5863
Fragmentation average = 0
	minimum = 0
	maximum = 0
Injected packet rate average = 0.0185
	minimum = 0.014 (at node 15)
	maximum = 0.027 (at node 12)
Accepted packet rate average = 0.018625
	minimum = 0.014 (at node 15)
	maximum = 0.0265 (at node 3)
Injected flit rate average = 0.0185
	minimum = 0.014 (at node 15)
	maximum = 0.027 (at node 12)
Accepted flit rate average= 0.018625
	minimum = 0.014 (at node 15)
	maximum = 0.0265 (at node 3)
Injected packet length average = 1
Accepted packet length average = 1
Total in-flight flits = 6 (6 measured)
latency change    = 0.00845037
throughput change = 0.0805369
Class 0:
Packet latency average = 20.0707
	minimum = 7
	maximum = 42
Network latency average = 20.0707
	minimum = 7
	maximum = 42
Slowest packet = 5863
Flit latency average = 20.0699
	minimum = 7
	maximum = 42
Slowest flit = 5863
Fragmentation average = 0
	minimum = 0
	maximum = 0
Injected packet rate average = 0.0193125
	minimum = 0.016 (at node 15)
	maximum = 0.0243333 (at node 12)
Accepted packet rate average = 0.019375
	minimum = 0.016 (at node 15)
	maximum = 0.0243333 (at node 3)
Injected flit rate average = 0.0193125
	minimum = 0.016 (at node 15)
	maximum = 0.0243333 (at node 12)
Accepted flit rate average= 0.019375
	minimum = 0.016 (at node 15)
	maximum = 0.0243333 (at node 3)
Injected packet length average = 1
Accepted packet length average = 1
Total in-flight flits = 7 (7 measured)
latency change    = 0.0236875
throughput change = 0.0387097
Class 0:
Packet latency average = 20.1755
	minimum = 7
	maximum = 42
Network latency average = 20.1755
	minimum = 7
	maximum = 42
Slowest packet = 5863
Flit latency average = 20.1741
	minimum = 7
	maximum = 42
Slowest flit = 5863
Fragmentation average = 0
	minimum = 0
	maximum = 0
Injected packet rate average = 0.0196563
	minimum = 0.017 (at node 15)
	maximum = 0.02325 (at node 12)
Accepted packet rate average = 0.0196563
	minimum = 0.017 (at node 15)
	maximum = 0.02325 (at node 3)
Injected flit rate average = 0.0196563
	minimum = 0.017 (at node 15)
	maximum = 0.02325 (at node 12)
Accepted flit rate average= 0.0196563
	minimum = 0.017 (at node 15)
	maximum = 0.02325 (at node 3)
Injected packet length average = 1
Accepted packet length average = 1
Total in-flight flits = 10 (10 measured)
latency change    = 0.00519584
throughput change = 0.0143084
Class 0:
Packet latency average = 20.2003
	minimum = 7
	maximum = 46
Network latency average = 20.2003
	minimum = 7
	maximum = 46
Slowest packet = 7047
Flit latency average = 20.199
	minimum = 7
	maximum = 46
Slowest flit = 7047
Fragmentation average = 0
	minimum = 0
	maximum = 0
Injected packet rate average = 0.019625
	minimum = 0.017 (at node 15)
	maximum = 0.0238 (at node 13)
Accepted packet rate average = 0.0196625
	minimum = 0.017 (at node 15)
	maximum = 0.0236 (at node 7)
Injected flit rate average = 0.019625
	minimum = 0.017 (at node 15)
	maximum = 0.0238 (at node 13)
Accepted flit rate average= 0.0196625
	minimum = 0.017 (at node 15)
	maximum = 0.0236 (at node 7)
Injected packet length average = 1
Accepted packet length average = 1
Total in-flight flits = 7 (7 measured)
latency change    = 0.00122648
throughput change = 0.000317864
Draining all recorded packets ...
Draining remaining packets ...
Time taken is 8049 cycles
Class 0:
Packet latency average = 20.3882
	minimum = 7
	maximum = 41
Network latency average = 20.3882
	minimum = 7
	maximum = 41
Slowest packet = 7419
Flit latency average = 20.3882
	minimum = 7
	maximum = 41
Slowest flit = 7419
Fragmentation average = 0
	minimum = 0
	maximum = 0
Injected packet rate average = 0.0194375
	minimum = 0.014 (at node 0)
	maximum = 0.029 (at node 6)
Accepted packet rate average = 0.019
	minimum = 0.014 (at node 0)
	maximum = 0.028 (at node 9)
Injected flit rate average = 0.0194375
	minimum = 0.014 (at node 0)
	maximum = 0.029 (at node 6)
Accepted flit rate average= 0.019
	minimum = 0.014 (at node 0)
	maximum = 0.028 (at node 9)
Injected packet length average = 1
Accepted packet length average = 1
Total in-flight flits = 7 (0 measured)
latency change    = 1
throughput change = 1
Class 0:
Packet latency average = 20.3439
	minimum = 7
	maximum = 43
Network latency average = 20.3439
	minimum = 7
	maximum = 43
Slowest packet = 7970
Flit latency average = 20.3439
	minimum = 7
	maximum = 43
Slowest flit = 7970
Fragmentation average = 0
	minimum = 0
	maximum = 0
Injected packet rate average = 0.0197188
	minimum = 0.0125 (at node 5)
	maximum = 0.026 (at node 6)
Accepted packet rate average = 0.019625
	minimum = 0.0125 (at node 5)
	maximum = 0.026 (at node 9)
Injected flit rate average = 0.0197188
	minimum = 0.0125 (at node 5)
	maximum = 0.026 (at node 6)
Accepted flit rate average= 0.019625
	minimum = 0.0125 (at node 5)
	maximum = 0.026 (at node 9)
Injected packet length average = 1
Accepted packet length average = 1
Total in-flight flits = 3 (0 measured)
latency change    = 0.00217307
throughput change = 0.0318471
Class 0:
Packet latency average = 21.1029
	minimum = 7
	maximum = 47
Network latency average = 21.1029
	minimum = 7
	maximum = 47
Slowest packet = 8181
Flit latency average = 21.1029
	minimum = 7
	maximum = 47
Slowest flit = 8181
Fragmentation average = 0
	minimum = 0
	maximum = 0
Injected packet rate average = 0.0195
	minimum = 0.013 (at node 5)
	maximum = 0.026 (at node 3)
Accepted packet rate average = 0.0194375
	minimum = 0.013 (at node 5)
	maximum = 0.026 (at node 12)
Injected flit rate average = 0.0195
	minimum = 0.013 (at node 5)
	maximum = 0.026 (at node 3)
Accepted flit rate average= 0.0194375
	minimum = 0.013 (at node 5)
	maximum = 0.026 (at node 12)
Injected packet length average = 1
Accepted packet length average = 1
Total in-flight flits = 4 (0 measured)
latency change    = 0.035964
throughput change = 0.0096463
Warmed up ...Time used is 3000 cycles
Class 0:
Packet latency average = 18.6433
	minimum = 7
	maximum = 47
Network latency average = 18.6433
	minimum = 7
	maximum = 47
Slowest packet = 8600
Flit latency average = 18.744
	minimum = 7
	maximum = 47
Slowest flit = 8600
Fragmentation average = 0
	minimum = 0
	maximum = 0
Injected packet rate average = 0.020875
	minimum = 0.01 (at node 9)
	maximum = 0.033 (at node 4)
Accepted packet rate average = 0.02075
	minimum = 0.01 (at node 6)
	maximum = 0.033 (at node 1)
Injected flit rate average = 0.020875
	minimum = 0.01 (at node 9)
	maximum = 0.033 (at node 4)
Accepted flit rate average= 0.02075
	minimum = 0.01 (at node 6)
	maximum = 0.033 (at node 1)
Injected packet length average = 1
Accepted packet length average = 1
Total in-flight flits = 6 (6 measured)
latency change    = 0.13193
throughput change = 0.063253
Class 0:
Packet latency average = 19.1869
	minimum = 7
	maximum = 47
Network latency average = 19.1869
	minimum = 7
	maximum = 47
Slowest packet = 8600
Flit latency average = 19.2341
	minimum = 7
	maximum = 47
Slowest flit = 8600
Fragmentation average = 0
	minimum = 0
	maximum = 0
Injected packet rate average = 0.0208438
	minimum = 0.0165 (at node 9)
	maximum = 0.0255 (at node 4)
Accepted packet rate average = 0.0206875
	minimum = 0.0165 (at node 6)
	maximum = 0.025 (at node 1)
Injected flit rate average = 0.0208438
	minimum = 0.0165 (at node 9)
	maximum = 0.0255 (at node 4)
Accepted flit rate average= 0.0206875
	minimum = 0.0165 (at node 6)
	maximum = 0.025 (at node 1)
Injected packet length average = 1
Accepted packet length average = 1
Total in-flight flits = 9 (9 measured)
latency change    = 0.0283337
throughput change = 0.00302115
Class 0:
Packet latency average = 19.3856
	minimum = 7
	maximum = 47
Network latency average = 19.3856
	minimum = 7
	maximum = 47
Slowest packet = 8600
Flit latency average = 19.4164
	minimum = 7
	maximum = 47
Slowest flit = 8600
Fragmentation average = 0
	minimum = 0
	maximum = 0
Injected packet rate average = 0.0206458
	minimum = 0.0153333 (at node 9)
	maximum = 0.0246667 (at node 10)
Accepted packet rate average = 0.0205625
	minimum = 0.0153333 (at node 6)
	maximum = 0.0246667 (at node 10)
Injected flit rate average = 0.0206458
	minimum = 0.0153333 (at node 9)
	maximum = 0.0246667 (at node 10)
Accepted flit rate average= 0.0205625
	minimum = 0.0153333 (at node 6)
	maximum = 0.0246667 (at node 10)
Injected packet length average = 1
Accepted packet length average = 1
Total in-flight flits = 8 (8 measured)
latency change    = 0.010246
throughput change = 0.00607903
Class 0:
Packet latency average = 19.659
	minimum = 7
	maximum = 47
Network latency average = 19.659
	minimum = 7
	maximum = 47
Slowest packet = 8600
Flit latency average = 19.6814
	minimum = 7
	maximum = 47
Slowest flit = 8600
Fragmentation average = 0
	minimum = 0
	maximum = 0
Injected packet rate average = 0.0205
	minimum = 0.016 (at node 5)
	maximum = 0.02375 (at node 4)
Accepted packet rate average = 0.0205
	minimum = 0.016 (at node 5)
	maximum = 0.02375 (at node 1)
Injected flit rate average = 0.0205
	minimum = 0.016 (at node 5)
	maximum = 0.02375 (at node 4)
Accepted flit rate average= 0.0205
	minimum = 0.016 (at node 5)
	maximum = 0.02375 (at node 1)
Injected packet length average = 1
Accepted packet length average = 1
Total in-flight flits = 4 (4 measured)
latency change    = 0.0139105
throughput change = 0.00304878
Draining all recorded packets ...
Draining remaining packets ...
Time taken is 7055 cycles
Class 0:
Packet latency average = 19.9803
	minimum = 7
	maximum = 48
Network latency average = 19.9803
	minimum = 7
	maximum = 48
Slowest packet = 9680
Flit latency average = 19.9803
	minimum = 7
	maximum = 48
Slowest flit = 9680
Fragmentation average = 0
	minimum = 0
	maximum = 0
Injected packet rate average = 0.019375
	minimum = 0.014 (at node 11)
	maximum = 0.029 (at node 6)
Accepted packet rate average = 0.0190625
	minimum = 0.013 (at node 14)
	maximum = 0.028 (at node 9)
Injected flit rate average = 0.019375
	minimum = 0.014 (at node 11)
	maximum = 0.029 (at node 6)
Accepted flit rate average= 0.0190625
	minimum = 0.013 (at node 14)
	maximum = 0.028 (at node 9)
Injected packet length average = 1
Accepted packet length average = 1
Total in-flight flits = 5 (0 measured)
latency change    = 1
throughput change = 1
Class 0:
Packet latency average = 19.5528
	minimum = 7
	maximum = 48
Network latency average = 19.5528
	minimum = 7
	maximum = 48
Slowest packet = 9680
Flit latency average = 19.5528
	minimum = 7
	maximum = 48
Slowest flit = 9680
Fragmentation average = 0
	minimum = 0
	maximum = 0
Injected packet rate average = 0.019375
	minimum = 0.015 (at node 7)
	maximum = 0.024 (at node 4)
Accepted packet rate average = 0.0192187
	minimum = 0.015 (at node 13)
	maximum = 0.024 (at node 1)
Injected flit rate average = 0.019375
	minimum = 0.015 (at node 7)
	maximum = 0.024 (at node 4)
Accepted flit rate average= 0.0192187
	minimum = 0.015 (at node 13)
	maximum = 0.024 (at node 1)
Injected packet length average = 1
Accepted packet length average = 1
Total in-flight flits = 5 (0 measured)
latency change    = 0.0218629
throughput change = 0.00813008
Class 0:
Packet latency average = 20.1912
	minimum = 7
	maximum = 43
Network latency average = 20.1912
	minimum = 7
	maximum = 43
Slowest packet = 10534
Flit latency average = 20.1912
	minimum = 7
	maximum = 43
Slowest flit = 10534
Fragmentation average = 0
	minimum = 0
	maximum = 0
Injected packet rate average = 0.0214375
	minimum = 0.015 (at node 12)
	maximum = 0.032 (at node 3)
Accepted packet rate average = 0.02125
	minimum = 0.014 (at node 3)
	maximum = 0.031 (at node 12)
Injected flit rate average = 0.0214375
	minimum = 0.015 (at node 12)
	maximum = 0.032 (at node 3)
Accepted flit rate average= 0.02125
	minimum = 0.014 (at node 3)
	maximum = 0.031 (at node 12)
Injected packet length average = 1
Accepted packet length average = 1
Total in-flight flits = 8 (0 measured)
latency change    = 0.0316144
throughput change = 0.0955882
Warmed up ...Time used is 3000 cycles
Class 0:
Packet latency average = 19.2185
	minimum = 7
	maximum = 42
Network latency average = 19.2185
	minimum = 7
	maximum = 42
Slowest packet = 10701
Flit latency average = 19.4
	minimum = 7
	maximum = 42
Slowest flit = 10701
Fragmentation average = 0
	minimum = 0
	maximum = 0
Injected packet rate average = 0.019375
	minimum = 0.012 (at node 12)
	maximum = 0.03 (at node 11)
Accepted packet rate average = 0.019375
	minimum = 0.013 (at node 3)
	maximum = 0.03 (at node 14)
Injected flit rate average = 0.019375
	minimum = 0.012 (at node 12)
	maximum = 0.03 (at node 11)
Accepted flit rate average= 0.019375
	minimum = 0.013 (at node 3)
	maximum = 0.03 (at node 14)
Injected packet length average = 1
Accepted packet length average = 1
Total in-flight flits = 8 (8 measured)
latency change    = 0.0506091
throughput change = 0.0967742
Class 0:
Packet latency average = 19.311
	minimum = 7
	maximum = 46
Network latency average = 19.311
	minimum = 7
	maximum = 46
Slowest packet = 11085
Flit latency average = 19.4006
	minimum = 7
	maximum = 46
Slowest flit = 11085
Fragmentation average = 0
	minimum = 0
	maximum = 0
Injected packet rate average = 0.0192812
	minimum = 0.0145 (at node 3)
	maximum = 0.026 (at node 7)
Accepted packet rate average = 0.0193437
	minimum = 0.014 (at node 1)
	maximum = 0.026 (at node 13)
Injected flit rate average = 0.0192812
	minimum = 0.0145 (at node 3)
	maximum = 0.026 (at node 7)
Accepted flit rate average= 0.0193437
	minimum = 0.014 (at node 1)
	maximum = 0.026 (at node 13)
Injected packet length average = 1
Accepted packet length average = 1
Total in-flight flits = 6 (6 measured)
latency change    = 0.00478602
throughput change = 0.00161551
Class 0:
Packet latency average = 19.4289
	minimum = 7
	maximum = 46
Network latency average = 19.4289
	minimum = 7
	maximum = 46
Slowest packet = 11085
Flit latency average = 19.4876
	minimum = 7
	maximum = 46
Slowest flit = 11085
Fragmentation average = 0
	minimum = 0
	maximum = 0
Injected packet rate average = 0.0193125
	minimum = 0.016 (at node 13)
	maximum = 0.0246667 (at node 7)
Accepted packet rate average = 0.0193542
	minimum = 0.0163333 (at node 7)
	maximum = 0.0243333 (at node 13)
Injected flit rate average = 0.0193125
	minimum = 0.016 (at node 13)
	maximum = 0.0246667 (at node 7)
Accepted flit rate average= 0.0193542
	minimum = 0.0163333 (at node 7)
	maximum = 0.0243333 (at node 13)
Injected packet length average = 1
Accepted packet length average = 1
Total in-flight flits = 6 (6 measured)
latency change    = 0.00606911
throughput change = 0.000538213
Class 0:
Packet latency average = 19.4526
	minimum = 7
	maximum = 46
Network latency average = 19.4526
	minimum = 7
	maximum = 46
Slowest packet = 11085
Flit latency average = 19.4968
	minimum = 7
	maximum = 46
Slowest flit = 11085
Fragmentation average = 0
	minimum = 0
	maximum = 0
Injected packet rate average = 0.01925
	minimum = 0.016 (at node 12)
	maximum = 0.024 (at node 7)
Accepted packet rate average = 0.01925
	minimum = 0.01625 (at node 0)
	maximum = 0.023 (at node 13)
Injected flit rate average = 0.01925
	minimum = 0.016 (at node 12)
	maximum = 0.024 (at node 7)
Accepted flit rate average= 0.01925
	minimum = 0.01625 (at node 0)
	maximum = 0.023 (at node 13)
Injected packet length average = 1
Accepted packet length average = 1
Total in-flight flits = 8 (8 measured)
latency change    = 0.00122003
throughput change = 0.00541126
Draining all recorded packets ...
Draining remaining packets ...
Time taken is 7058 cycles
Class 0:
Packet latency average = 19.2063
	minimum = 7
	maximum = 43
Network latency average = 19.2063
	minimum = 7
	maximum = 43
Slowest packet = 11966
Flit latency average = 19.2063
	minimum = 7
	maximum = 43
Slowest flit = 11966
Fragmentation average = 0
	minimum = 0
	maximum = 0
Injected packet rate average = 0.019875
	minimum = 0.013 (at node 5)
	maximum = 0.031 (at node 0)
Accepted packet rate average = 0.0196875
	minimum = 0.013 (at node 5)
	maximum = 0.031 (at node 0)
Injected flit rate average = 0.019875
	minimum = 0.013 (at node 5)
	maximum = 0.031 (at node 0)
Accepted flit rate average= 0.0196875
	minimum = 0.013 (at node 5)
	maximum = 0.031 (at node 0)
Injected packet length average = 1
Accepted packet length average = 1
Total in-flight flits = 3 (0 measured)
latency change    = 1
throughput change = 1
Class 0:
Packet latency average = 20.0183
	minimum = 7
	maximum = 44
Network latency average = 20.0183
	minimum = 7
	maximum = 44
Slowest packet = 12167
Flit latency average = 20.0183
	minimum = 7
	maximum = 44
Slowest flit = 12167
Fragmentation average = 0
	minimum = 0
	maximum = 0
Injected packet rate average = 0.0189062
	minimum = 0.015 (at node 5)
	maximum = 0.0255 (at node 0)
Accepted packet rate average = 0.01875
	minimum = 0.015 (at node 5)
	maximum = 0.025 (at node 0)
Injected flit rate average = 0.0189062
	minimum = 0.015 (at node 5)
	maximum = 0.0255 (at node 0)
Accepted flit rate average= 0.01875
	minimum = 0.015 (at node 5)
	maximum = 0.025 (at node 0)
Injected packet length average = 1
Accepted packet length average = 1
Total in-flight flits = 5 (0 measured)
latency change    = 0.040562
throughput change = 0.05
Class 0:
Packet latency average = 19.9712
	minimum = 7
	maximum = 51
Network latency average = 19.9712
	minimum = 7
	maximum = 51
Slowest packet = 12508
Flit latency average = 19.9712
	minimum = 7
	maximum = 51
Slowest flit = 12508
Fragmentation average = 0
	minimum = 0
	maximum = 0
Injected packet rate average = 0.01975
	minimum = 0.012 (at node 13)
	maximum = 0.026 (at node 11)
Accepted packet rate average = 0.0195
	minimum = 0.012 (at node 7)
	maximum = 0.026 (at node 14)
Injected flit rate average = 0.01975
	minimum = 0.012 (at node 13)
	maximum = 0.026 (at node 11)
Accepted flit rate average= 0.0195
	minimum = 0.012 (at node 7)
	maximum = 0.026 (at node 14)
Injected packet length average = 1
Accepted packet length average = 1
Total in-flight flits = 9 (0 measured)
latency change    = 0.00236238
throughput change = 0.0384615
Warmed up ...Time used is 3000 cycles
Class 0:
Packet latency average = 19.7574
	minimum = 7
	maximum = 44
Network latency average = 19.7574
	minimum = 7
	maximum = 44
Slowest packet = 12921
Flit latency average = 19.965
	minimum = 7
	maximum = 44
Slowest flit = 12921
Fragmentation average = 0
	minimum = 0
	maximum = 0
Injected packet rate average = 0.0191875
	minimum = 0.013 (at node 14)
	maximum = 0.026 (at node 1)
Accepted packet rate average = 0.019625
	minimum = 0.014 (at node 0)
	maximum = 0.026 (at node 4)
Injected flit rate average = 0.0191875
	minimum = 0.013 (at node 14)
	maximum = 0.026 (at node 1)
Accepted flit rate average= 0.019625
	minimum = 0.014 (at node 0)
	maximum = 0.026 (at node 4)
Injected packet length average = 1
Accepted packet length average = 1
Total in-flight flits = 2 (2 measured)
latency change    = 0.0108201
throughput change = 0.00636943
Class 0:
Packet latency average = 19.5393
	minimum = 7
	maximum = 44
Network latency average = 19.5393
	minimum = 7
	maximum = 44
Slowest packet = 12921
Flit latency average = 19.6434
	minimum = 7
	maximum = 44
Slowest flit = 12921
Fragmentation average = 0
	minimum = 0
	maximum = 0
Injected packet rate average = 0.0200313
	minimum = 0.015 (at node 2)
	maximum = 0.023 (at node 8)
Accepted packet rate average = 0.0201563
	minimum = 0.015 (at node 8)
	maximum = 0.0235 (at node 2)
Injected flit rate average = 0.0200313
	minimum = 0.015 (at node 2)
	maximum = 0.023 (at node 8)
Accepted flit rate average= 0.0201563
	minimum = 0.015 (at node 8)
	maximum = 0.0235 (at node 2)
Injected packet length average = 1
Accepted packet length average = 1
Total in-flight flits = 5 (5 measured)
latency change    = 0.0111605
throughput change = 0.0263566
Class 0:
Packet latency average = 19.317
	minimum = 7
	maximum = 46
Network latency average = 19.317
	minimum = 7
	maximum = 46
Slowest packet = 13439
Flit latency average = 19.3932
	minimum = 7
	maximum = 46
Slowest flit = 13439
Fragmentation average = 0
	minimum = 0
	maximum = 0
Injected packet rate average = 0.018875
	minimum = 0.015 (at node 12)
	maximum = 0.0213333 (at node 10)
Accepted packet rate average = 0.0189167
	minimum = 0.0156667 (at node 3)
	maximum = 0.0213333 (at node 10)
Injected flit rate average = 0.018875
	minimum = 0.015 (at node 12)
	maximum = 0.0213333 (at node 10)
Accepted flit rate average= 0.0189167
	minimum = 0.0156667 (at node 3)
	maximum = 0.0213333 (at node 10)
Injected packet length average = 1
Accepted packet length average = 1
Total in-flight flits = 7 (7 measured)
latency change    = 0.0115074
throughput change = 0.0655286
Class 0:
Packet latency average = 19.3531
	minimum = 7
	maximum = 46
Network latency average = 19.3531
	minimum = 7
	maximum = 46
Slowest packet = 13439
Flit latency average = 19.4085
	minimum = 7
	maximum = 46
Slowest flit = 13439
Fragmentation average = 0
	minimum = 0
	maximum = 0
Injected packet rate average = 0.019375
	minimum = 0.01625 (at node 12)
	maximum = 0.0235 (at node 10)
Accepted packet rate average = 0.0193906
	minimum = 0.0165 (at node 3)
	maximum = 0.0235 (at node 10)
Injected flit rate average = 0.019375
	minimum = 0.01625 (at node 12)
	maximum = 0.0235 (at node 10)
Accepted flit rate average= 0.0193906
	minimum = 0.0165 (at node 3)
	maximum = 0.0235 (at node 10)
Injected packet length average = 1
Accepted packet length average = 1
Total in-flight flits = 8 (8 measured)
latency change    = 0.00186355
throughput change = 0.0244427
Class 0:
Packet latency average = 19.3636
	minimum = 7
	maximum = 46
Network latency average = 19.3636
	minimum = 7
	maximum = 46
Slowest packet = 13439
Flit latency average = 19.4075
	minimum = 7
	maximum = 46
Slowest flit = 13439
Fragmentation average = 0
	minimum = 0
	maximum = 0
Injected packet rate average = 0.019475
	minimum = 0.0168 (at node 2)
	maximum = 0.0232 (at node 10)
Accepted packet rate average = 0.0195375
	minimum = 0.017 (at node 8)
	maximum = 0.0232 (at node 10)
Injected flit rate average = 0.019475
	minimum = 0.0168 (at node 2)
	maximum = 0.0232 (at node 10)
Accepted flit rate average= 0.0195375
	minimum = 0.017 (at node 8)
	maximum = 0.0232 (at node 10)
Injected packet length average = 1
Accepted packet length average = 1
Total in-flight flits = 4 (4 measured)
latency change    = 0.000541917
throughput change = 0.00751759
Class 0:
Packet latency average = 19.6139
	minimum = 7
	maximum = 46
Network latency average = 19.6139
	minimum = 7
	maximum = 46
Slowest packet = 13439
Flit latency average = 19.6494
	minimum = 7
	maximum = 46
Slowest flit = 13439
Fragmentation average = 0
	minimum = 0
	maximum = 0
Injected packet rate average = 0.0194896
	minimum = 0.0173333 (at node 7)
	maximum = 0.0225 (at node 10)
Accepted packet rate average = 0.0195208
	minimum = 0.0176667 (at node 13)
	maximum = 0.0225 (at node 10)
Injected flit rate average = 0.0194896
	minimum = 0.0173333 (at node 7)
	maximum = 0.0225 (at node 10)
Accepted flit rate average= 0.0195208
	minimum = 0.0176667 (at node 13)
	maximum = 0.0225 (at node 10)
Injected packet length average = 1
Accepted packet length average = 1
Total in-flight flits = 6 (6 measured)
latency change    = 0.0127646
throughput change = 0.000853789
Draining all recorded packets ...
Draining remaining packets ...
Time taken is 9046 cycles
Class 0:
Packet latency average = 19.3
	minimum = 7
	maximum = 40
Network latency average = 19.3
	minimum = 7
	maximum = 40
Slowest packet = 14704
Flit latency average = 19.3
	minimum = 7
	maximum = 40
Slowest flit = 14704
Fragmentation average = 0
	minimum = 0
	maximum = 0
Injected packet rate average = 0.021625
	minimum = 0.014 (at node 2)
	maximum = 0.03 (at node 4)
Accepted packet rate average = 0.02125
	minimum = 0.014 (at node 8)
	maximum = 0.03 (at node 1)
Injected flit rate average = 0.021625
	minimum = 0.014 (at node 2)
	maximum = 0.03 (at node 4)
Accepted flit rate average= 0.02125
	minimum = 0.014 (at node 8)
	maximum = 0.03 (at node 1)
Injected packet length average = 1
Accepted packet length average = 1
Total in-flight flits = 6 (0 measured)
latency change    = 1
throughput change = 1
Class 0:
Packet latency average = 19.4181
	minimum = 7
	maximum = 47
Network latency average = 19.4181
	minimum = 7
	maximum = 47
Slowest packet = 15166
Flit latency average = 19.4181
	minimum = 7
	maximum = 47
Slowest flit = 15166
Fragmentation average = 0
	minimum = 0
	maximum = 0
Injected packet rate average = 0.0215312
	minimum = 0.0155 (at node 2)
	maximum = 0.0265 (at node 4)
Accepted packet rate average = 0.021375
	minimum = 0.0155 (at node 8)
	maximum = 0.0265 (at node 1)
Injected flit rate average = 0.0215312
	minimum = 0.0155 (at node 2)
	maximum = 0.0265 (at node 4)
Accepted flit rate average= 0.021375
	minimum = 0.0155 (at node 8)
	maximum = 0.0265 (at node 1)
Injected packet length average = 1
Accepted packet length average = 1
Total in-flight flits = 5 (0 measured)
latency change    = 0.00608342
throughput change = 0.00584795
Class 0:
Packet latency average = 19.5482
	minimum = 7
	maximum = 46
Network latency average = 19.5482
	minimum = 7
	maximum = 46
Slowest packet = 15611
Flit latency average = 19.5482
	minimum = 7
	maximum = 46
Slowest flit = 15611
Fragmentation average = 0
	minimum = 0
	maximum = 0
Injected packet rate average = 0.0208125
	minimum = 0.016 (at node 7)
	maximum = 0.025 (at node 0)
Accepted packet rate average = 0.02075
	minimum = 0.016 (at node 3)
	maximum = 0.025 (at node 0)
Injected flit rate average = 0.0208125
	minimum = 0.016 (at node 7)
	maximum = 0.025 (at node 0)
Accepted flit rate average= 0.02075
	minimum = 0.016 (at node 3)
	maximum = 0.025 (at node 0)
Injected packet length average = 1
Accepted packet length average = 1
Total in-flight flits = 6 (0 measured)
latency change    = 0.00665351
throughput change = 0.0301205
Warmed up ...Time used is 3000 cycles
Class 0:
Packet latency average = 19.328
	minimum = 7
	maximum = 45
Network latency average = 19.328
	minimum = 7
	maximum = 45
Slowest packet = 15809
Flit latency average = 19.4732
	minimum = 7
	maximum = 45
Slowest flit = 15809
Fragmentation average = 0
	minimum = 0
	maximum = 0
Injected packet rate average = 0.02
	minimum = 0.013 (at node 12)
	maximum = 0.029 (at node 1)
Accepted packet rate average = 0.0198125
	minimum = 0.013 (at node 6)
	maximum = 0.029 (at node 4)
Injected flit rate average = 0.02
	minimum = 0.013 (at node 12)
	maximum = 0.029 (at node 1)
Accepted flit rate average= 0.0198125
	minimum = 0.013 (at node 6)
	maximum = 0.029 (at node 4)
Injected packet length average = 1
Accepted packet length average = 1
Total in-flight flits = 9 (9 measured)
latency change    = 0.0113938
throughput change = 0.0473186
Class 0:
Packet latency average = 19.3185
	minimum = 7
	maximum = 45
Network latency average = 19.3185
	minimum = 7
	maximum = 45
Slowest packet = 15809
Flit latency average = 19.3909
	minimum = 7
	maximum = 45
Slowest flit = 15809
Fragmentation average = 0
	minimum = 0
	maximum = 0
Injected packet rate average = 0.0197813
	minimum = 0.0165 (at node 11)
	maximum = 0.0245 (at node 1)
Accepted packet rate average = 0.0199063
	minimum = 0.017 (at node 2)
	maximum = 0.0245 (at node 4)
Injected flit rate average = 0.0197813
	minimum = 0.0165 (at node 11)
	maximum = 0.0245 (at node 1)
Accepted flit rate average= 0.0199063
	minimum = 0.017 (at node 2)
	maximum = 0.0245 (at node 4)
Injected packet length average = 1
Accepted packet length average = 1
Total in-flight flits = 2 (2 measured)
latency change    = 0.00048825
throughput change = 0.00470958
Class 0:
Packet latency average = 19.4404
	minimum = 7
	maximum = 45
Network latency average = 19.4404
	minimum = 7
	maximum = 45
Slowest packet = 15809
Flit latency average = 19.4875
	minimum = 7
	maximum = 45
Slowest flit = 15809
Fragmentation average = 0
	minimum = 0
	maximum = 0
Injected packet rate average = 0.0201667
	minimum = 0.0166667 (at node 8)
	maximum = 0.0236667 (at node 6)
Accepted packet rate average = 0.0200417
	minimum = 0.0163333 (at node 2)
	maximum = 0.0236667 (at node 9)
Injected flit rate average = 0.0201667
	minimum = 0.0166667 (at node 8)
	maximum = 0.0236667 (at node 6)
Accepted flit rate average= 0.0200417
	minimum = 0.0163333 (at node 2)
	maximum = 0.0236667 (at node 9)
Injected packet length average = 1
Accepted packet length average = 1
Total in-flight flits = 12 (12 measured)
latency change    = 0.00626709
throughput change = 0.00675676
Draining all recorded packets ...
Draining remaining packets ...
Time taken is 6062 cycles
Class 0:
Packet latency average = 20.7675
	minimum = 7
	maximum = 41
Network latency average = 20.7675
	minimum = 7
	maximum = 41
Slowest packet = 16694
Flit latency average = 20.7675
	minimum = 7
	maximum = 41
Slowest flit = 16694
Fragmentation average = 0
	minimum = 0
	maximum = 0
Injected packet rate average = 0.02
	minimum = 0.011 (at node 11)
	maximum = 0.034 (at node 12)
Accepted packet rate average = 0.019625
	minimum = 0.01 (at node 14)
	maximum = 0.032 (at node 3)
Injected flit rate average = 0.02
	minimum = 0.011 (at node 11)
	maximum = 0.034 (at node 12)
Accepted flit rate average= 0.019625
	minimum = 0.01 (at node 14)
	maximum = 0.032 (at node 3)
Injected packet length average = 1
Accepted packet length average = 1
Total in-flight flits = 6 (0 measured)
latency change    = 1
throughput change = 1
Class 0:
Packet latency average = 20.792
	minimum = 7
	maximum = 45
Network latency average = 20.792
	minimum = 7
	maximum = 45
Slowest packet = 16981
Flit latency average = 20.792
	minimum = 7
	maximum = 45
Slowest flit = 16981
Fragmentation average = 0
	minimum = 0
	maximum = 0
Injected packet rate average = 0.01975
	minimum = 0.013 (at node 14)
	maximum = 0.0265 (at node 2)
Accepted packet rate average = 0.0195312
	minimum = 0.013 (at node 11)
	maximum = 0.0265 (at node 8)
Injected flit rate average = 0.01975
	minimum = 0.013 (at node 14)
	maximum = 0.0265 (at node 2)
Accepted flit rate average= 0.0195312
	minimum = 0.013 (at node 11)
	maximum = 0.0265 (at node 8)
Injected packet length average = 1
Accepted packet length average = 1
Total in-flight flits = 7 (0 measured)
latency change    = 0.00117757
throughput change = 0.0048
Class 0:
Packet latency average = 19.7233
	minimum = 7
	maximum = 41
Network latency average = 19.7233
	minimum = 7
	maximum = 41
Slowest packet = 17374
Flit latency average = 19.7233
	minimum = 7
	maximum = 41
Slowest flit = 17374
Fragmentation average = 0
	minimum = 0
	maximum = 0
Injected packet rate average = 0.0199375
	minimum = 0.014 (at node 7)
	maximum = 0.028 (at node 1)
Accepted packet rate average = 0.019875
	minimum = 0.015 (at node 13)
	maximum = 0.028 (at node 4)
Injected flit rate average = 0.0199375
	minimum = 0.014 (at node 7)
	maximum = 0.028 (at node 1)
Accepted flit rate average= 0.019875
	minimum = 0.015 (at node 13)
	maximum = 0.028 (at node 4)
Injected packet length average = 1
Accepted packet length average = 1
Total in-flight flits = 8 (0 measured)
latency change    = 0.0541862
throughput change = 0.0172956
Warmed up ...Time used is 3000 cycles
Class 0:
Packet latency average = 18.9773
	minimum = 7
	maximum = 54
Network latency average = 18.9773
	minimum = 7
	maximum = 54
Slowest packet = 17605
Flit latency average = 19.2965
	minimum = 7
	maximum = 54
Slowest flit = 17605
Fragmentation average = 0
	minimum = 0
	maximum = 0
Injected packet rate average = 0.0199375
	minimum = 0.011 (at node 2)
	maximum = 0.025 (at node 4)
Accepted packet rate average = 0.0198125
	minimum = 0.012 (at node 8)
	maximum = 0.025 (at node 1)
Injected flit rate average = 0.0199375
	minimum = 0.011 (at node 2)
	maximum = 0.025 (at node 4)
Accepted flit rate average= 0.0198125
	minimum = 0.012 (at node 8)
	maximum = 0.025 (at node 1)
Injected packet length average = 1
Accepted packet length average = 1
Total in-flight flits = 10 (10 measured)
latency change    = 0.039306
throughput change = 0.00315457
Class 0:
Packet latency average = 18.8612
	minimum = 7
	maximum = 54
Network latency average = 18.8612
	minimum = 7
	maximum = 54
Slowest packet = 17605
Flit latency average = 19.0134
	minimum = 7
	maximum = 54
Slowest flit = 17605
Fragmentation average = 0
	minimum = 0
	maximum = 0
Injected packet rate average = 0.0207813
	minimum = 0.0155 (at node 7)
	maximum = 0.027 (at node 9)
Accepted packet rate average = 0.0209688
	minimum = 0.016 (at node 7)
	maximum = 0.027 (at node 6)
Injected flit rate average = 0.0207813
	minimum = 0.0155 (at node 7)
	maximum = 0.027 (at node 9)
Accepted flit rate average= 0.0209688
	minimum = 0.016 (at node 7)
	maximum = 0.027 (at node 6)
Injected packet length average = 1
Accepted packet length average = 1
Total in-flight flits = 2 (2 measured)
latency change    = 0.00615598
throughput change = 0.0551416
Class 0:
Packet latency average = 19.0804
	minimum = 7
	maximum = 54
Network latency average = 19.0804
	minimum = 7
	maximum = 54
Slowest packet = 17605
Flit latency average = 19.1816
	minimum = 7
	maximum = 54
Slowest flit = 17605
Fragmentation average = 0
	minimum = 0
	maximum = 0
Injected packet rate average = 0.0205833
	minimum = 0.015 (at node 7)
	maximum = 0.0256667 (at node 9)
Accepted packet rate average = 0.0206458
	minimum = 0.015 (at node 13)
	maximum = 0.0256667 (at node 6)
Injected flit rate average = 0.0205833
	minimum = 0.015 (at node 7)
	maximum = 0.0256667 (at node 9)
Accepted flit rate average= 0.0206458
	minimum = 0.015 (at node 13)
	maximum = 0.0256667 (at node 6)
Injected packet length average = 1
Accepted packet length average = 1
Total in-flight flits = 5 (5 measured)
latency change    = 0.0114846
throughput change = 0.0156408
Class 0:
Packet latency average = 19.3223
	minimum = 7
	maximum = 54
Network latency average = 19.3223
	minimum = 7
	maximum = 54
Slowest packet = 17605
Flit latency average = 19.3944
	minimum = 7
	maximum = 54
Slowest flit = 17605
Fragmentation average = 0
	minimum = 0
	maximum = 0
Injected packet rate average = 0.0212969
	minimum = 0.0175 (at node 7)
	maximum = 0.025 (at node 4)
Accepted packet rate average = 0.0213125
	minimum = 0.01775 (at node 13)
	maximum = 0.02475 (at node 1)
Injected flit rate average = 0.0212969
	minimum = 0.0175 (at node 7)
	maximum = 0.025 (at node 4)
Accepted flit rate average= 0.0213125
	minimum = 0.01775 (at node 13)
	maximum = 0.02475 (at node 1)
Injected packet length average = 1
Accepted packet length average = 1
Total in-flight flits = 7 (7 measured)
latency change    = 0.0125195
throughput change = 0.0312805
Class 0:
Packet latency average = 19.4612
	minimum = 7
	maximum = 54
Network latency average = 19.4612
	minimum = 7
	maximum = 54
Slowest packet = 17605
Flit latency average = 19.5186
	minimum = 7
	maximum = 54
Slowest flit = 17605
Fragmentation average = 0
	minimum = 0
	maximum = 0
Injected packet rate average = 0.0212125
	minimum = 0.0188 (at node 11)
	maximum = 0.0252 (at node 8)
Accepted packet rate average = 0.0212125
	minimum = 0.0188 (at node 3)
	maximum = 0.0252 (at node 2)
Injected flit rate average = 0.0212125
	minimum = 0.0188 (at node 11)
	maximum = 0.0252 (at node 8)
Accepted flit rate average= 0.0212125
	minimum = 0.0188 (at node 3)
	maximum = 0.0252 (at node 2)
Injected packet length average = 1
Accepted packet length average = 1
Total in-flight flits = 8 (8 measured)
latency change    = 0.00713975
throughput change = 0.0047142
Draining all recorded packets ...
Draining remaining packets ...
Time taken is 8042 cycles
Class 0:
Packet latency average = 19.4123
	minimum = 7
	maximum = 53
Network latency average = 19.4123
	minimum = 7
	maximum = 53
Slowest packet = 19533
Flit latency average = 19.4123
	minimum = 7
	maximum = 53
Slowest flit = 19533
Fragmentation average = 0
	minimum = 0
	maximum = 0
Injected packet rate average = 0.01975
	minimum = 0.013 (at node 2)
	maximum = 0.029 (at node 13)
Accepted packet rate average = 0.01925
	minimum = 0.013 (at node 8)
	maximum = 0.028 (at node 7)
Injected flit rate average = 0.01975
	minimum = 0.013 (at node 2)
	maximum = 0.029 (at node 13)
Accepted flit rate average= 0.01925
	minimum = 0.013 (at node 8)
	maximum = 0.028 (at node 7)
Injected packet length average = 1
Accepted packet length average = 1
Total in-flight flits = 8 (0 measured)
latency change    = 1
throughput change = 1
Class 0:
Packet latency average = 19.8264
	minimum = 7
	maximum = 53
Network latency average = 19.8264
	minimum = 7
	maximum = 53
Slowest packet = 19533
Flit latency average = 19.8264
	minimum = 7
	maximum = 53
Slowest flit = 19533
Fragmentation average = 0
	minimum = 0
	maximum = 0
Injected packet rate average = 0.0190937
	minimum = 0.015 (at node 12)
	maximum = 0.028 (at node 13)
Accepted packet rate average = 0.0187187
	minimum = 0.014 (at node 3)
	maximum = 0.0275 (at node 7)
Injected flit rate average = 0.0190937
	minimum = 0.015 (at node 12)
	maximum = 0.028 (at node 13)
Accepted flit rate average= 0.0187187
	minimum = 0.014 (at node 3)
	maximum = 0.0275 (at node 7)
Injected packet length average = 1
Accepted packet length average = 1
Total in-flight flits = 12 (0 measured)
latency change    = 0.0208833
throughput change = 0.0283806
Class 0:
Packet latency average = 19.1006
	minimum = 7
	maximum = 44
Network latency average = 19.1006
	minimum = 7
	maximum = 44
Slowest packet = 19892
Flit latency average = 19.1006
	minimum = 7
	maximum = 44
Slowest flit = 19892
Fragmentation average = 0
	minimum = 0
	maximum = 0
Injected packet rate average = 0.0186875
	minimum = 0.012 (at node 11)
	maximum = 0.03 (at node 15)
Accepted packet rate average = 0.01925
	minimum = 0.013 (at node 12)
	maximum = 0.03 (at node 15)
Injected flit rate average = 0.0186875
	minimum = 0.012 (at node 11)
	maximum = 0.03 (at node 15)
Accepted flit rate average= 0.01925
	minimum = 0.013 (at node 12)
	maximum = 0.03 (at node 15)
Injected packet length average = 1
Accepted packet length average = 1
Total in-flight flits = 3 (0 measured)
latency change    = 0.0379949
throughput change = 0.0275974
Warmed up ...Time used is 3000 cycles
Class 0:
Packet latency average = 18.6082
	minimum = 7
	maximum = 43
Network latency average = 18.6082
	minimum = 7
	maximum = 43
Slowest packet = 20267
Flit latency average = 18.7795
	minimum = 7
	maximum = 43
Slowest flit = 20267
Fragmentation average = 0
	minimum = 0
	maximum = 0
Injected packet rate average = 0.0200625
	minimum = 0.012 (at node 12)
	maximum = 0.036 (at node 6)
Accepted packet rate average = 0.020125
	minimum = 0.013 (at node 1)
	maximum = 0.036 (at node 9)
Injected flit rate average = 0.0200625
	minimum = 0.012 (at node 12)
	maximum = 0.036 (at node 6)
Accepted flit rate average= 0.020125
	minimum = 0.013 (at node 1)
	maximum = 0.036 (at node 9)
Injected packet length average = 1
Accepted packet length average = 1
Total in-flight flits = 2 (2 measured)
latency change    = 0.0264668
throughput change = 0.0434783
Class 0:
Packet latency average = 18.6477
	minimum = 7
	maximum = 43
Network latency average = 18.6477
	minimum = 7
	maximum = 43
Slowest packet = 20267
Flit latency average = 18.7392
	minimum = 7
	maximum = 43
Slowest flit = 20267
Fragmentation average = 0
	minimum = 0
	maximum = 0
Injected packet rate average = 0.0191875
	minimum = 0.013 (at node 3)
	maximum = 0.0275 (at node 6)
Accepted packet rate average = 0.0188125
	minimum = 0.0135 (at node 12)
	maximum = 0.027 (at node 9)
Injected flit rate average = 0.0191875
	minimum = 0.013 (at node 3)
	maximum = 0.0275 (at node 6)
Accepted flit rate average= 0.0188125
	minimum = 0.0135 (at node 12)
	maximum = 0.027 (at node 9)
Injected packet length average = 1
Accepted packet length average = 1
Total in-flight flits = 15 (15 measured)
latency change    = 0.00212335
throughput change = 0.0697674
Class 0:
Packet latency average = 19.1286
	minimum = 7
	maximum = 49
Network latency average = 19.1286
	minimum = 7
	maximum = 49
Slowest packet = 20901
Flit latency average = 19.1873
	minimum = 7
	maximum = 49
Slowest flit = 20901
Fragmentation average = 0
	minimum = 0
	maximum = 0
Injected packet rate average = 0.019
	minimum = 0.0143333 (at node 3)
	maximum = 0.023 (at node 11)
Accepted packet rate average = 0.0190208
	minimum = 0.015 (at node 7)
	maximum = 0.023 (at node 14)
Injected flit rate average = 0.019
	minimum = 0.0143333 (at node 3)
	maximum = 0.023 (at node 11)
Accepted flit rate average= 0.0190208
	minimum = 0.015 (at node 7)
	maximum = 0.023 (at node 14)
Injected packet length average = 1
Accepted packet length average = 1
Total in-flight flits = 2 (2 measured)
latency change    = 0.0251365
throughput change = 0.0109529
Class 0:
Packet latency average = 19.3178
	minimum = 7
	maximum = 49
Network latency average = 19.3178
	minimum = 7
	maximum = 49
Slowest packet = 20901
Flit latency average = 19.3596
	minimum = 7
	maximum = 49
Slowest flit = 20901
Fragmentation average = 0
	minimum = 0
	maximum = 0
Injected packet rate average = 0.0199688
	minimum = 0.01525 (at node 3)
	maximum = 0.0235 (at node 11)
Accepted packet rate average = 0.0198594
	minimum = 0.01575 (at node 12)
	maximum = 0.02325 (at node 14)
Injected flit rate average = 0.0199688
	minimum = 0.01525 (at node 3)
	maximum = 0.0235 (at node 11)
Accepted flit rate average= 0.0198594
	minimum = 0.01575 (at node 12)
	maximum = 0.02325 (at node 14)
Injected packet length average = 1
Accepted packet length average = 1
Total in-flight flits = 10 (10 measured)
latency change    = 0.00979675
throughput change = 0.042224
Class 0:
Packet latency average = 19.3795
	minimum = 7
	maximum = 49
Network latency average = 19.3795
	minimum = 7
	maximum = 49
Slowest packet = 20901
Flit latency average = 19.4127
	minimum = 7
	maximum = 49
Slowest flit = 20901
Fragmentation average = 0
	minimum = 0
	maximum = 0
Injected packet rate average = 0.019925
	minimum = 0.0152 (at node 3)
	maximum = 0.024 (at node 11)
Accepted packet rate average = 0.0199
	minimum = 0.0154 (at node 12)
	maximum = 0.024 (at node 14)
Injected flit rate average = 0.019925
	minimum = 0.0152 (at node 3)
	maximum = 0.024 (at node 11)
Accepted flit rate average= 0.0199
	minimum = 0.0154 (at node 12)
	maximum = 0.024 (at node 14)
Injected packet length average = 1
Accepted packet length average = 1
Total in-flight flits = 5 (5 measured)
latency change    = 0.00318175
throughput change = 0.00204146
Draining all recorded packets ...
Draining remaining packets ...
Time taken is 8022 cycles
Class 0:
Packet latency average = 19.1556
	minimum = 7
	maximum = 45
Network latency average = 19.1556
	minimum = 7
	maximum = 45
Slowest packet = 21996
Flit latency average = 19.1556
	minimum = 7
	maximum = 45
Slowest flit = 21996
Fragmentation average = 0
	minimum = 0
	maximum = 0
Injected packet rate average = 0.02025
	minimum = 0.013 (at node 6)
	maximum = 0.028 (at node 0)
Accepted packet rate average = 0.0196875
	minimum = 0.013 (at node 9)
	maximum = 0.028 (at node 0)
Injected flit rate average = 0.02025
	minimum = 0.013 (at node 6)
	maximum = 0.028 (at node 0)
Accepted flit rate average= 0.0196875
	minimum = 0.013 (at node 9)
	maximum = 0.028 (at node 0)
Injected packet length average = 1
Accepted packet length average = 1
Total in-flight flits = 9 (0 measured)
latency change    = 1
throughput change = 1
Class 0:
Packet latency average = 19.121
	minimum = 7
	maximum = 45
Network latency average = 19.121
	minimum = 7
	maximum = 45
Slowest packet = 21996
Flit latency average = 19.121
	minimum = 7
	maximum = 45
Slowest flit = 21996
Fragmentation average = 0
	minimum = 0
	maximum = 0
Injected packet rate average = 0.019625
	minimum = 0.015 (at node 3)
	maximum = 0.0245 (at node 1)
Accepted packet rate average = 0.019375
	minimum = 0.015 (at node 12)
	maximum = 0.0245 (at node 4)
Injected flit rate average = 0.019625
	minimum = 0.015 (at node 3)
	maximum = 0.0245 (at node 1)
Accepted flit rate average= 0.019375
	minimum = 0.015 (at node 12)
	maximum = 0.0245 (at node 4)
Injected packet length average = 1
Accepted packet length average = 1
Total in-flight flits = 8 (0 measured)
latency change    = 0.00180889
throughput change = 0.016129
Class 0:
Packet latency average = 19.9235
	minimum = 7
	maximum = 42
Network latency average = 19.9235
	minimum = 7
	maximum = 42
Slowest packet = 22733
Flit latency average = 19.9235
	minimum = 7
	maximum = 42
Slowest flit = 22733
Fragmentation average = 0
	minimum = 0
	maximum = 0
Injected packet rate average = 0.020375
	minimum = 0.017 (at node 9)
	maximum = 0.029 (at node 8)
Accepted packet rate average = 0.0204375
	minimum = 0.015 (at node 14)
	maximum = 0.029 (at node 2)
Injected flit rate average = 0.020375
	minimum = 0.017 (at node 9)
	maximum = 0.029 (at node 8)
Accepted flit rate average= 0.0204375
	minimum = 0.015 (at node 14)
	maximum = 0.029 (at node 2)
Injected packet length average = 1
Accepted packet length average = 1
Total in-flight flits = 7 (0 measured)
latency change    = 0.040283
throughput change = 0.0519878
Warmed up ...Time used is 3000 cycles
Class 0:
Packet latency average = 18.1254
	minimum = 7
	maximum = 40
Network latency average = 18.1254
	minimum = 7
	maximum = 40
Slowest packet = 22923
Flit latency average = 18.3427
	minimum = 7
	maximum = 40
Slowest flit = 22923
Fragmentation average = 0
	minimum = 0
	maximum = 0
Injected packet rate average = 0.0178125
	minimum = 0.005 (at node 3)
	maximum = 0.023 (at node 0)
Accepted packet rate average = 0.017875
	minimum = 0.006 (at node 12)
	maximum = 0.025 (at node 14)
Injected flit rate average = 0.0178125
	minimum = 0.005 (at node 3)
	maximum = 0.023 (at node 0)
Accepted flit rate average= 0.017875
	minimum = 0.006 (at node 12)
	maximum = 0.025 (at node 14)
Injected packet length average = 1
Accepted packet length average = 1
Total in-flight flits = 6 (6 measured)
latency change    = 0.099203
throughput change = 0.143357
Class 0:
Packet latency average = 18.8502
	minimum = 7
	maximum = 40
Network latency average = 18.8502
	minimum = 7
	maximum = 40
Slowest packet = 22923
Flit latency average = 18.9441
	minimum = 7
	maximum = 40
Slowest flit = 22923
Fragmentation average = 0
	minimum = 0
	maximum = 0
Injected packet rate average = 0.0189687
	minimum = 0.013 (at node 3)
	maximum = 0.0225 (at node 8)
Accepted packet rate average = 0.019
	minimum = 0.0135 (at node 12)
	maximum = 0.023 (at node 2)
Injected flit rate average = 0.0189687
	minimum = 0.013 (at node 3)
	maximum = 0.0225 (at node 8)
Accepted flit rate average= 0.019
	minimum = 0.0135 (at node 12)
	maximum = 0.023 (at node 2)
Injected packet length average = 1
Accepted packet length average = 1
Total in-flight flits = 6 (6 measured)
latency change    = 0.0384505
throughput change = 0.0592105
Class 0:
Packet latency average = 19.267
	minimum = 7
	maximum = 46
Network latency average = 19.267
	minimum = 7
	maximum = 46
Slowest packet = 23567
Flit latency average = 19.3257
	minimum = 7
	maximum = 46
Slowest flit = 23567
Fragmentation average = 0
	minimum = 0
	maximum = 0
Injected packet rate average = 0.0191667
	minimum = 0.0153333 (at node 3)
	maximum = 0.0226667 (at node 8)
Accepted packet rate average = 0.0191875
	minimum = 0.015 (at node 12)
	maximum = 0.0226667 (at node 2)
Injected flit rate average = 0.0191667
	minimum = 0.0153333 (at node 3)
	maximum = 0.0226667 (at node 8)
Accepted flit rate average= 0.0191875
	minimum = 0.015 (at node 12)
	maximum = 0.0226667 (at node 2)
Injected packet length average = 1
Accepted packet length average = 1
Total in-flight flits = 6 (6 measured)
latency change    = 0.0216282
throughput change = 0.00977199
Class 0:
Packet latency average = 19.3063
	minimum = 7
	maximum = 46
Network latency average = 19.3063
	minimum = 7
	maximum = 46
Slowest packet = 23567
Flit latency average = 19.3502
	minimum = 7
	maximum = 46
Slowest flit = 23567
Fragmentation average = 0
	minimum = 0
	maximum = 0
Injected packet rate average = 0.0191562
	minimum = 0.0165 (at node 3)
	maximum = 0.023 (at node 0)
Accepted packet rate average = 0.0191875
	minimum = 0.01675 (at node 12)
	maximum = 0.023 (at node 0)
Injected flit rate average = 0.0191562
	minimum = 0.0165 (at node 3)
	maximum = 0.023 (at node 0)
Accepted flit rate average= 0.0191875
	minimum = 0.01675 (at node 12)
	maximum = 0.023 (at node 0)
Injected packet length average = 1
Accepted packet length average = 1
Total in-flight flits = 5 (5 measured)
latency change    = 0.00203808
throughput change = 0
Class 0:
Packet latency average = 19.258
	minimum = 7
	maximum = 46
Network latency average = 19.258
	minimum = 7
	maximum = 46
Slowest packet = 23567
Flit latency average = 19.2928
	minimum = 7
	maximum = 46
Slowest flit = 23567
Fragmentation average = 0
	minimum = 0
	maximum = 0
Injected packet rate average = 0.0195125
	minimum = 0.0166 (at node 3)
	maximum = 0.0232 (at node 0)
Accepted packet rate average = 0.0195125
	minimum = 0.0168 (at node 12)
	maximum = 0.023 (at node 0)
Injected flit rate average = 0.0195125
	minimum = 0.0166 (at node 3)
	maximum = 0.0232 (at node 0)
Accepted flit rate average= 0.0195125
	minimum = 0.0168 (at node 12)
	maximum = 0.023 (at node 0)
Injected packet length average = 1
Accepted packet length average = 1
Total in-flight flits = 7 (7 measured)
latency change    = 0.0025061
throughput change = 0.016656
Draining all recorded packets ...
Draining remaining packets ...
Time taken is 8059 cycles
Class 0:
Packet latency average = 20.1068
	minimum = 7
	maximum = 39
Network latency average = 20.1068
	minimum = 7
	maximum = 39
Slowest packet = 24561
Flit latency average = 20.1068
	minimum = 7
	maximum = 39
Slowest flit = 24561
Fragmentation average = 0
	minimum = 0
	maximum = 0
Injected packet rate average = 0.019625
	minimum = 0.013 (at node 7)
	maximum = 0.026 (at node 3)
Accepted packet rate average = 0.0193125
	minimum = 0.013 (at node 13)
	maximum = 0.025 (at node 4)
Injected flit rate average = 0.019625
	minimum = 0.013 (at node 7)
	maximum = 0.026 (at node 3)
Accepted flit rate average= 0.0193125
	minimum = 0.013 (at node 13)
	maximum = 0.025 (at node 4)
Injected packet length average = 1
Accepted packet length average = 1
Total in-flight flits = 5 (0 measured)
latency change    = 1
throughput change = 1
Class 0:
Packet latency average = 19.6766
	minimum = 7
	maximum = 44
Network latency average = 19.6766
	minimum = 7
	maximum = 44
Slowest packet = 24838
Flit latency average = 19.6766
	minimum = 7
	maximum = 44
Slowest flit = 24838
Fragmentation average = 0
	minimum = 0
	maximum = 0
Injected packet rate average = 0.0202188
	minimum = 0.016 (at node 5)
	maximum = 0.024 (at node 1)
Accepted packet rate average = 0.0199063
	minimum = 0.016 (at node 2)
	maximum = 0.0235 (at node 4)
Injected flit rate average = 0.0202188
	minimum = 0.016 (at node 5)
	maximum = 0.024 (at node 1)
Accepted flit rate average= 0.0199063
	minimum = 0.016 (at node 2)
	maximum = 0.0235 (at node 4)
Injected packet length average = 1
Accepted packet length average = 1
Total in-flight flits = 10 (0 measured)
latency change    = 0.0218629
throughput change = 0.0298273
Class 0:
Packet latency average = 19.9873
	minimum = 7
	maximum = 52
Network latency average = 19.9873
	minimum = 7
	maximum = 52
Slowest packet = 25047
Flit latency average = 19.9873
	minimum = 7
	maximum = 52
Slowest flit = 25047
Fragmentation average = 0
	minimum = 0
	maximum = 0
Injected packet rate average = 0.0193125
	minimum = 0.01 (at node 15)
	maximum = 0.026 (at node 1)
Accepted packet rate average = 0.0196875
	minimum = 0.01 (at node 15)
	maximum = 0.027 (at node 4)
Injected flit rate average = 0.0193125
	minimum = 0.01 (at node 15)
	maximum = 0.026 (at node 1)
Accepted flit rate average= 0.0196875
	minimum = 0.01 (at node 15)
	maximum = 0.027 (at node 4)
Injected packet length average = 1
Accepted packet length average = 1
Total in-flight flits = 4 (0 measured)
latency change    = 0.0155445
throughput change = 0.0111111
Warmed up ...Time used is 3000 cycles
Class 0:
Packet latency average = 20.4331
	minimum = 7
	maximum = 49
Network latency average = 20.4331
	minimum = 7
	maximum = 49
Slowest packet = 25409
Flit latency average = 20.5786
	minimum = 7
	maximum = 49
Slowest flit = 25409
Fragmentation average = 0
	minimum = 0
	maximum = 0
Injected packet rate average = 0.0200625
	minimum = 0.013 (at node 6)
	maximum = 0.029 (at node 3)
Accepted packet rate average = 0.019875
	minimum = 0.013 (at node 9)
	maximum = 0.027 (at node 11)
Injected flit rate average = 0.0200625
	minimum = 0.013 (at node 6)
	maximum = 0.029 (at node 3)
Accepted flit rate average= 0.019875
	minimum = 0.013 (at node 9)
	maximum = 0.027 (at node 11)
Injected packet length average = 1
Accepted packet length average = 1
Total in-flight flits = 7 (7 measured)
latency change    = 0.0218185
throughput change = 0.00943396
Class 0:
Packet latency average = 20.2113
	minimum = 7
	maximum = 50
Network latency average = 20.2113
	minimum = 7
	maximum = 50
Slowest packet = 25791
Flit latency average = 20.2831
	minimum = 7
	maximum = 50
Slowest flit = 25791
Fragmentation average = 0
	minimum = 0
	maximum = 0
Injected packet rate average = 0.0205313
	minimum = 0.013 (at node 6)
	maximum = 0.0275 (at node 14)
Accepted packet rate average = 0.0205313
	minimum = 0.013 (at node 9)
	maximum = 0.0275 (at node 11)
Injected flit rate average = 0.0205313
	minimum = 0.013 (at node 6)
	maximum = 0.0275 (at node 14)
Accepted flit rate average= 0.0205313
	minimum = 0.013 (at node 9)
	maximum = 0.0275 (at node 11)
Injected packet length average = 1
Accepted packet length average = 1
Total in-flight flits = 4 (4 measured)
latency change    = 0.0109735
throughput change = 0.0319635
Class 0:
Packet latency average = 20.0962
	minimum = 7
	maximum = 50
Network latency average = 20.0962
	minimum = 7
	maximum = 50
Slowest packet = 25791
Flit latency average = 20.1458
	minimum = 7
	maximum = 50
Slowest flit = 25791
Fragmentation average = 0
	minimum = 0
	maximum = 0
Injected packet rate average = 0.0200625
	minimum = 0.0143333 (at node 6)
	maximum = 0.026 (at node 14)
Accepted packet rate average = 0.02
	minimum = 0.014 (at node 9)
	maximum = 0.026 (at node 11)
Injected flit rate average = 0.0200625
	minimum = 0.0143333 (at node 6)
	maximum = 0.026 (at node 14)
Accepted flit rate average= 0.02
	minimum = 0.014 (at node 9)
	maximum = 0.026 (at node 11)
Injected packet length average = 1
Accepted packet length average = 1
Total in-flight flits = 7 (7 measured)
latency change    = 0.00572734
throughput change = 0.0265625
Draining all recorded packets ...
Draining remaining packets ...
Time taken is 6042 cycles
Class 0:
Packet latency average = 18.4848
	minimum = 7
	maximum = 42
Network latency average = 18.4848
	minimum = 7
	maximum = 42
Slowest packet = 26504
Flit latency average = 18.4848
	minimum = 7
	maximum = 42
Slowest flit = 26504
Fragmentation average = 0
	minimum = 0
	maximum = 0
Injected packet rate average = 0.0210625
	minimum = 0.013 (at node 3)
	maximum = 0.032 (at node 15)
Accepted packet rate average = 0.0205
	minimum = 0.013 (at node 12)
	maximum = 0.032 (at node 15)
Injected flit rate average = 0.0210625
	minimum = 0.013 (at node 3)
	maximum = 0.032 (at node 15)
Accepted flit rate average= 0.0205
	minimum = 0.013 (at node 12)
	maximum = 0.032 (at node 15)
Injected packet length average = 1
Accepted packet length average = 1
Total in-flight flits = 9 (0 measured)
latency change    = 1
throughput change = 1
Class 0:
Packet latency average = 19.2908
	minimum = 7
	maximum = 42
Network latency average = 19.2908
	minimum = 7
	maximum = 42
Slowest packet = 26504
Flit latency average = 19.2908
	minimum = 7
	maximum = 42
Slowest flit = 26504
Fragmentation average = 0
	minimum = 0
	maximum = 0
Injected packet rate average = 0.0194687
	minimum = 0.0125 (at node 0)
	maximum = 0.0245 (at node 5)
Accepted packet rate average = 0.0193437
	minimum = 0.0125 (at node 0)
	maximum = 0.0245 (at node 5)
Injected flit rate average = 0.0194687
	minimum = 0.0125 (at node 0)
	maximum = 0.0245 (at node 5)
Accepted flit rate average= 0.0193437
	minimum = 0.0125 (at node 0)
	maximum = 0.0245 (at node 5)
Injected packet length average = 1
Accepted packet length average = 1
Total in-flight flits = 4 (0 measured)
latency change    = 0.0417834
throughput change = 0.0597738
Class 0:
Packet latency average = 19.5844
	minimum = 7
	maximum = 51
Network latency average = 19.5844
	minimum = 7
	maximum = 51
Slowest packet = 26883
Flit latency average = 19.5844
	minimum = 7
	maximum = 51
Slowest flit = 26883
Fragmentation average = 0
	minimum = 0
	maximum = 0
Injected packet rate average = 0.0193125
	minimum = 0.009 (at node 9)
	maximum = 0.028 (at node 2)
Accepted packet rate average = 0.01925
	minimum = 0.009 (at node 6)
	maximum = 0.028 (at node 2)
Injected flit rate average = 0.0193125
	minimum = 0.009 (at node 9)
	maximum = 0.028 (at node 2)
Accepted flit rate average= 0.01925
	minimum = 0.009 (at node 6)
	maximum = 0.028 (at node 2)
Injected packet length average = 1
Accepted packet length average = 1
Total in-flight flits = 5 (0 measured)
latency change    = 0.0149927
throughput change = 0.00487013
Warmed up ...Time used is 3000 cycles
Class 0:
Packet latency average = 19.4435
	minimum = 7
	maximum = 42
Network latency average = 19.4435
	minimum = 7
	maximum = 42
Slowest packet = 27508
Flit latency average = 19.58
	minimum = 7
	maximum = 42
Slowest flit = 27508
Fragmentation average = 0
	minimum = 0
	maximum = 0
Injected packet rate average = 0.022
	minimum = 0.015 (at node 6)
	maximum = 0.033 (at node 9)
Accepted packet rate average = 0.021875
	minimum = 0.015 (at node 9)
	maximum = 0.033 (at node 6)
Injected flit rate average = 0.022
	minimum = 0.015 (at node 6)
	maximum = 0.033 (at node 9)
Accepted flit rate average= 0.021875
	minimum = 0.015 (at node 9)
	maximum = 0.033 (at node 6)
Injected packet length average = 1
Accepted packet length average = 1
Total in-flight flits = 7 (7 measured)
latency change    = 0.00724857
throughput change = 0.12
Class 0:
Packet latency average = 19.7346
	minimum = 7
	maximum = 54
Network latency average = 19.7346
	minimum = 7
	maximum = 54
Slowest packet = 27558
Flit latency average = 19.8036
	minimum = 7
	maximum = 54
Slowest flit = 27558
Fragmentation average = 0
	minimum = 0
	maximum = 0
Injected packet rate average = 0.0209688
	minimum = 0.0165 (at node 6)
	maximum = 0.0275 (at node 1)
Accepted packet rate average = 0.021
	minimum = 0.016 (at node 9)
	maximum = 0.0275 (at node 4)
Injected flit rate average = 0.0209688
	minimum = 0.0165 (at node 6)
	maximum = 0.0275 (at node 1)
Accepted flit rate average= 0.021
	minimum = 0.016 (at node 9)
	maximum = 0.0275 (at node 4)
Injected packet length average = 1
Accepted packet length average = 1
Total in-flight flits = 4 (4 measured)
latency change    = 0.0147535
throughput change = 0.0416667
Class 0:
Packet latency average = 19.8797
	minimum = 7
	maximum = 54
Network latency average = 19.8797
	minimum = 7
	maximum = 54
Slowest packet = 27558
Flit latency average = 19.9244
	minimum = 7
	maximum = 54
Slowest flit = 27558
Fragmentation average = 0
	minimum = 0
	maximum = 0
Injected packet rate average = 0.0212708
	minimum = 0.0153333 (at node 6)
	maximum = 0.0266667 (at node 1)
Accepted packet rate average = 0.0212292
	minimum = 0.0153333 (at node 9)
	maximum = 0.0263333 (at node 4)
Injected flit rate average = 0.0212708
	minimum = 0.0153333 (at node 6)
	maximum = 0.0266667 (at node 1)
Accepted flit rate average= 0.0212292
	minimum = 0.0153333 (at node 9)
	maximum = 0.0263333 (at node 4)
Injected packet length average = 1
Accepted packet length average = 1
Total in-flight flits = 7 (7 measured)
latency change    = 0.00729648
throughput change = 0.0107949
Class 0:
Packet latency average = 20.1181
	minimum = 7
	maximum = 54
Network latency average = 20.1181
	minimum = 7
	maximum = 54
Slowest packet = 27558
Flit latency average = 20.152
	minimum = 7
	maximum = 54
Slowest flit = 27558
Fragmentation average = 0
	minimum = 0
	maximum = 0
Injected packet rate average = 0.0204375
	minimum = 0.0145 (at node 6)
	maximum = 0.02475 (at node 1)
Accepted packet rate average = 0.0204531
	minimum = 0.0145 (at node 9)
	maximum = 0.02475 (at node 4)
Injected flit rate average = 0.0204375
	minimum = 0.0145 (at node 6)
	maximum = 0.02475 (at node 1)
Accepted flit rate average= 0.0204531
	minimum = 0.0145 (at node 9)
	maximum = 0.02475 (at node 4)
Injected packet length average = 1
Accepted packet length average = 1
Total in-flight flits = 4 (4 measured)
latency change    = 0.0118507
throughput change = 0.0379424
Draining all recorded packets ...
Draining remaining packets ...
Time taken is 7029 cycles
Class 0:
Packet latency average = 19.7083
	minimum = 7
	maximum = 42
Network latency average = 19.7083
	minimum = 7
	maximum = 42
Slowest packet = 28726
Flit latency average = 19.7083
	minimum = 7
	maximum = 42
Slowest flit = 28726
Fragmentation average = 0
	minimum = 0
	maximum = 0
Injected packet rate average = 0.0198125
	minimum = 0.016 (at node 3)
	maximum = 0.03 (at node 13)
Accepted packet rate average = 0.0195
	minimum = 0.016 (at node 9)
	maximum = 0.029 (at node 7)
Injected flit rate average = 0.0198125
	minimum = 0.016 (at node 3)
	maximum = 0.03 (at node 13)
Accepted flit rate average= 0.0195
	minimum = 0.016 (at node 9)
	maximum = 0.029 (at node 7)
Injected packet length average = 1
Accepted packet length average = 1
Total in-flight flits = 5 (0 measured)
latency change    = 1
throughput change = 1
Class 0:
Packet latency average = 19.7846
	minimum = 7
	maximum = 51
Network latency average = 19.7846
	minimum = 7
	maximum = 51
Slowest packet = 29086
Flit latency average = 19.7846
	minimum = 7
	maximum = 51
Slowest flit = 29086
Fragmentation average = 0
	minimum = 0
	maximum = 0
Injected packet rate average = 0.0205
	minimum = 0.0175 (at node 14)
	maximum = 0.026 (at node 13)
Accepted packet rate average = 0.0203125
	minimum = 0.0175 (at node 11)
	maximum = 0.026 (at node 7)
Injected flit rate average = 0.0205
	minimum = 0.0175 (at node 14)
	maximum = 0.026 (at node 13)
Accepted flit rate average= 0.0203125
	minimum = 0.0175 (at node 11)
	maximum = 0.026 (at node 7)
Injected packet length average = 1
Accepted packet length average = 1
Total in-flight flits = 6 (0 measured)
latency change    = 0.00385562
throughput change = 0.04
Class 0:
Packet latency average = 20.3438
	minimum = 7
	maximum = 45
Network latency average = 20.3438
	minimum = 7
	maximum = 45
Slowest packet = 29192
Flit latency average = 20.3438
	minimum = 7
	maximum = 45
Slowest flit = 29192
Fragmentation average = 0
	minimum = 0
	maximum = 0
Injected packet rate average = 0.02
	minimum = 0.006 (at node 10)
	maximum = 0.027 (at node 4)
Accepted packet rate average = 0.02
	minimum = 0.007 (at node 10)
	maximum = 0.029 (at node 1)
Injected flit rate average = 0.02
	minimum = 0.006 (at node 10)
	maximum = 0.027 (at node 4)
Accepted flit rate average= 0.02
	minimum = 0.007 (at node 10)
	maximum = 0.029 (at node 1)
Injected packet length average = 1
Accepted packet length average = 1
Total in-flight flits = 6 (0 measured)
latency change    = 0.0274843
throughput change = 0.015625
Warmed up ...Time used is 3000 cycles
Class 0:
Packet latency average = 19.7668
	minimum = 7
	maximum = 45
Network latency average = 19.7668
	minimum = 7
[...]
	minimum = 0.0166667 (at node 2)
	maximum = 0.0226667 (at node 7)
Accepted packet rate average = 0.0200625
	minimum = 0.0166667 (at node 8)
	maximum = 0.0233333 (at node 3)
Injected flit rate average = 0.0199583
	minimum = 0.0166667 (at node 2)
	maximum = 0.0226667 (at node 7)
Accepted flit rate average= 0.0200625
	minimum = 0.0166667 (at node 8)
	maximum = 0.0233333 (at node 3)
Injected packet length average = 1
Accepted packet length average = 1
Total in-flight flits = 3 (3 measured)
latency change    = 0.00889612
throughput change = 0.0233645
Draining all recorded packets ...
Draining remaining packets ...
Time taken is 6064 cycles
Class 0:
Packet latency average = 19.047
	minimum = 7
	maximum = 40
Network latency average = 19.047
	minimum = 7
	maximum = 40
Slowest packet = 220766
Flit latency average = 19.047
	minimum = 7
	maximum = 40
Slowest flit = 220766
Fragmentation average = 0
	minimum = 0
	maximum = 0
Injected packet rate average = 0.0203125
	minimum = 0.01 (at node 15)
	maximum = 0.026 (at node 0)
Accepted packet rate average = 0.0199375
	minimum = 0.01 (at node 15)
	maximum = 0.026 (at node 0)
Injected flit rate average = 0.0203125
	minimum = 0.01 (at node 15)
	maximum = 0.026 (at node 0)
Accepted flit rate average= 0.0199375
	minimum = 0.01 (at node 15)
	maximum = 0.026 (at node 0)
Injected packet length average = 1
Accepted packet length average = 1
Total in-flight flits = 6 (0 measured)
latency change    = 1
throughput change = 1
Class 0:
Packet latency average = 19.3271
	minimum = 7
	maximum = 46
Network latency average = 19.3271
	minimum = 7
	maximum = 46
Slowest packet = 221074
Flit latency average = 19.3271
	minimum = 7
	maximum = 46
Slowest flit = 221074
Fragmentation average = 0
	minimum = 0
	maximum = 0
Injected packet rate average = 0.020125
	minimum = 0.0135 (at node 15)
	maximum = 0.0255 (at node 0)
Accepted packet rate average = 0.0199688
	minimum = 0.0135 (at node 15)
	maximum = 0.0255 (at node 0)
Injected flit rate average = 0.020125
	minimum = 0.0135 (at node 15)
	maximum = 0.0255 (at node 0)
Accepted flit rate average= 0.0199688
	minimum = 0.0135 (at node 15)
	maximum = 0.0255 (at node 0)
Injected packet length average = 1
Accepted packet length average = 1
Total in-flight flits = 5 (0 measured)
latency change    = 0.0144901
throughput change = 0.00156495
Class 0:
Packet latency average = 20.3137
	minimum = 7
	maximum = 56
Network latency average = 20.3137
	minimum = 7
	maximum = 56
Slowest packet = 221208
Flit latency average = 20.3137
	minimum = 7
	maximum = 56
Slowest flit = 221208
Fragmentation average = 0
	minimum = 0
	maximum = 0
Injected packet rate average = 0.02025
	minimum = 0.01 (at node 3)
	maximum = 0.028 (at node 13)
Accepted packet rate average = 0.020125
	minimum = 0.01 (at node 12)
	maximum = 0.029 (at node 7)
Injected flit rate average = 0.02025
	minimum = 0.01 (at node 3)
	maximum = 0.028 (at node 13)
Accepted flit rate average= 0.020125
	minimum = 0.01 (at node 12)
	maximum = 0.029 (at node 7)
Injected packet length average = 1
Accepted packet length average = 1
Total in-flight flits = 7 (0 measured)
latency change    = 0.0485679
throughput change = 0.00776398
Warmed up ...Time used is 3000 cycles
Class 0:
Packet latency average = 18.75
	minimum = 7
	maximum = 38
Network latency average = 18.75
	minimum = 7
	maximum = 38
Slowest packet = 221495
Flit latency average = 18.7786
	minimum = 7
	maximum = 38
Slowest flit = 221495
Fragmentation average = 0
	minimum = 0
	maximum = 0
Injected packet rate average = 0.0169375
	minimum = 0.012 (at node 7)
	maximum = 0.024 (at node 5)
Accepted packet rate average = 0.0169375
	minimum = 0.012 (at node 6)
	maximum = 0.023 (at node 5)
Injected flit rate average = 0.0169375
	minimum = 0.012 (at node 7)
	maximum = 0.024 (at node 5)
Accepted flit rate average= 0.0169375
	minimum = 0.012 (at node 6)
	maximum = 0.023 (at node 5)
Injected packet length average = 1
Accepted packet length average = 1
Total in-flight flits = 7 (7 measured)
latency change    = 0.0833954
throughput change = 0.188192
Class 0:
Packet latency average = 19.0776
	minimum = 7
	maximum = 46
Network latency average = 19.0776
	minimum = 7
	maximum = 46
Slowest packet = 221945
Flit latency average = 19.0867
	minimum = 7
	maximum = 46
Slowest flit = 221945
Fragmentation average = 0
	minimum = 0
	maximum = 0
Injected packet rate average = 0.018875
	minimum = 0.0135 (at node 7)
	maximum = 0.025 (at node 4)
Accepted packet rate average = 0.01875
	minimum = 0.0135 (at node 3)
	maximum = 0.0245 (at node 9)
Injected flit rate average = 0.018875
	minimum = 0.0135 (at node 7)
	maximum = 0.025 (at node 4)
Accepted flit rate average= 0.01875
	minimum = 0.0135 (at node 3)
	maximum = 0.0245 (at node 9)
Injected packet length average = 1
Accepted packet length average = 1
Total in-flight flits = 11 (11 measured)
latency change    = 0.0171705
throughput change = 0.0966667
Class 0:
Packet latency average = 19.2932
	minimum = 7
	maximum = 46
Network latency average = 19.2932
	minimum = 7
	maximum = 46
Slowest packet = 221945
Flit latency average = 19.2975
	minimum = 7
	maximum = 46
Slowest flit = 221945
Fragmentation average = 0
	minimum = 0
	maximum = 0
Injected packet rate average = 0.0191042
	minimum = 0.0143333 (at node 7)
	maximum = 0.026 (at node 4)
Accepted packet rate average = 0.0191875
	minimum = 0.0146667 (at node 3)
	maximum = 0.026 (at node 1)
Injected flit rate average = 0.0191042
	minimum = 0.0143333 (at node 7)
	maximum = 0.026 (at node 4)
Accepted flit rate average= 0.0191875
	minimum = 0.0146667 (at node 3)
	maximum = 0.026 (at node 1)
Injected packet length average = 1
Accepted packet length average = 1
Total in-flight flits = 3 (3 measured)
latency change    = 0.0111772
throughput change = 0.0228013
Class 0:
Packet latency average = 19.3781
	minimum = 7
	maximum = 46
Network latency average = 19.3781
	minimum = 7
	maximum = 46
Slowest packet = 221945
Flit latency average = 19.3808
	minimum = 7
	maximum = 46
Slowest flit = 221945
Fragmentation average = 0
	minimum = 0
	maximum = 0
Injected packet rate average = 0.019375
	minimum = 0.01525 (at node 7)
	maximum = 0.02425 (at node 4)
Accepted packet rate average = 0.0194062
	minimum = 0.0155 (at node 13)
	maximum = 0.02425 (at node 1)
Injected flit rate average = 0.019375
	minimum = 0.01525 (at node 7)
	maximum = 0.02425 (at node 4)
Accepted flit rate average= 0.0194062
	minimum = 0.0155 (at node 13)
	maximum = 0.02425 (at node 1)
Injected packet length average = 1
Accepted packet length average = 1
Total in-flight flits = 5 (5 measured)
latency change    = 0.00438231
throughput change = 0.0112721
Class 0:
Packet latency average = 19.4887
	minimum = 7
	maximum = 47
Network latency average = 19.4887
	minimum = 7
	maximum = 47
Slowest packet = 222780
Flit latency average = 19.4903
	minimum = 7
	maximum = 47
Slowest flit = 222780
Fragmentation average = 0
	minimum = 0
	maximum = 0
Injected packet rate average = 0.01935
	minimum = 0.016 (at node 12)
	maximum = 0.023 (at node 4)
Accepted packet rate average = 0.019375
	minimum = 0.0158 (at node 3)
	maximum = 0.023 (at node 1)
Injected flit rate average = 0.01935
	minimum = 0.016 (at node 12)
	maximum = 0.023 (at node 4)
Accepted flit rate average= 0.019375
	minimum = 0.0158 (at node 3)
	maximum = 0.023 (at node 1)
Injected packet length average = 1
Accepted packet length average = 1
Total in-flight flits = 5 (5 measured)
latency change    = 0.00567103
throughput change = 0.0016129
Draining all recorded packets ...
Draining remaining packets ...
Time taken is 8063 cycles
Class 0:
Packet latency average = 19.8179
	minimum = 7
	maximum = 49
Network latency average = 19.8179
	minimum = 7
	maximum = 49
Slowest packet = 223285
Flit latency average = 19.8179
	minimum = 7
	maximum = 49
Slowest flit = 223285
Fragmentation average = 0
	minimum = 0
	maximum = 0
Injected packet rate average = 0.020125
	minimum = 0.013 (at node 10)
	maximum = 0.03 (at node 4)
Accepted packet rate average = 0.0195625
	minimum = 0.013 (at node 10)
	maximum = 0.03 (at node 1)
Injected flit rate average = 0.020125
	minimum = 0.013 (at node 10)
	maximum = 0.03 (at node 4)
Accepted flit rate average= 0.0195625
	minimum = 0.013 (at node 10)
	maximum = 0.03 (at node 1)
Injected packet length average = 1
Accepted packet length average = 1
Total in-flight flits = 9 (0 measured)
latency change    = 1
throughput change = 1
Class 0:
Packet latency average = 19.9763
	minimum = 7
	maximum = 49
Network latency average = 19.9763
	minimum = 7
	maximum = 49
Slowest packet = 223285
Flit latency average = 19.9763
	minimum = 7
	maximum = 49
Slowest flit = 223285
Fragmentation average = 0
	minimum = 0
	maximum = 0
Injected packet rate average = 0.0198125
	minimum = 0.0155 (at node 10)
	maximum = 0.025 (at node 8)
Accepted packet rate average = 0.01975
	minimum = 0.0155 (at node 10)
	maximum = 0.025 (at node 7)
Injected flit rate average = 0.0198125
	minimum = 0.0155 (at node 10)
	maximum = 0.025 (at node 8)
Accepted flit rate average= 0.01975
	minimum = 0.0155 (at node 10)
	maximum = 0.025 (at node 7)
Injected packet length average = 1
Accepted packet length average = 1
Total in-flight flits = 2 (0 measured)
latency change    = 0.00792813
throughput change = 0.00949367
Class 0:
Packet latency average = 19.6075
	minimum = 7
	maximum = 41
Network latency average = 19.6075
	minimum = 7
	maximum = 41
Slowest packet = 223942
Flit latency average = 19.6075
	minimum = 7
	maximum = 41
Slowest flit = 223942
Fragmentation average = 0
	minimum = 0
	maximum = 0
Injected packet rate average = 0.0208125
	minimum = 0.015 (at node 15)
	maximum = 0.025 (at node 1)
Accepted packet rate average = 0.0200625
	minimum = 0.015 (at node 6)
	maximum = 0.025 (at node 4)
Injected flit rate average = 0.0208125
	minimum = 0.015 (at node 15)
	maximum = 0.025 (at node 1)
Accepted flit rate average= 0.0200625
	minimum = 0.015 (at node 6)
	maximum = 0.025 (at node 4)
Injected packet length average = 1
Accepted packet length average = 1
Total in-flight flits = 14 (0 measured)
latency change    = 0.0188086
throughput change = 0.0155763
Warmed up ...Time used is 3000 cycles
Class 0:
Packet latency average = 20.1018
	minimum = 7
	maximum = 44
Network latency average = 20.1018
	minimum = 7
	maximum = 44
Slowest packet = 224071
Flit latency average = 20.4626
	minimum = 7
	maximum = 45
Slowest flit = 223956
Fragmentation average = 0
	minimum = 0
	maximum = 0
Injected packet rate average = 0.02125
	minimum = 0.014 (at node 0)
	maximum = 0.035 (at node 11)
Accepted packet rate average = 0.02175
	minimum = 0.014 (at node 0)
	maximum = 0.035 (at node 14)
Injected flit rate average = 0.02125
	minimum = 0.014 (at node 0)
	maximum = 0.035 (at node 11)
Accepted flit rate average= 0.02175
	minimum = 0.014 (at node 0)
	maximum = 0.035 (at node 14)
Injected packet length average = 1
Accepted packet length average = 1
Total in-flight flits = 6 (6 measured)
latency change    = 0.0245908
throughput change = 0.0775862
Class 0:
Packet latency average = 19.2071
	minimum = 7
	maximum = 46
Network latency average = 19.2071
	minimum = 7
	maximum = 46
Slowest packet = 224591
Flit latency average = 19.4072
	minimum = 7
	maximum = 46
Slowest flit = 224591
Fragmentation average = 0
	minimum = 0
	maximum = 0
Injected packet rate average = 0.02125
	minimum = 0.0155 (at node 7)
	maximum = 0.0305 (at node 11)
Accepted packet rate average = 0.0215625
	minimum = 0.016 (at node 13)
	maximum = 0.0305 (at node 14)
Injected flit rate average = 0.02125
	minimum = 0.0155 (at node 7)
	maximum = 0.0305 (at node 11)
Accepted flit rate average= 0.0215625
	minimum = 0.016 (at node 13)
	maximum = 0.0305 (at node 14)
Injected packet length average = 1
Accepted packet length average = 1
Total in-flight flits = 4 (4 measured)
latency change    = 0.0465815
throughput change = 0.00869565
Class 0:
Packet latency average = 19.2362
	minimum = 7
	maximum = 46
Network latency average = 19.2362
	minimum = 7
	maximum = 46
Slowest packet = 224591
Flit latency average = 19.3726
	minimum = 7
	maximum = 46
Slowest flit = 224591
Fragmentation average = 0
	minimum = 0
	maximum = 0
Injected packet rate average = 0.0209583
	minimum = 0.0153333 (at node 7)
	maximum = 0.0256667 (at node 11)
Accepted packet rate average = 0.0210208
	minimum = 0.0156667 (at node 13)
	maximum = 0.0253333 (at node 14)
Injected flit rate average = 0.0209583
	minimum = 0.0153333 (at node 7)
	maximum = 0.0256667 (at node 11)
Accepted flit rate average= 0.0210208
	minimum = 0.0156667 (at node 13)
	maximum = 0.0253333 (at node 14)
Injected packet length average = 1
Accepted packet length average = 1
Total in-flight flits = 11 (11 measured)
latency change    = 0.00151175
throughput change = 0.0257681
Class 0:
Packet latency average = 19.4218
	minimum = 7
	maximum = 49
Network latency average = 19.4218
	minimum = 7
	maximum = 49
Slowest packet = 224972
Flit latency average = 19.5223
	minimum = 7
	maximum = 49
Slowest flit = 224972
Fragmentation average = 0
	minimum = 0
	maximum = 0
Injected packet rate average = 0.0209063
	minimum = 0.015 (at node 7)
	maximum = 0.02475 (at node 8)
Accepted packet rate average = 0.021
	minimum = 0.015 (at node 13)
	maximum = 0.02425 (at node 2)
Injected flit rate average = 0.0209063
	minimum = 0.015 (at node 7)
	maximum = 0.02475 (at node 8)
Accepted flit rate average= 0.021
	minimum = 0.015 (at node 13)
	maximum = 0.02425 (at node 2)
Injected packet length average = 1
Accepted packet length average = 1
Total in-flight flits = 8 (8 measured)
latency change    = 0.00955749
throughput change = 0.000992063
Draining all recorded packets ...
Draining remaining packets ...
Time taken is 7079 cycles
Class 0:
Packet latency average = 18.8014
	minimum = 7
	maximum = 44
Network latency average = 18.8014
	minimum = 7
	maximum = 44
Slowest packet = 225429
Flit latency average = 18.8014
	minimum = 7
	maximum = 44
Slowest flit = 225429
Fragmentation average = 0
	minimum = 0
	maximum = 0
Injected packet rate average = 0.0176875
	minimum = 0.01 (at node 1)
	maximum = 0.025 (at node 8)
Accepted packet rate average = 0.0173125
	minimum = 0.01 (at node 4)
	maximum = 0.024 (at node 2)
Injected flit rate average = 0.0176875
	minimum = 0.01 (at node 1)
	maximum = 0.025 (at node 8)
Accepted flit rate average= 0.0173125
	minimum = 0.01 (at node 4)
	maximum = 0.024 (at node 2)
Injected packet length average = 1
Accepted packet length average = 1
Total in-flight flits = 6 (0 measured)
latency change    = 1
throughput change = 1
Class 0:
Packet latency average = 19.2504
	minimum = 7
	maximum = 44
Network latency average = 19.2504
	minimum = 7
	maximum = 44
Slowest packet = 225429
Flit latency average = 19.2504
	minimum = 7
	maximum = 44
Slowest flit = 225429
Fragmentation average = 0
	minimum = 0
	maximum = 0
Injected packet rate average = 0.0181562
	minimum = 0.014 (at node 2)
	maximum = 0.0215 (at node 8)
Accepted packet rate average = 0.0179687
	minimum = 0.014 (at node 8)
	maximum = 0.021 (at node 2)
Injected flit rate average = 0.0181562
	minimum = 0.014 (at node 2)
	maximum = 0.0215 (at node 8)
Accepted flit rate average= 0.0179687
	minimum = 0.014 (at node 8)
	maximum = 0.021 (at node 2)
Injected packet length average = 1
Accepted packet length average = 1
Total in-flight flits = 6 (0 measured)
latency change    = 0.0233237
throughput change = 0.0365217
Class 0:
Packet latency average = 19.7054
	minimum = 7
	maximum = 47
Network latency average = 19.7054
	minimum = 7
	maximum = 47
Slowest packet = 226073
Flit latency average = 19.7054
	minimum = 7
	maximum = 47
Slowest flit = 226073
Fragmentation average = 0
	minimum = 0
	maximum = 0
Injected packet rate average = 0.0209375
	minimum = 0.015 (at node 4)
	maximum = 0.03 (at node 6)
Accepted packet rate average = 0.021
	minimum = 0.015 (at node 1)
	maximum = 0.03 (at node 6)
Injected flit rate average = 0.0209375
	minimum = 0.015 (at node 4)
	maximum = 0.03 (at node 6)
Accepted flit rate average= 0.021
	minimum = 0.015 (at node 1)
	maximum = 0.03 (at node 6)
Injected packet length average = 1
Accepted packet length average = 1
Total in-flight flits = 5 (0 measured)
latency change    = 0.0230862
throughput change = 0.144345
Warmed up ...Time used is 3000 cycles
Class 0:
Packet latency average = 19.854
	minimum = 7
	maximum = 46
Network latency average = 19.854
	minimum = 7
	maximum = 46
Slowest packet = 226544
Flit latency average = 19.8716
	minimum = 7
	maximum = 46
Slowest flit = 226544
Fragmentation average = 0
	minimum = 0
	maximum = 0
Injected packet rate average = 0.02075
	minimum = 0.01 (at node 0)
	maximum = 0.032 (at node 4)
Accepted packet rate average = 0.0204375
	minimum = 0.01 (at node 0)
	maximum = 0.032 (at node 1)
Injected flit rate average = 0.02075
	minimum = 0.01 (at node 0)
	maximum = 0.032 (at node 4)
Accepted flit rate average= 0.0204375
	minimum = 0.01 (at node 0)
	maximum = 0.032 (at node 1)
Injected packet length average = 1
Accepted packet length average = 1
Total in-flight flits = 10 (10 measured)
latency change    = 0.00748866
throughput change = 0.0275229
Class 0:
Packet latency average = 19.2437
	minimum = 7
	maximum = 46
Network latency average = 19.2437
	minimum = 7
	maximum = 46
Slowest packet = 226544
Flit latency average = 19.2574
	minimum = 7
	maximum = 46
Slowest flit = 226544
Fragmentation average = 0
	minimum = 0
	maximum = 0
Injected packet rate average = 0.0202188
	minimum = 0.0145 (at node 0)
	maximum = 0.0265 (at node 4)
Accepted packet rate average = 0.0200313
	minimum = 0.0145 (at node 0)
	maximum = 0.0265 (at node 1)
Injected flit rate average = 0.0202188
	minimum = 0.0145 (at node 0)
	maximum = 0.0265 (at node 4)
Accepted flit rate average= 0.0200313
	minimum = 0.0145 (at node 0)
	maximum = 0.0265 (at node 1)
Injected packet length average = 1
Accepted packet length average = 1
Total in-flight flits = 11 (11 measured)
latency change    = 0.0317156
throughput change = 0.0202808
Class 0:
Packet latency average = 19.903
	minimum = 7
	maximum = 54
Network latency average = 19.903
	minimum = 7
	maximum = 54
Slowest packet = 227085
Flit latency average = 19.9087
	minimum = 7
	maximum = 54
Slowest flit = 227085
Fragmentation average = 0
	minimum = 0
	maximum = 0
Injected packet rate average = 0.020125
	minimum = 0.0156667 (at node 8)
	maximum = 0.0236667 (at node 4)
Accepted packet rate average = 0.0200833
	minimum = 0.0153333 (at node 2)
	maximum = 0.0236667 (at node 1)
Injected flit rate average = 0.020125
	minimum = 0.0156667 (at node 8)
	maximum = 0.0236667 (at node 4)
Accepted flit rate average= 0.0200833
	minimum = 0.0153333 (at node 2)
	maximum = 0.0236667 (at node 1)
Injected packet length average = 1
Accepted packet length average = 1
Total in-flight flits = 7 (7 measured)
latency change    = 0.0331263
throughput change = 0.00259336
Draining all recorded packets ...
Draining remaining packets ...
Time taken is 6063 cycles
====== Overall Traffic Statistics ======
====== Traffic class 0 ======
Packet latency average = 19.7329 (100 samples)
	minimum = 7 (100 samples)
	maximum = 49.83 (100 samples)
Network latency average = 19.7329 (100 samples)
	minimum = 7 (100 samples)
	maximum = 49.83 (100 samples)
Flit latency average = 19.7634 (100 samples)
	minimum = 7 (100 samples)
	maximum = 49.83 (100 samples)
Fragmentation average = 0 (100 samples)
	minimum = 0 (100 samples)
	maximum = 0 (100 samples)
Injected packet rate average = 0.0199659 (100 samples)
	minimum = 0.0160428 (100 samples)
	maximum = 0.0242267 (100 samples)
Accepted packet rate average = 0.0199585 (100 samples)
	minimum = 0.0160238 (100 samples)
	maximum = 0.0241957 (100 samples)
Injected flit rate average = 0.0199659 (100 samples)
	minimum = 0.0160428 (100 samples)
	maximum = 0.0242267 (100 samples)
Accepted flit rate average = 0.0199585 (100 samples)
	minimum = 0.0160238 (100 samples)
	maximum = 0.0241957 (100 samples)
Injected packet size average = 1 (100 samples)
Accepted packet size average = 1 (100 samples)
Hops average = 3.49686 (100 samples)
Total run time 5.25126
