BEGIN Configuration File: /tmp/tmp8b9mogsc.cfg
topology = mesh;
k = 4;
n = 2;
routing_function = adaptive_xy_yx;
num_vcs = 4;
vc_buf_size = 4;
wait_for_tail_credit = 1;
vc_allocator = islip;
sw_allocator = islip;
alloc_iters = 1;
credit_delay = 2;
routing_delay = 1;
vc_alloc_delay = 1;
sw_alloc_delay = 1;
input_speedup = 2;
output_speedup = 1;
internal_speedup = 1.0;
traffic = uniform;
packet_size = 1;
sim_type = latency;
injection_rate = 0.02;
warmup_periods = 3;
sample_period = 1000;
sim_count = 100;
seed = 2;

END Configuration File: /tmp/tmp8b9mogsc.cfg
Class 0:
Packet latency average = 19.1004
	minimum = 7
	maximum = 37
Network latency average = 19.1004
	minimum = 7
	maximum = 37
Slowest packet = 129
Flit latency average = 19.1004
	minimum = 7
	maximum = 37
Slowest flit = 129
Fragmentation average = 0
	minimum = 0
	maximum = 0
Injected packet rate average = 0.0180625
	minimum = 0.008 (at node 9)
	maximum = 0.025 (at node 10)
Accepted packet rate average = 0.0174375
	minimum = 0.011 (at node 5)
	maximum = 0.023 (at node 6)
Injected flit rate average = 0.0180625
	minimum = 0.008 (at node 9)
	maximum = 0.025 (at node 10)
Accepted flit rate average= 0.0174375
	minimum = 0.011 (at node 5)
	maximum = 0.023 (at node 6)
Injected packet length average = 1
Accepted packet length average = 1
Total in-flight flits = 10 (0 measured)
latency change    = 1
throughput change = 1
Class 0:
Packet latency average = 19.4191
	minimum = 7
	maximum = 37
Network latency average = 19.4191
	minimum = 7
	maximum = 37
Slowest packet = 129
Flit latency average = 19.4191
	minimum = 7
	maximum = 37
Slowest flit = 129
Fragmentation average = 0
	minimum = 0
	maximum = 0
Injected packet rate average = 0.0190937
	minimum = 0.0145 (at node 2)
	maximum = 0.028 (at node 10)
Accepted packet rate average = 0.0189375
	minimum = 0.0145 (at node 15)
	maximum = 0.024 (at node 13)
Injected flit rate average = 0.0190937
	minimum = 0.0145 (at node 2)
	maximum = 0.028 (at node 10)
Accepted flit rate average= 0.0189375
	minimum = 0.0145 (at node 15)
	maximum = 0.024 (at node 13)
Injected packet length average = 1
Accepted packet length average = 1
Total in-flight flits = 5 (0 measured)
latency change    = 0.0164159
throughput change = 0.0792079
Class 0:
Packet latency average = 19.4155
	minimum = 7
	maximum = 37
Network latency average = 19.4155
	minimum = 7
	maximum = 37
Slowest packet = 641
Flit latency average = 19.4155
	minimum = 7
	maximum = 37
Slowest flit = 641
Fragmentation average = 0
	minimum = 0
	maximum = 0
Injected packet rate average = 0.0185
	minimum = 0.011 (at node 6)
	maximum = 0.025 (at node 10)
Accepted packet rate average = 0.0185
	minimum = 0.01 (at node 11)
	maximum = 0.026 (at node 12)
Injected flit rate average = 0.0185
	minimum = 0.011 (at node 6)
	maximum = 0.025 (at node 10)
Accepted flit rate average= 0.0185
	minimum = 0.01 (at node 11)
	maximum = 0.026 (at node 12)
Injected packet length average = 1
Accepted packet length average = 1
Total in-flight flits = 5 (0 measured)
latency change    = 0.000185489
throughput change = 0.0236486
Warmed up ...Time used is 3000 cycles
Class 0:
Packet latency average = 19.5912
	minimum = 7
	maximum = 37
Network latency average = 19.5912
	minimum = 7
	maximum = 37
Slowest packet = 919
Flit latency average = 19.5422
	minimum = 7
	maximum = 37
Slowest flit = 919
Fragmentation average = 0
	minimum = 0
	maximum = 0
Injected packet rate average = 0.0229375
	minimum = 0.013 (at node 6)
	maximum = 0.03 (at node 12)
Accepted packet rate average = 0.0229375
	minimum = 0.017 (at node 1)
	maximum = 0.03 (at node 11)
Injected flit rate average = 0.0229375
	minimum = 0.013 (at node 6)
	maximum = 0.03 (at node 12)
Accepted flit rate average= 0.0229375
	minimum = 0.017 (at node 1)
	maximum = 0.03 (at node 11)
Injected packet length average = 1
Accepted packet length average = 1
Total in-flight flits = 5 (5 measured)
latency change    = 0.00896423
throughput change = 0.19346
Class 0:
Packet latency average = 19.6272
	minimum = 7
	maximum = 37
Network latency average = 19.6272
	minimum = 7
	maximum = 37
Slowest packet = 919
Flit latency average = 19.6003
	minimum = 7
	maximum = 37
Slowest flit = 919
Fragmentation average = 0
	minimum = 0
	maximum = 0
Injected packet rate average = 0.0210625
	minimum = 0.017 (at node 1)
	maximum = 0.026 (at node 7)
Accepted packet rate average = 0.0210313
	minimum = 0.017 (at node 6)
	maximum = 0.026 (at node 5)
Injected flit rate average = 0.0210625
	minimum = 0.017 (at node 1)
	maximum = 0.026 (at node 7)
Accepted flit rate average= 0.0210313
	minimum = 0.017 (at node 6)
	maximum = 0.026 (at node 5)
Injected packet length average = 1
Accepted packet length average = 1
Total in-flight flits = 6 (6 measured)
latency change    = 0.00183853
throughput change = 0.0906389
Class 0:
Packet latency average = 19.4458
	minimum = 7
	maximum = 37
Network latency average = 19.4458
	minimum = 7
	maximum = 37
Slowest packet = 919
Flit latency average = 19.4284
	minimum = 7
	maximum = 37
Slowest flit = 919
Fragmentation average = 0
	minimum = 0
	maximum = 0
Injected packet rate average = 0.0206667
	minimum = 0.018 (at node 8)
	maximum = 0.0243333 (at node 10)
Accepted packet rate average = 0.0206667
	minimum = 0.0176667 (at node 0)
	maximum = 0.0256667 (at node 11)
Injected flit rate average = 0.0206667
	minimum = 0.018 (at node 8)
	maximum = 0.0243333 (at node 10)
Accepted flit rate average= 0.0206667
	minimum = 0.0176667 (at node 0)
	maximum = 0.0256667 (at node 11)
Injected packet length average = 1
Accepted packet length average = 1
Total in-flight flits = 5 (5 measured)
latency change    = 0.00933107
throughput change = 0.0176411
Class 0:
Packet latency average = 19.3615
	minimum = 7
	maximum = 37
Network latency average = 19.3615
	minimum = 7
	maximum = 37
Slowest packet = 919
Flit latency average = 19.3487
	minimum = 7
	maximum = 37
Slowest flit = 919
Fragmentation average = 0
	minimum = 0
	maximum = 0
Injected packet rate average = 0.0204688
	minimum = 0.01725 (at node 2)
	maximum = 0.0225 (at node 4)
Accepted packet rate average = 0.0203906
	minimum = 0.01725 (at node 12)
	maximum = 0.025 (at node 11)
Injected flit rate average = 0.0204688
	minimum = 0.01725 (at node 2)
	maximum = 0.0225 (at node 4)
Accepted flit rate average= 0.0203906
	minimum = 0.01725 (at node 12)
	maximum = 0.025 (at node 11)
Injected packet length average = 1
Accepted packet length average = 1
Total in-flight flits = 10 (10 measured)
latency change    = 0.00435177
throughput change = 0.0135377
Class 0:
Packet latency average = 19.3685
	minimum = 7
	maximum = 40
Network latency average = 19.3685
	minimum = 7
	maximum = 40
Slowest packet = 2209
Flit latency average = 19.3582
	minimum = 7
	maximum = 40
Slowest flit = 2209
Fragmentation average = 0
	minimum = 0
	maximum = 0
Injected packet rate average = 0.0206
	minimum = 0.0174 (at node 2)
	maximum = 0.0236 (at node 15)
Accepted packet rate average = 0.0205875
	minimum = 0.0166 (at node 12)
	maximum = 0.0258 (at node 7)
Injected flit rate average = 0.0206
	minimum = 0.0174 (at node 2)
	maximum = 0.0236 (at node 15)
Accepted flit rate average= 0.0205875
	minimum = 0.0166 (at node 12)
	maximum = 0.0258 (at node 7)
Injected packet length average = 1
Accepted packet length average = 1
Total in-flight flits = 6 (6 measured)
latency change    = 0.000357006
throughput change = 0.00956284
Draining all recorded packets ...
Draining remaining packets ...
Time taken is 8041 cycles
Class 0:
Packet latency average = 20.3365
	minimum = 7
	maximum = 46
Network latency average = 20.3365
	minimum = 7
	maximum = 46
Slowest packet = 2674
Flit latency average = 20.3365
	minimum = 7
	maximum = 46
Slowest flit = 2674
Fragmentation average = 0
	minimum = 0
	maximum = 0
Injected packet rate average = 0.0201875
	minimum = 0.015 (at node 5)
	maximum = 0.03 (at node 3)
Accepted packet rate average = 0.019875
	minimum = 0.013 (at node 12)
	maximum = 0.024 (at node 7)
Injected flit rate average = 0.0201875
	minimum = 0.015 (at node 5)
	maximum = 0.03 (at node 3)
Accepted flit rate average= 0.019875
	minimum = 0.013 (at node 12)
	maximum = 0.024 (at node 7)
Injected packet length average = 1
Accepted packet length average = 1
Total in-flight flits = 5 (0 measured)
latency change    = 1
throughput change = 1
Class 0:
Packet latency average = 19.7136
	minimum = 7
	maximum = 46
Network latency average = 19.7136
	minimum = 7
	maximum = 46
Slowest packet = 2674
Flit latency average = 19.7136
	minimum = 7
	maximum = 46
Slowest flit = 2674
Fragmentation average = 0
	minimum = 0
	maximum = 0
Injected packet rate average = 0.0208438
	minimum = 0.017 (at node 9)
	maximum = 0.0245 (at node 3)
Accepted packet rate average = 0.020625
	minimum = 0.014 (at node 14)
	maximum = 0.0255 (at node 10)
Injected flit rate average = 0.0208438
	minimum = 0.017 (at node 9)
	maximum = 0.0245 (at node 3)
Accepted flit rate average= 0.020625
	minimum = 0.014 (at node 14)
	maximum = 0.0255 (at node 10)
Injected packet length average = 1
Accepted packet length average = 1
Total in-flight flits = 7 (0 measured)
latency change    = 0.0315945
throughput change = 0.0363636
Class 0:
Packet latency average = 19.1192
	minimum = 7
	maximum = 38
Network latency average = 19.1192
	minimum = 7
	maximum = 38
Slowest packet = 3299
Flit latency average = 19.1192
	minimum = 7
	maximum = 38
Slowest flit = 3299
Fragmentation average = 0
	minimum = 0
	maximum = 0
Injected packet rate average = 0.0216875
	minimum = 0.015 (at node 1)
	maximum = 0.03 (at node 12)
Accepted packet rate average = 0.0215
	minimum = 0.013 (at node 12)
	maximum = 0.028 (at node 6)
Injected flit rate average = 0.0216875
	minimum = 0.015 (at node 1)
	maximum = 0.03 (at node 12)
Accepted flit rate average= 0.0215
	minimum = 0.013 (at node 12)
	maximum = 0.028 (at node 6)
Injected packet length average = 1
Accepted packet length average = 1
Total in-flight flits = 10 (0 measured)
latency change    = 0.0310918
throughput change = 0.0406977
Warmed up ...Time used is 3000 cycles
Class 0:
Packet latency average = 19.9805
	minimum = 7
	maximum = 37
Network latency average = 19.9805
	minimum = 7
	maximum = 37
Slowest packet = 3586
Flit latency average = 20.0473
	minimum = 7
	maximum = 37
Slowest flit = 3586
Fragmentation average = 0
	minimum = 0
	maximum = 0
Injected packet rate average = 0.0195625
	minimum = 0.013 (at node 9)
	maximum = 0.026 (at node 1)
Accepted packet rate average = 0.0198125
	minimum = 0.011 (at node 11)
	maximum = 0.025 (at node 3)
Injected flit rate average = 0.0195625
	minimum = 0.013 (at node 9)
	maximum = 0.026 (at node 1)
Accepted flit rate average= 0.0198125
	minimum = 0.011 (at node 11)
	maximum = 0.025 (at node 3)
Injected packet length average = 1
Accepted packet length average = 1
Total in-flight flits = 6 (6 measured)
latency change    = 0.0431056
throughput change = 0.0851735
Class 0:
Packet latency average = 19.7595
	minimum = 7
	maximum = 38
Network latency average = 19.7595
	minimum = 7
	maximum = 38
Slowest packet = 4070
Flit latency average = 19.7974
	minimum = 7
	maximum = 38
Slowest flit = 4070
Fragmentation average = 0
	minimum = 0
	maximum = 0
Injected packet rate average = 0.0191875
	minimum = 0.0135 (at node 9)
	maximum = 0.0235 (at node 5)
Accepted packet rate average = 0.0192812
	minimum = 0.0135 (at node 11)
	maximum = 0.0245 (at node 3)
Injected flit rate average = 0.0191875
	minimum = 0.0135 (at node 9)
	maximum = 0.0235 (at node 5)
Accepted flit rate average= 0.0192812
	minimum = 0.0135 (at node 11)
	maximum = 0.0245 (at node 3)
Injected packet length average = 1
Accepted packet length average = 1
Total in-flight flits = 7 (7 measured)
latency change    = 0.0111837
throughput change = 0.0275527
Class 0:
Packet latency average = 19.9023
	minimum = 7
	maximum = 38
Network latency average = 19.9023
	minimum = 7
	maximum = 38
Slowest packet = 4070
Flit latency average = 19.9259
	minimum = 7
	maximum = 38
Slowest flit = 4070
Fragmentation average = 0
	minimum = 0
	maximum = 0
Injected packet rate average = 0.0192917
	minimum = 0.015 (at node 6)
	maximum = 0.0226667 (at node 1)
Accepted packet rate average = 0.0193958
	minimum = 0.0173333 (at node 5)
	maximum = 0.0223333 (at node 3)
Injected flit rate average = 0.0192917
	minimum = 0.015 (at node 6)
	maximum = 0.0226667 (at node 1)
Accepted flit rate average= 0.0193958
	minimum = 0.0173333 (at node 5)
	maximum = 0.0223333 (at node 3)
Injected packet length average = 1
Accepted packet length average = 1
Total in-flight flits = 5 (5 measured)
latency change    = 0.00717542
throughput change = 0.00590763
Class 0:
Packet latency average = 19.8838
	minimum = 7
	maximum = 38
Network latency average = 19.8838
	minimum = 7
	maximum = 38
Slowest packet = 4070
Flit latency average = 19.9017
	minimum = 7
	maximum = 38
Slowest flit = 4070
Fragmentation average = 0
	minimum = 0
	maximum = 0
Injected packet rate average = 0.0193594
	minimum = 0.015 (at node 6)
	maximum = 0.0225 (at node 5)
Accepted packet rate average = 0.0193906
	minimum = 0.017 (at node 7)
	maximum = 0.02275 (at node 3)
Injected flit rate average = 0.0193594
	minimum = 0.015 (at node 6)
	maximum = 0.0225 (at node 5)
Accepted flit rate average= 0.0193906
	minimum = 0.017 (at node 7)
	maximum = 0.02275 (at node 3)
Injected packet length average = 1
Accepted packet length average = 1
Total in-flight flits = 8 (8 measured)
latency change    = 0.000927681
throughput change = 0.000268601
Draining all recorded packets ...
Draining remaining packets ...
Time taken is 7037 cycles
Class 0:
Packet latency average = 20.3563
	minimum = 7
	maximum = 37
Network latency average = 20.3563
	minimum = 7
	maximum = 37
Slowest packet = 4893
Flit latency average = 20.3563
	minimum = 7
	maximum = 37
Slowest flit = 4893
Fragmentation average = 0
	minimum = 0
	maximum = 0
Injected packet rate average = 0.022125
	minimum = 0.011 (at node 2)
	maximum = 0.034 (at node 1)
Accepted packet rate average = 0.02175
	minimum = 0.014 (at node 13)
	maximum = 0.034 (at node 14)
Injected flit rate average = 0.022125
	minimum = 0.011 (at node 2)
	maximum = 0.034 (at node 1)
Accepted flit rate average= 0.02175
	minimum = 0.014 (at node 13)
	maximum = 0.034 (at node 14)
Injected packet length average = 1
Accepted packet length average = 1
Total in-flight flits = 6 (0 measured)
latency change    = 1
throughput change = 1
Class 0:
Packet latency average = 19.9783
	minimum = 7
	maximum = 37
Network latency average = 19.9783
	minimum = 7
	maximum = 37
Slowest packet = 4893
Flit latency average = 19.9783
	minimum = 7
	maximum = 37
Slowest flit = 4893
Fragmentation average = 0
	minimum = 0
	maximum = 0
Injected packet rate average = 0.0202188
	minimum = 0.0165 (at node 2)
	maximum = 0.027 (at node 8)
Accepted packet rate average = 0.0201875
	minimum = 0.0115 (at node 13)
	maximum = 0.0295 (at node 2)
Injected flit rate average = 0.0202188
	minimum = 0.0165 (at node 2)
	maximum = 0.027 (at node 8)
Accepted flit rate average= 0.0201875
	minimum = 0.0115 (at node 13)
	maximum = 0.0295 (at node 2)
Injected packet length average = 1
Accepted packet length average = 1
Total in-flight flits = 1 (0 measured)
latency change    = 0.0189202
throughput change = 0.0773994
Class 0:
Packet latency average = 18.5333
	minimum = 7
	maximum = 37
Network latency average = 18.5333
	minimum = 7
	maximum = 37
Slowest packet = 5568
Flit latency average = 18.5333
	minimum = 7
	maximum = 37
Slowest flit = 5568
Fragmentation average = 0
	minimum = 0
	maximum = 0
Injected packet rate average = 0.0198125
	minimum = 0.012 (at node 1)
	maximum = 0.028 (at node 2)
Accepted packet rate average = 0.0196875
	minimum = 0.014 (at node 3)
	maximum = 0.032 (at node 0)
Injected flit rate average = 0.0198125
	minimum = 0.012 (at node 1)
	maximum = 0.028 (at node 2)
Accepted flit rate average= 0.0196875
	minimum = 0.014 (at node 3)
	maximum = 0.032 (at node 0)
Injected packet length average = 1
Accepted packet length average = 1
Total in-flight flits = 3 (0 measured)
latency change    = 0.0779673
throughput change = 0.0253968
Warmed up ...Time used is 3000 cycles
Class 0:
Packet latency average = 18.6029
	minimum = 7
	maximum = 37
Network latency average = 18.6029
	minimum = 7
	maximum = 37
Slowest packet = 5948
Flit latency average = 18.6218
	minimum = 7
	maximum = 37
Slowest flit = 5948
Fragmentation average = 0
	minimum = 0
	maximum = 0
Injected packet rate average = 0.0173125
	minimum = 0.012 (at node 10)
	maximum = 0.027 (at node 12)
Accepted packet rate average = 0.0171875
	minimum = 0.01 (at node 2)
	maximum = 0.029 (at node 11)
Injected flit rate average = 0.0173125
	minimum = 0.012 (at node 10)
	maximum = 0.027 (at node 12)
Accepted flit rate average= 0.0171875
	minimum = 0.01 (at node 2)
	maximum = 0.029 (at node 11)
Injected packet length average = 1
Accepted packet length average = 1
Total in-flight flits = 5 (5 measured)
latency change    = 0.00374177
throughput change = 0.145455
Class 0:
Packet latency average = 18.7559
	minimum = 7
	maximum = 37
Network latency average = 18.7559
	minimum = 7
	maximum = 37
Slowest packet = 5948
Flit latency average = 18.7639
	minimum = 7
	maximum = 37
Slowest flit = 5948
Fragmentation average = 0
	minimum = 0
	maximum = 0
Injected packet rate average = 0.0186562
	minimum = 0.014 (at node 15)
	maximum = 0.0265 (at node 12)
Accepted packet rate average = 0.0185312
	minimum = 0.011 (at node 3)
	maximum = 0.0245 (at node 11)
Injected flit rate average = 0.0186562
	minimum = 0.014 (at node 15)
	maximum = 0.0265 (at node 12)
Accepted flit rate average= 0.0185312
	minimum = 0.011 (at node 3)
	maximum = 0.0245 (at node 11)
Injected packet length average = 1
Accepted packet length average = 1
Total in-flight flits = 7 (7 measured)
latency change    = 0.00815694
throughput change = 0.0725126
Class 0:
Packet latency average = 18.6879
	minimum = 7
	maximum = 37
Network latency average = 18.6879
	minimum = 7
	maximum = 37
Slowest packet = 5948
Flit latency average = 18.6932
	minimum = 7
	maximum = 37
Slowest flit = 5948
Fragmentation average = 0
	minimum = 0
	maximum = 0
Injected packet rate average = 0.0194167
	minimum = 0.016 (at node 15)
	maximum = 0.0243333 (at node 12)
Accepted packet rate average = 0.0193542
	minimum = 0.0156667 (at node 3)
	maximum = 0.022 (at node 4)
Injected flit rate average = 0.0194167
	minimum = 0.016 (at node 15)
	maximum = 0.0243333 (at node 12)
Accepted flit rate average= 0.0193542
	minimum = 0.0156667 (at node 3)
	maximum = 0.022 (at node 4)
Injected packet length average = 1
Accepted packet length average = 1
Total in-flight flits = 6 (6 measured)
latency change    = 0.00364017
throughput change = 0.0425188
Class 0:
Packet latency average = 18.9478
	minimum = 7
	maximum = 37
Network latency average = 18.9478
	minimum = 7
	maximum = 37
Slowest packet = 5948
Flit latency average = 18.9512
	minimum = 7
	maximum = 37
Slowest flit = 5948
Fragmentation average = 0
	minimum = 0
	maximum = 0
Injected packet rate average = 0.0195781
	minimum = 0.017 (at node 15)
	maximum = 0.02325 (at node 12)
Accepted packet rate average = 0.0195156
	minimum = 0.01575 (at node 3)
	maximum = 0.0225 (at node 10)
Injected flit rate average = 0.0195781
	minimum = 0.017 (at node 15)
	maximum = 0.02325 (at node 12)
Accepted flit rate average= 0.0195156
	minimum = 0.01575 (at node 3)
	maximum = 0.0225 (at node 10)
Injected packet length average = 1
Accepted packet length average = 1
Total in-flight flits = 7 (7 measured)
latency change    = 0.0137181
throughput change = 0.00827329
Class 0:
Packet latency average = 19.0038
	minimum = 7
	maximum = 37
Network latency average = 19.0038
	minimum = 7
	maximum = 37
Slowest packet = 5948
Flit latency average = 19.0064
	minimum = 7
	maximum = 37
Slowest flit = 5948
Fragmentation average = 0
	minimum = 0
	maximum = 0
Injected packet rate average = 0.0196875
	minimum = 0.017 (at node 15)
	maximum = 0.0236 (at node 13)
Accepted packet rate average = 0.0195875
	minimum = 0.0168 (at node 7)
	maximum = 0.023 (at node 10)
Injected flit rate average = 0.0196875
	minimum = 0.017 (at node 15)
	maximum = 0.0236 (at node 13)
Accepted flit rate average= 0.0195875
	minimum = 0.0168 (at node 7)
	maximum = 0.023 (at node 10)
Injected packet length average = 1
Accepted packet length average = 1
Total in-flight flits = 11 (11 measured)
latency change    = 0.00294694
throughput change = 0.00366943
Draining all recorded packets ...
Draining remaining packets ...
Time taken is 8050 cycles
Class 0:
Packet latency average = 19.0419
	minimum = 7
	maximum = 37
Network latency average = 19.0419
	minimum = 7
	maximum = 37
Slowest packet = 7566
Flit latency average = 19.0419
	minimum = 7
	maximum = 37
Slowest flit = 7566
Fragmentation average = 0
	minimum = 0
	maximum = 0
Injected packet rate average = 0.0195625
	minimum = 0.015 (at node 0)
	maximum = 0.027 (at node 6)
Accepted packet rate average = 0.019375
	minimum = 0.008 (at node 15)
	maximum = 0.032 (at node 9)
Injected flit rate average = 0.0195625
	minimum = 0.015 (at node 0)
	maximum = 0.027 (at node 6)
Accepted flit rate average= 0.019375
	minimum = 0.008 (at node 15)
	maximum = 0.032 (at node 9)
Injected packet length average = 1
Accepted packet length average = 1
Total in-flight flits = 3 (0 measured)
latency change    = 1
throughput change = 1
Class 0:
Packet latency average = 19.3625
	minimum = 7
	maximum = 37
Network latency average = 19.3625
	minimum = 7
	maximum = 37
Slowest packet = 7566
Flit latency average = 19.3625
	minimum = 7
	maximum = 37
Slowest flit = 7566
Fragmentation average = 0
	minimum = 0
	maximum = 0
Injected packet rate average = 0.0199688
	minimum = 0.0125 (at node 5)
	maximum = 0.026 (at node 6)
Accepted packet rate average = 0.0196563
	minimum = 0.0135 (at node 15)
	maximum = 0.0295 (at node 2)
Injected flit rate average = 0.0199688
	minimum = 0.0125 (at node 5)
	maximum = 0.026 (at node 6)
Accepted flit rate average= 0.0196563
	minimum = 0.0135 (at node 15)
	maximum = 0.0295 (at node 2)
Injected packet length average = 1
Accepted packet length average = 1
Total in-flight flits = 10 (0 measured)
latency change    = 0.0165549
throughput change = 0.0143084
Class 0:
Packet latency average = 20.5406
	minimum = 7
	maximum = 37
Network latency average = 20.5406
	minimum = 7
	maximum = 37
Slowest packet = 8274
Flit latency average = 20.5406
	minimum = 7
	maximum = 37
Slowest flit = 8274
Fragmentation average = 0
	minimum = 0
	maximum = 0
Injected packet rate average = 0.0195
	minimum = 0.012 (at node 5)
	maximum = 0.027 (at node 7)
Accepted packet rate average = 0.02
	minimum = 0.013 (at node 4)
	maximum = 0.025 (at node 8)
Injected flit rate average = 0.0195
	minimum = 0.012 (at node 5)
	maximum = 0.027 (at node 7)
Accepted flit rate average= 0.02
	minimum = 0.013 (at node 4)
	maximum = 0.025 (at node 8)
Injected packet length average = 1
Accepted packet length average = 1
Total in-flight flits = 2 (0 measured)
latency change    = 0.0573568
throughput change = 0.0171875
Warmed up ...Time used is 3000 cycles
Class 0:
Packet latency average = 19.6092
	minimum = 7
	maximum = 38
Network latency average = 19.6092
	minimum = 7
	maximum = 38
Slowest packet = 8627
Flit latency average = 19.6086
	minimum = 7
	maximum = 38
Slowest flit = 8627
Fragmentation average = 0
	minimum = 0
	maximum = 0
Injected packet rate average = 0.0206875
	minimum = 0.01 (at node 9)
	maximum = 0.033 (at node 4)
Accepted packet rate average = 0.0204375
	minimum = 0.016 (at node 1)
	maximum = 0.029 (at node 0)
Injected flit rate average = 0.0206875
	minimum = 0.01 (at node 9)
	maximum = 0.033 (at node 4)
Accepted flit rate average= 0.0204375
	minimum = 0.016 (at node 1)
	maximum = 0.029 (at node 0)
Injected packet length average = 1
Accepted packet length average = 1
Total in-flight flits = 6 (6 measured)
latency change    = 0.0474977
throughput change = 0.0214067
Class 0:
Packet latency average = 19.3942
	minimum = 7
	maximum = 38
Network latency average = 19.3942
	minimum = 7
	maximum = 38
Slowest packet = 8627
Flit latency average = 19.3945
	minimum = 7
	maximum = 38
Slowest flit = 8627
Fragmentation average = 0
	minimum = 0
	maximum = 0
Injected packet rate average = 0.0207188
	minimum = 0.0165 (at node 9)
	maximum = 0.025 (at node 4)
Accepted packet rate average = 0.0205938
	minimum = 0.0145 (at node 1)
	maximum = 0.0275 (at node 0)
Injected flit rate average = 0.0207188
	minimum = 0.0165 (at node 9)
	maximum = 0.025 (at node 4)
Accepted flit rate average= 0.0205938
	minimum = 0.0145 (at node 1)
	maximum = 0.0275 (at node 0)
Injected packet length average = 1
Accepted packet length average = 1
Total in-flight flits = 6 (6 measured)
latency change    = 0.0110865
throughput change = 0.00758725
Class 0:
Packet latency average = 19.3571
	minimum = 7
	maximum = 38
Network latency average = 19.3571
	minimum = 7
	maximum = 38
Slowest packet = 8627
Flit latency average = 19.3574
	minimum = 7
	maximum = 38
Slowest flit = 8627
Fragmentation average = 0
	minimum = 0
	maximum = 0
Injected packet rate average = 0.0205
	minimum = 0.015 (at node 9)
	maximum = 0.024 (at node 0)
Accepted packet rate average = 0.0204583
	minimum = 0.0146667 (at node 1)
	maximum = 0.0236667 (at node 5)
Injected flit rate average = 0.0205
	minimum = 0.015 (at node 9)
	maximum = 0.024 (at node 0)
Accepted flit rate average= 0.0204583
	minimum = 0.0146667 (at node 1)
	maximum = 0.0236667 (at node 5)
Injected packet length average = 1
Accepted packet length average = 1
Total in-flight flits = 4 (4 measured)
latency change    = 0.00191522
throughput change = 0.00661914
Draining all recorded packets ...
Draining remaining packets ...
Time taken is 6051 cycles
Class 0:
Packet latency average = 19.2219
	minimum = 7
	maximum = 37
Network latency average = 19.2219
	minimum = 7
	maximum = 37
Slowest packet = 9363
Flit latency average = 19.2219
	minimum = 7
	maximum = 37
Slowest flit = 9363
Fragmentation average = 0
	minimum = 0
	maximum = 0
Injected packet rate average = 0.0201875
	minimum = 0.013 (at node 10)
	maximum = 0.026 (at node 9)
Accepted packet rate average = 0.02
	minimum = 0.015 (at node 2)
	maximum = 0.027 (at node 11)
Injected flit rate average = 0.0201875
	minimum = 0.013 (at node 10)
	maximum = 0.026 (at node 9)
Accepted flit rate average= 0.02
	minimum = 0.015 (at node 2)
	maximum = 0.027 (at node 11)
Injected packet length average = 1
Accepted packet length average = 1
Total in-flight flits = 3 (0 measured)
latency change    = 1
throughput change = 1
Class 0:
Packet latency average = 19.2616
	minimum = 7
	maximum = 37
Network latency average = 19.2616
	minimum = 7
	maximum = 37
Slowest packet = 9363
Flit latency average = 19.2616
	minimum = 7
	maximum = 37
Slowest flit = 9363
Fragmentation average = 0
	minimum = 0
	maximum = 0
Injected packet rate average = 0.01975
	minimum = 0.0145 (at node 13)
	maximum = 0.025 (at node 6)
Accepted packet rate average = 0.0195938
	minimum = 0.0155 (at node 3)
	maximum = 0.0235 (at node 0)
Injected flit rate average = 0.01975
	minimum = 0.0145 (at node 13)
	maximum = 0.025 (at node 6)
Accepted flit rate average= 0.0195938
	minimum = 0.0155 (at node 3)
	maximum = 0.0235 (at node 0)
Injected packet length average = 1
Accepted packet length average = 1
Total in-flight flits = 5 (0 measured)
latency change    = 0.00206048
throughput change = 0.0207337
Class 0:
Packet latency average = 19.9935
	minimum = 7
	maximum = 37
Network latency average = 19.9935
	minimum = 7
	maximum = 37
Slowest packet = 9948
Flit latency average = 19.9935
	minimum = 7
	maximum = 37
Slowest flit = 9948
Fragmentation average = 0
	minimum = 0
	maximum = 0
Injected packet rate average = 0.0193125
	minimum = 0.013 (at node 7)
	maximum = 0.029 (at node 4)
Accepted packet rate average = 0.0191875
	minimum = 0.014 (at node 8)
	maximum = 0.027 (at node 2)
Injected flit rate average = 0.0193125
	minimum = 0.013 (at node 7)
	maximum = 0.029 (at node 4)
Accepted flit rate average= 0.0191875
	minimum = 0.014 (at node 8)
	maximum = 0.027 (at node 2)
Injected packet length average = 1
Accepted packet length average = 1
Total in-flight flits = 7 (0 measured)
latency change    = 0.036608
throughput change = 0.0211726
Warmed up ...Time used is 3000 cycles
Class 0:
Packet latency average = 19.1411
	minimum = 7
	maximum = 37
Network latency average = 19.1411
	minimum = 7
	maximum = 37
Slowest packet = 10446
Flit latency average = 19.2042
	minimum = 7
	maximum = 37
Slowest flit = 10446
Fragmentation average = 0
	minimum = 0
	maximum = 0
Injected packet rate average = 0.021
	minimum = 0.014 (at node 12)
	maximum = 0.031 (at node 3)
Accepted packet rate average = 0.0208125
	minimum = 0.015 (at node 15)
	maximum = 0.029 (at node 4)
Injected flit rate average = 0.021
	minimum = 0.014 (at node 12)
	maximum = 0.031 (at node 3)
Accepted flit rate average= 0.0208125
	minimum = 0.015 (at node 15)
	maximum = 0.029 (at node 4)
Injected packet length average = 1
Accepted packet length average = 1
Total in-flight flits = 10 (10 measured)
latency change    = 0.0445314
throughput change = 0.0780781
Class 0:
Packet latency average = 19.1486
	minimum = 7
	maximum = 37
Network latency average = 19.1486
	minimum = 7
	maximum = 37
Slowest packet = 10446
Flit latency average = 19.1807
	minimum = 7
	maximum = 37
Slowest flit = 10446
Fragmentation average = 0
	minimum = 0
	maximum = 0
Injected packet rate average = 0.0203125
	minimum = 0.0135 (at node 12)
	maximum = 0.0265 (at node 11)
Accepted packet rate average = 0.0204063
	minimum = 0.016 (at node 8)
	maximum = 0.0255 (at node 4)
Injected flit rate average = 0.0203125
	minimum = 0.0135 (at node 12)
	maximum = 0.0265 (at node 11)
Accepted flit rate average= 0.0204063
	minimum = 0.016 (at node 8)
	maximum = 0.0255 (at node 4)
Injected packet length average = 1
Accepted packet length average = 1
Total in-flight flits = 4 (4 measured)
latency change    = 0.000391805
throughput change = 0.0199081
Class 0:
Packet latency average = 19.2576
	minimum = 7
	maximum = 37
Network latency average = 19.2576
	minimum = 7
	maximum = 37
Slowest packet = 10446
Flit latency average = 19.2786
	minimum = 7
	maximum = 37
Slowest flit = 10446
Fragmentation average = 0
	minimum = 0
	maximum = 0
Injected packet rate average = 0.02
	minimum = 0.0146667 (at node 4)
	maximum = 0.024 (at node 11)
Accepted packet rate average = 0.0200417
	minimum = 0.0166667 (at node 14)
	maximum = 0.024 (at node 2)
Injected flit rate average = 0.02
	minimum = 0.0146667 (at node 4)
	maximum = 0.024 (at node 11)
Accepted flit rate average= 0.0200417
	minimum = 0.0166667 (at node 14)
	maximum = 0.024 (at node 2)
Injected packet length average = 1
Accepted packet length average = 1
Total in-flight flits = 5 (5 measured)
latency change    = 0.00565932
throughput change = 0.0181913
Class 0:
Packet latency average = 19.3881
	minimum = 7
	maximum = 37
Network latency average = 19.3881
	minimum = 7
	maximum = 37
Slowest packet = 10446
Flit latency average = 19.4033
	minimum = 7
	maximum = 37
Slowest flit = 10446
Fragmentation average = 0
	minimum = 0
	maximum = 0
Injected packet rate average = 0.0198438
	minimum = 0.016 (at node 12)
	maximum = 0.023 (at node 7)
Accepted packet rate average = 0.0197969
	minimum = 0.017 (at node 9)
	maximum = 0.023 (at node 2)
Injected flit rate average = 0.0198438
	minimum = 0.016 (at node 12)
	maximum = 0.023 (at node 7)
Accepted flit rate average= 0.0197969
	minimum = 0.017 (at node 9)
	maximum = 0.023 (at node 2)
Injected packet length average = 1
Accepted packet length average = 1
Total in-flight flits = 10 (10 measured)
latency change    = 0.00673112
throughput change = 0.0123652
Draining all recorded packets ...
Draining remaining packets ...
Time taken is 7039 cycles
Class 0:
Packet latency average = 19.2651
	minimum = 7
	maximum = 37
Network latency average = 19.2651
	minimum = 7
	maximum = 37
Slowest packet = 11654
Flit latency average = 19.2651
	minimum = 7
	maximum = 37
Slowest flit = 11654
Fragmentation average = 0
	minimum = 0
	maximum = 0
Injected packet rate average = 0.0190625
	minimum = 0.012 (at node 0)
	maximum = 0.03 (at node 5)
Accepted packet rate average = 0.018625
	minimum = 0.012 (at node 9)
	maximum = 0.024 (at node 6)
Injected flit rate average = 0.0190625
	minimum = 0.012 (at node 0)
	maximum = 0.03 (at node 5)
Accepted flit rate average= 0.018625
	minimum = 0.012 (at node 9)
	maximum = 0.024 (at node 6)
Injected packet length average = 1
Accepted packet length average = 1
Total in-flight flits = 7 (0 measured)
latency change    = 1
throughput change = 1
Class 0:
Packet latency average = 19.4904
	minimum = 7
	maximum = 37
Network latency average = 19.4904
	minimum = 7
	maximum = 37
Slowest packet = 11654
Flit latency average = 19.4904
	minimum = 7
	maximum = 37
Slowest flit = 11654
Fragmentation average = 0
	minimum = 0
	maximum = 0
Injected packet rate average = 0.019625
	minimum = 0.0135 (at node 6)
	maximum = 0.0245 (at node 7)
Accepted packet rate average = 0.0195
	minimum = 0.0125 (at node 9)
	maximum = 0.025 (at node 6)
Injected flit rate average = 0.019625
	minimum = 0.0135 (at node 6)
	maximum = 0.0245 (at node 7)
Accepted flit rate average= 0.0195
	minimum = 0.0125 (at node 9)
	maximum = 0.025 (at node 6)
Injected packet length average = 1
Accepted packet length average = 1
Total in-flight flits = 4 (0 measured)
latency change    = 0.0115587
throughput change = 0.0448718
Class 0:
Packet latency average = 19.8697
	minimum = 7
	maximum = 42
Network latency average = 19.8697
	minimum = 7
	maximum = 42
Slowest packet = 12246
Flit latency average = 19.8697
	minimum = 7
	maximum = 42
Slowest flit = 12246
Fragmentation average = 0
	minimum = 0
	maximum = 0
Injected packet rate average = 0.01775
	minimum = 0.012 (at node 11)
	maximum = 0.027 (at node 3)
Accepted packet rate average = 0.01775
	minimum = 0.01 (at node 6)
	maximum = 0.024 (at node 2)
Injected flit rate average = 0.01775
	minimum = 0.012 (at node 11)
	maximum = 0.027 (at node 3)
Accepted flit rate average= 0.01775
	minimum = 0.01 (at node 6)
	maximum = 0.024 (at node 2)
Injected packet length average = 1
Accepted packet length average = 1
Total in-flight flits = 4 (0 measured)
latency change    = 0.019091
throughput change = 0.0985915
Warmed up ...Time used is 3000 cycles
Class 0:
Packet latency average = 18.8585
	minimum = 7
	maximum = 37
Network latency average = 18.8585
	minimum = 7
	maximum = 37
Slowest packet = 12461
Flit latency average = 18.8825
	minimum = 7
	maximum = 37
Slowest flit = 12461
Fragmentation average = 0
	minimum = 0
	maximum = 0
Injected packet rate average = 0.01975
	minimum = 0.012 (at node 13)
	maximum = 0.028 (at node 11)
Accepted packet rate average = 0.0196875
	minimum = 0.013 (at node 13)
	maximum = 0.026 (at node 5)
Injected flit rate average = 0.01975
	minimum = 0.012 (at node 13)
	maximum = 0.028 (at node 11)
Accepted flit rate average= 0.0196875
	minimum = 0.013 (at node 13)
	maximum = 0.026 (at node 5)
Injected packet length average = 1
Accepted packet length average = 1
Total in-flight flits = 5 (5 measured)
latency change    = 0.0536202
throughput change = 0.0984127
Class 0:
Packet latency average = 18.9151
	minimum = 7
	maximum = 38
Network latency average = 18.9151
	minimum = 7
	maximum = 38
Slowest packet = 12758
Flit latency average = 18.9268
	minimum = 7
	maximum = 38
Slowest flit = 12758
Fragmentation average = 0
	minimum = 0
	maximum = 0
Injected packet rate average = 0.0196563
	minimum = 0.0155 (at node 14)
	maximum = 0.0255 (at node 1)
Accepted packet rate average = 0.019625
	minimum = 0.014 (at node 13)
	maximum = 0.025 (at node 3)
Injected flit rate average = 0.0196563
	minimum = 0.0155 (at node 14)
	maximum = 0.0255 (at node 1)
Accepted flit rate average= 0.019625
	minimum = 0.014 (at node 13)
	maximum = 0.025 (at node 3)
Injected packet length average = 1
Accepted packet length average = 1
Total in-flight flits = 5 (5 measured)
latency change    = 0.00298932
throughput change = 0.00318471
Class 0:
Packet latency average = 19.3152
	minimum = 7
	maximum = 38
Network latency average = 19.3152
	minimum = 7
	maximum = 38
Slowest packet = 12758
Flit latency average = 19.3212
	minimum = 7
	maximum = 38
Slowest flit = 12758
Fragmentation average = 0
	minimum = 0
	maximum = 0
Injected packet rate average = 0.0200208
	minimum = 0.017 (at node 2)
	maximum = 0.0236667 (at node 8)
Accepted packet rate average = 0.0199792
	minimum = 0.0156667 (at node 4)
	maximum = 0.0253333 (at node 3)
Injected flit rate average = 0.0200208
	minimum = 0.017 (at node 2)
	maximum = 0.0236667 (at node 8)
Accepted flit rate average= 0.0199792
	minimum = 0.0156667 (at node 4)
	maximum = 0.0253333 (at node 3)
Injected packet length average = 1
Accepted packet length average = 1
Total in-flight flits = 6 (6 measured)
latency change    = 0.0207153
throughput change = 0.0177268
Class 0:
Packet latency average = 19.3626
	minimum = 7
	maximum = 38
Network latency average = 19.3626
	minimum = 7
	maximum = 38
Slowest packet = 12758
Flit latency average = 19.3671
	minimum = 7
	maximum = 38
Slowest flit = 12758
Fragmentation average = 0
	minimum = 0
	maximum = 0
Injected packet rate average = 0.0191094
	minimum = 0.0165 (at node 13)
	maximum = 0.02175 (at node 8)
Accepted packet rate average = 0.0191094
	minimum = 0.0155 (at node 15)
	maximum = 0.0225 (at node 3)
Injected flit rate average = 0.0191094
	minimum = 0.0165 (at node 13)
	maximum = 0.02175 (at node 8)
Accepted flit rate average= 0.0191094
	minimum = 0.0155 (at node 15)
	maximum = 0.0225 (at node 3)
Injected packet length average = 1
Accepted packet length average = 1
Total in-flight flits = 4 (4 measured)
latency change    = 0.00244849
throughput change = 0.0455165
Draining all recorded packets ...
Draining remaining packets ...
Time taken is 7053 cycles
Class 0:
Packet latency average = 19.4727
	minimum = 7
	maximum = 37
Network latency average = 19.4727
	minimum = 7
	maximum = 37
Slowest packet = 13670
Flit latency average = 19.4727
	minimum = 7
	maximum = 37
Slowest flit = 13670
Fragmentation average = 0
	minimum = 0
	maximum = 0
Injected packet rate average = 0.0210625
	minimum = 0.014 (at node 6)
	maximum = 0.035 (at node 5)
Accepted packet rate average = 0.020625
	minimum = 0.013 (at node 3)
	maximum = 0.032 (at node 13)
Injected flit rate average = 0.0210625
	minimum = 0.014 (at node 6)
	maximum = 0.035 (at node 5)
Accepted flit rate average= 0.020625
	minimum = 0.013 (at node 3)
	maximum = 0.032 (at node 13)
Injected packet length average = 1
Accepted packet length average = 1
Total in-flight flits = 7 (0 measured)
latency change    = 1
throughput change = 1
Class 0:
Packet latency average = 19.5991
	minimum = 7
	maximum = 37
Network latency average = 19.5991
	minimum = 7
	maximum = 37
Slowest packet = 13670
Flit latency average = 19.5991
	minimum = 7
	maximum = 37
Slowest flit = 13670
Fragmentation average = 0
	minimum = 0
	maximum = 0
Injected packet rate average = 0.0204063
	minimum = 0.016 (at node 6)
	maximum = 0.026 (at node 10)
Accepted packet rate average = 0.0203438
	minimum = 0.0165 (at node 8)
	maximum = 0.026 (at node 13)
Injected flit rate average = 0.0204063
	minimum = 0.016 (at node 6)
	maximum = 0.026 (at node 10)
Accepted flit rate average= 0.0203438
	minimum = 0.0165 (at node 8)
	maximum = 0.026 (at node 13)
Injected packet length average = 1
Accepted packet length average = 1
Total in-flight flits = 2 (0 measured)
latency change    = 0.00644679
throughput change = 0.0138249
Class 0:
Packet latency average = 19.672
	minimum = 7
	maximum = 37
Network latency average = 19.672
	minimum = 7
	maximum = 37
Slowest packet = 14372
Flit latency average = 19.672
	minimum = 7
	maximum = 37
Slowest flit = 14372
Fragmentation average = 0
	minimum = 0
	maximum = 0
Injected packet rate average = 0.019625
	minimum = 0.013 (at node 5)
	maximum = 0.027 (at node 1)
Accepted packet rate average = 0.0194375
	minimum = 0.013 (at node 9)
	maximum = 0.027 (at node 13)
Injected flit rate average = 0.019625
	minimum = 0.013 (at node 5)
	maximum = 0.027 (at node 1)
Accepted flit rate average= 0.0194375
	minimum = 0.013 (at node 9)
	maximum = 0.027 (at node 13)
Injected packet length average = 1
Accepted packet length average = 1
Total in-flight flits = 5 (0 measured)
latency change    = 0.00370818
throughput change = 0.0466238
Warmed up ...Time used is 3000 cycles
Class 0:
Packet latency average = 19.7367
	minimum = 7
	maximum = 37
Network latency average = 19.7367
	minimum = 7
	maximum = 37
Slowest packet = 14680
Flit latency average = 19.7843
	minimum = 7
	maximum = 37
Slowest flit = 14626
Fragmentation average = 0
	minimum = 0
	maximum = 0
Injected packet rate average = 0.021625
	minimum = 0.014 (at node 2)
	maximum = 0.03 (at node 4)
Accepted packet rate average = 0.0214375
	minimum = 0.015 (at node 0)
	maximum = 0.028 (at node 13)
Injected flit rate average = 0.021625
	minimum = 0.014 (at node 2)
	maximum = 0.03 (at node 4)
Accepted flit rate average= 0.0214375
	minimum = 0.015 (at node 0)
	maximum = 0.028 (at node 13)
Injected packet length average = 1
Accepted packet length average = 1
Total in-flight flits = 8 (8 measured)
latency change    = 0.00327617
throughput change = 0.0932945
Class 0:
Packet latency average = 19.5741
	minimum = 7
	maximum = 38
Network latency average = 19.5741
	minimum = 7
	maximum = 38
Slowest packet = 15198
Flit latency average = 19.5988
	minimum = 7
	maximum = 38
Slowest flit = 15198
Fragmentation average = 0
	minimum = 0
	maximum = 0
Injected packet rate average = 0.0215625
	minimum = 0.0155 (at node 2)
	maximum = 0.0265 (at node 4)
Accepted packet rate average = 0.0216562
	minimum = 0.0185 (at node 14)
	maximum = 0.0265 (at node 8)
Injected flit rate average = 0.0215625
	minimum = 0.0155 (at node 2)
	maximum = 0.0265 (at node 4)
Accepted flit rate average= 0.0216562
	minimum = 0.0185 (at node 14)
	maximum = 0.0265 (at node 8)
Injected packet length average = 1
Accepted packet length average = 1
Total in-flight flits = 2 (2 measured)
latency change    = 0.00830476
throughput change = 0.010101
Class 0:
Packet latency average = 19.6804
	minimum = 7
	maximum = 38
Network latency average = 19.6804
	minimum = 7
	maximum = 38
Slowest packet = 15198
Flit latency average = 19.6966
	minimum = 7
	maximum = 38
Slowest flit = 15198
Fragmentation average = 0
	minimum = 0
	maximum = 0
Injected packet rate average = 0.0213333
	minimum = 0.0183333 (at node 5)
	maximum = 0.0246667 (at node 6)
Accepted packet rate average = 0.0213542
	minimum = 0.0186667 (at node 5)
	maximum = 0.0243333 (at node 8)
Injected flit rate average = 0.0213333
	minimum = 0.0183333 (at node 5)
	maximum = 0.0246667 (at node 6)
Accepted flit rate average= 0.0213542
	minimum = 0.0186667 (at node 5)
	maximum = 0.0243333 (at node 8)
Injected packet length average = 1
Accepted packet length average = 1
Total in-flight flits = 4 (4 measured)
latency change    = 0.0053995
throughput change = 0.0141463
Class 0:
Packet latency average = 19.6184
	minimum = 7
	maximum = 38
Network latency average = 19.6184
	minimum = 7
	maximum = 38
Slowest packet = 15198
Flit latency average = 19.6311
	minimum = 7
	maximum = 38
Slowest flit = 15198
Fragmentation average = 0
	minimum = 0
	maximum = 0
Injected packet rate average = 0.0209688
	minimum = 0.0175 (at node 12)
	maximum = 0.0245 (at node 6)
Accepted packet rate average = 0.0209219
	minimum = 0.017 (at node 3)
	maximum = 0.023 (at node 8)
Injected flit rate average = 0.0209688
	minimum = 0.0175 (at node 12)
	maximum = 0.0245 (at node 6)
Accepted flit rate average= 0.0209219
	minimum = 0.017 (at node 3)
	maximum = 0.023 (at node 8)
Injected packet length average = 1
Accepted packet length average = 1
Total in-flight flits = 8 (8 measured)
latency change    = 0.00315781
throughput change = 0.0206622
Draining all recorded packets ...
Draining remaining packets ...
Time taken is 7053 cycles
Class 0:
Packet latency average = 19.2806
	minimum = 7
	maximum = 37
Network latency average = 19.2806
	minimum = 7
	maximum = 37
Slowest packet = 15996
Flit latency average = 19.2806
	minimum = 7
	maximum = 37
Slowest flit = 15996
Fragmentation average = 0
	minimum = 0
	maximum = 0
Injected packet rate average = 0.0198125
	minimum = 0.012 (at node 8)
	maximum = 0.025 (at node 10)
Accepted packet rate average = 0.019375
	minimum = 0.013 (at node 12)
	maximum = 0.03 (at node 3)
Injected flit rate average = 0.0198125
	minimum = 0.012 (at node 8)
	maximum = 0.025 (at node 10)
Accepted flit rate average= 0.019375
	minimum = 0.013 (at node 12)
	maximum = 0.03 (at node 3)
Injected packet length average = 1
Accepted packet length average = 1
Total in-flight flits = 7 (0 measured)
latency change    = 1
throughput change = 1
Class 0:
Packet latency average = 19.5226
	minimum = 7
	maximum = 37
Network latency average = 19.5226
	minimum = 7
	maximum = 37
Slowest packet = 15996
Flit latency average = 19.5226
	minimum = 7
	maximum = 37
Slowest flit = 15996
Fragmentation average = 0
	minimum = 0
	maximum = 0
Injected packet rate average = 0.0202813
	minimum = 0.0135 (at node 8)
	maximum = 0.026 (at node 2)
Accepted packet rate average = 0.0200313
	minimum = 0.0145 (at node 8)
	maximum = 0.025 (at node 4)
Injected flit rate average = 0.0202813
	minimum = 0.0135 (at node 8)
	maximum = 0.026 (at node 2)
Accepted flit rate average= 0.0200313
	minimum = 0.0145 (at node 8)
	maximum = 0.025 (at node 4)
Injected packet length average = 1
Accepted packet length average = 1
Total in-flight flits = 8 (0 measured)
latency change    = 0.0123946
throughput change = 0.0327613
Class 0:
Packet latency average = 19.6411
	minimum = 7
	maximum = 37
Network latency average = 19.6411
	minimum = 7
	maximum = 37
Slowest packet = 16646
Flit latency average = 19.6411
	minimum = 7
	maximum = 37
Slowest flit = 16646
Fragmentation average = 0
	minimum = 0
	maximum = 0
Injected packet rate average = 0.0201875
	minimum = 0.011 (at node 11)
	maximum = 0.034 (at node 12)
Accepted packet rate average = 0.020375
	minimum = 0.014 (at node 8)
	maximum = 0.028 (at node 2)
Injected flit rate average = 0.0201875
	minimum = 0.011 (at node 11)
	maximum = 0.034 (at node 12)
Accepted flit rate average= 0.020375
	minimum = 0.014 (at node 8)
	maximum = 0.028 (at node 2)
Injected packet length average = 1
Accepted packet length average = 1
Total in-flight flits = 5 (0 measured)
latency change    = 0.00603242
throughput change = 0.0168712
Warmed up ...Time used is 3000 cycles
Class 0:
Packet latency average = 18.9967
	minimum = 7
	maximum = 38
Network latency average = 18.9967
	minimum = 7
	maximum = 38
Slowest packet = 17188
Flit latency average = 19.0932
	minimum = 7
	maximum = 38
Slowest flit = 17188
Fragmentation average = 0
	minimum = 0
	maximum = 0
Injected packet rate average = 0.0195
	minimum = 0.012 (at node 4)
	maximum = 0.034 (at node 2)
Accepted packet rate average = 0.0194375
	minimum = 0.007 (at node 6)
	maximum = 0.028 (at node 9)
Injected flit rate average = 0.0195
	minimum = 0.012 (at node 4)
	maximum = 0.034 (at node 2)
Accepted flit rate average= 0.0194375
	minimum = 0.007 (at node 6)
	maximum = 0.028 (at node 9)
Injected packet length average = 1
Accepted packet length average = 1
Total in-flight flits = 6 (6 measured)
latency change    = 0.0339202
throughput change = 0.0482315
Class 0:
Packet latency average = 19.1675
	minimum = 7
	maximum = 38
Network latency average = 19.1675
	minimum = 7
	maximum = 38
Slowest packet = 17188
Flit latency average = 19.2141
	minimum = 7
	maximum = 38
Slowest flit = 17188
Fragmentation average = 0
	minimum = 0
	maximum = 0
Injected packet rate average = 0.019625
	minimum = 0.0145 (at node 10)
	maximum = 0.027 (at node 2)
Accepted packet rate average = 0.0195625
	minimum = 0.0125 (at node 6)
	maximum = 0.024 (at node 5)
Injected flit rate average = 0.019625
	minimum = 0.0145 (at node 10)
	maximum = 0.027 (at node 2)
Accepted flit rate average= 0.0195625
	minimum = 0.0125 (at node 6)
	maximum = 0.024 (at node 5)
Injected packet length average = 1
Accepted packet length average = 1
Total in-flight flits = 7 (7 measured)
latency change    = 0.00890779
throughput change = 0.00638978
Class 0:
Packet latency average = 19.246
	minimum = 7
	maximum = 38
Network latency average = 19.246
	minimum = 7
	maximum = 38
Slowest packet = 17188
Flit latency average = 19.2765
	minimum = 7
	maximum = 38
Slowest flit = 17188
Fragmentation average = 0
	minimum = 0
	maximum = 0
Injected packet rate average = 0.0196458
	minimum = 0.015 (at node 10)
	maximum = 0.0233333 (at node 1)
Accepted packet rate average = 0.0196667
	minimum = 0.0146667 (at node 6)
	maximum = 0.0233333 (at node 9)
Injected flit rate average = 0.0196458
	minimum = 0.015 (at node 10)
	maximum = 0.0233333 (at node 1)
Accepted flit rate average= 0.0196667
	minimum = 0.0146667 (at node 6)
	maximum = 0.0233333 (at node 9)
Injected packet length average = 1
Accepted packet length average = 1
Total in-flight flits = 4 (4 measured)
latency change    = 0.00408056
throughput change = 0.00529661
Draining all recorded packets ...
Draining remaining packets ...
Time taken is 6052 cycles
Class 0:
Packet latency average = 18.6647
	minimum = 7
	maximum = 39
Network latency average = 18.6647
	minimum = 7
	maximum = 39
Slowest packet = 17942
Flit latency average = 18.6647
	minimum = 7
	maximum = 39
Slowest flit = 17942
Fragmentation average = 0
	minimum = 0
	maximum = 0
Injected packet rate average = 0.0215625
	minimum = 0.013 (at node 7)
	maximum = 0.03 (at node 9)
Accepted packet rate average = 0.02125
	minimum = 0.017 (at node 3)
	maximum = 0.029 (at node 9)
Injected flit rate average = 0.0215625
	minimum = 0.013 (at node 7)
	maximum = 0.03 (at node 9)
Accepted flit rate average= 0.02125
	minimum = 0.017 (at node 3)
	maximum = 0.029 (at node 9)
Injected packet length average = 1
Accepted packet length average = 1
Total in-flight flits = 5 (0 measured)
latency change    = 1
throughput change = 1
Class 0:
Packet latency average = 19.053
	minimum = 7
	maximum = 39
Network latency average = 19.053
	minimum = 7
	maximum = 39
Slowest packet = 17942
Flit latency average = 19.053
	minimum = 7
	maximum = 39
Slowest flit = 17942
Fragmentation average = 0
	minimum = 0
	maximum = 0
Injected packet rate average = 0.0207813
	minimum = 0.0135 (at node 7)
	maximum = 0.0265 (at node 9)
Accepted packet rate average = 0.0206563
	minimum = 0.0165 (at node 0)
	maximum = 0.024 (at node 9)
Injected flit rate average = 0.0207813
	minimum = 0.0135 (at node 7)
	maximum = 0.0265 (at node 9)
Accepted flit rate average= 0.0206563
	minimum = 0.0165 (at node 0)
	maximum = 0.024 (at node 9)
Injected packet length average = 1
Accepted packet length average = 1
Total in-flight flits = 4 (0 measured)
latency change    = 0.0203771
throughput change = 0.0287443
Class 0:
Packet latency average = 20.0322
	minimum = 7
	maximum = 37
Network latency average = 20.0322
	minimum = 7
	maximum = 37
Slowest packet = 18601
Flit latency average = 20.0322
	minimum = 7
	maximum = 37
Slowest flit = 18601
Fragmentation average = 0
	minimum = 0
	maximum = 0
Injected packet rate average = 0.023625
	minimum = 0.013 (at node 11)
	maximum = 0.034 (at node 4)
Accepted packet rate average = 0.0233125
	minimum = 0.014 (at node 6)
	maximum = 0.031 (at node 12)
Injected flit rate average = 0.023625
	minimum = 0.013 (at node 11)
	maximum = 0.034 (at node 4)
Accepted flit rate average= 0.0233125
	minimum = 0.014 (at node 6)
	maximum = 0.031 (at node 12)
Injected packet length average = 1
Accepted packet length average = 1
Total in-flight flits = 9 (0 measured)
latency change    = 0.0488824
throughput change = 0.113941
Warmed up ...Time used is 3000 cycles
Class 0:
Packet latency average = 20.0399
	minimum = 7
	maximum = 37
Network latency average = 20.0399
	minimum = 7
	maximum = 37
Slowest packet = 19061
Flit latency average = 20.2
	minimum = 7
	maximum = 37
Slowest flit = 18950
Fragmentation average = 0
	minimum = 0
	maximum = 0
Injected packet rate average = 0.02075
	minimum = 0.014 (at node 4)
	maximum = 0.026 (at node 8)
Accepted packet rate average = 0.0209375
	minimum = 0.014 (at node 13)
	maximum = 0.028 (at node 7)
Injected flit rate average = 0.02075
	minimum = 0.014 (at node 4)
	maximum = 0.026 (at node 8)
Accepted flit rate average= 0.0209375
	minimum = 0.014 (at node 13)
	maximum = 0.028 (at node 7)
Injected packet length average = 1
Accepted packet length average = 1
Total in-flight flits = 6 (6 measured)
latency change    = 0.000384519
throughput change = 0.113433
Class 0:
Packet latency average = 19.7555
	minimum = 7
	maximum = 37
Network latency average = 19.7555
	minimum = 7
	maximum = 37
Slowest packet = 19061
Flit latency average = 19.8423
	minimum = 7
	maximum = 37
Slowest flit = 18950
Fragmentation average = 0
	minimum = 0
	maximum = 0
Injected packet rate average = 0.0200625
	minimum = 0.016 (at node 9)
	maximum = 0.0255 (at node 13)
Accepted packet rate average = 0.0202188
	minimum = 0.0145 (at node 12)
	maximum = 0.024 (at node 3)
Injected flit rate average = 0.0200625
	minimum = 0.016 (at node 9)
	maximum = 0.0255 (at node 13)
Accepted flit rate average= 0.0202188
	minimum = 0.0145 (at node 12)
	maximum = 0.024 (at node 3)
Injected packet length average = 1
Accepted packet length average = 1
Total in-flight flits = 4 (4 measured)
latency change    = 0.0143956
throughput change = 0.0355487
Class 0:
Packet latency average = 19.7457
	minimum = 7
	maximum = 37
Network latency average = 19.7457
	minimum = 7
	maximum = 37
Slowest packet = 19061
Flit latency average = 19.8058
	minimum = 7
	maximum = 37
Slowest flit = 18950
Fragmentation average = 0
	minimum = 0
	maximum = 0
Injected packet rate average = 0.0195
	minimum = 0.0166667 (at node 12)
	maximum = 0.0263333 (at node 13)
Accepted packet rate average = 0.0195208
	minimum = 0.0146667 (at node 12)
	maximum = 0.023 (at node 15)
Injected flit rate average = 0.0195
	minimum = 0.0166667 (at node 12)
	maximum = 0.0263333 (at node 13)
Accepted flit rate average= 0.0195208
	minimum = 0.0146667 (at node 12)
	maximum = 0.023 (at node 15)
Injected packet length average = 1
Accepted packet length average = 1
Total in-flight flits = 8 (8 measured)
latency change    = 0.00049612
throughput change = 0.0357524
Class 0:
Packet latency average = 19.6815
	minimum = 7
	maximum = 37
Network latency average = 19.6815
	minimum = 7
	maximum = 37
Slowest packet = 19061
Flit latency average = 19.7271
	minimum = 7
	maximum = 37
Slowest flit = 18950
Fragmentation average = 0
	minimum = 0
	maximum = 0
Injected packet rate average = 0.0194219
	minimum = 0.01675 (at node 12)
	maximum = 0.02375 (at node 13)
Accepted packet rate average = 0.0194687
	minimum = 0.01375 (at node 12)
	maximum = 0.02475 (at node 15)
Injected flit rate average = 0.0194219
	minimum = 0.01675 (at node 12)
	maximum = 0.02375 (at node 13)
Accepted flit rate average= 0.0194687
	minimum = 0.01375 (at node 12)
	maximum = 0.02475 (at node 15)
Injected packet length average = 1
Accepted packet length average = 1
Total in-flight flits = 6 (6 measured)
latency change    = 0.00326206
throughput change = 0.00267523
Draining all recorded packets ...
Draining remaining packets ...
Time taken is 7071 cycles
Class 0:
Packet latency average = 19.4842
	minimum = 7
	maximum = 38
Network latency average = 19.4842
	minimum = 7
	maximum = 38
Slowest packet = 20331
Flit latency average = 19.4842
	minimum = 7
	maximum = 38
Slowest flit = 20331
Fragmentation average = 0
	minimum = 0
	maximum = 0
Injected packet rate average = 0.0199375
	minimum = 0.012 (at node 12)
	maximum = 0.036 (at node 6)
Accepted packet rate average = 0.01975
	minimum = 0.013 (at node 2)
	maximum = 0.029 (at node 1)
Injected flit rate average = 0.0199375
	minimum = 0.012 (at node 12)
	maximum = 0.036 (at node 6)
Accepted flit rate average= 0.01975
	minimum = 0.013 (at node 2)
	maximum = 0.029 (at node 1)
Injected packet length average = 1
Accepted packet length average = 1
Total in-flight flits = 3 (0 measured)
latency change    = 1
throughput change = 1
Class 0:
Packet latency average = 19.2748
	minimum = 7
	maximum = 40
Network latency average = 19.2748
	minimum = 7
	maximum = 40
Slowest packet = 20773
Flit latency average = 19.2748
	minimum = 7
	maximum = 40
Slowest flit = 20773
Fragmentation average = 0
	minimum = 0
	maximum = 0
Injected packet rate average = 0.0191875
	minimum = 0.013 (at node 3)
	maximum = 0.0275 (at node 6)
Accepted packet rate average = 0.018875
	minimum = 0.015 (at node 14)
	maximum = 0.024 (at node 1)
Injected flit rate average = 0.0191875
	minimum = 0.013 (at node 3)
	maximum = 0.0275 (at node 6)
Accepted flit rate average= 0.018875
	minimum = 0.015 (at node 14)
	maximum = 0.024 (at node 1)
Injected packet length average = 1
Accepted packet length average = 1
Total in-flight flits = 10 (0 measured)
latency change    = 0.0108609
throughput change = 0.0463576
Class 0:
Packet latency average = 19.4389
	minimum = 7
	maximum = 37
Network latency average = 19.4389
	minimum = 7
	maximum = 37
Slowest packet = 20836
Flit latency average = 19.4389
	minimum = 7
	maximum = 37
Slowest flit = 20836
Fragmentation average = 0
	minimum = 0
	maximum = 0
Injected packet rate average = 0.0186875
	minimum = 0.012 (at node 4)
	maximum = 0.027 (at node 8)
Accepted packet rate average = 0.0189375
	minimum = 0.011 (at node 7)
	maximum = 0.027 (at node 9)
Injected flit rate average = 0.0186875
	minimum = 0.012 (at node 4)
	maximum = 0.027 (at node 8)
Accepted flit rate average= 0.0189375
	minimum = 0.011 (at node 7)
	maximum = 0.027 (at node 9)
Injected packet length average = 1
Accepted packet length average = 1
Total in-flight flits = 6 (0 measured)
latency change    = 0.0084423
throughput change = 0.00330033
Warmed up ...Time used is 3000 cycles
Class 0:
Packet latency average = 19.2437
	minimum = 7
	maximum = 39
Network latency average = 19.2437
	minimum = 7
	maximum = 39
Slowest packet = 21211
Flit latency average = 19.2507
	minimum = 7
	maximum = 39
Slowest flit = 21211
Fragmentation average = 0
	minimum = 0
	maximum = 0
Injected packet rate average = 0.023375
	minimum = 0.017 (at node 8)
	maximum = 0.032 (at node 13)
Accepted packet rate average = 0.0226875
	minimum = 0.017 (at node 7)
	maximum = 0.033 (at node 6)
Injected flit rate average = 0.023375
	minimum = 0.017 (at node 8)
	maximum = 0.032 (at node 13)
Accepted flit rate average= 0.0226875
	minimum = 0.017 (at node 7)
	maximum = 0.033 (at node 6)
Injected packet length average = 1
Accepted packet length average = 1
Total in-flight flits = 17 (17 measured)
latency change    = 0.010146
throughput change = 0.165289
Class 0:
Packet latency average = 19.4275
	minimum = 7
	maximum = 39
Network latency average = 19.4275
	minimum = 7
	maximum = 39
Slowest packet = 21211
Flit latency average = 19.4296
	minimum = 7
	maximum = 39
Slowest flit = 21211
Fragmentation average = 0
	minimum = 0
	maximum = 0
Injected packet rate average = 0.021125
	minimum = 0.0155 (at node 8)
	maximum = 0.026 (at node 4)
Accepted packet rate average = 0.0213125
	minimum = 0.0165 (at node 15)
	maximum = 0.0255 (at node 5)
Injected flit rate average = 0.021125
	minimum = 0.0155 (at node 8)
	maximum = 0.026 (at node 4)
Accepted flit rate average= 0.0213125
	minimum = 0.0165 (at node 15)
	maximum = 0.0255 (at node 5)
Injected packet length average = 1
Accepted packet length average = 1
Total in-flight flits = 0 (0 measured)
latency change    = 0.0094617
throughput change = 0.0645161
Class 0:
Packet latency average = 19.4646
	minimum = 7
	maximum = 39
Network latency average = 19.4646
	minimum = 7
	maximum = 39
Slowest packet = 21211
Flit latency average = 19.4659
	minimum = 7
	maximum = 39
Slowest flit = 21211
Fragmentation average = 0
	minimum = 0
	maximum = 0
Injected packet rate average = 0.0208333
	minimum = 0.0156667 (at node 3)
	maximum = 0.0253333 (at node 0)
Accepted packet rate average = 0.02075
	minimum = 0.0163333 (at node 0)
	maximum = 0.025 (at node 5)
Injected flit rate average = 0.0208333
	minimum = 0.0156667 (at node 3)
	maximum = 0.0253333 (at node 0)
Accepted flit rate average= 0.02075
	minimum = 0.0163333 (at node 0)
	maximum = 0.025 (at node 5)
Injected packet length average = 1
Accepted packet length average = 1
Total in-flight flits = 10 (10 measured)
latency change    = 0.00190765
throughput change = 0.0271084
Class 0:
Packet latency average = 19.4158
	minimum = 7
	maximum = 39
Network latency average = 19.4158
	minimum = 7
	maximum = 39
Slowest packet = 21211
Flit latency average = 19.4169
	minimum = 7
	maximum = 39
Slowest flit = 21211
Fragmentation average = 0
	minimum = 0
	maximum = 0
Injected packet rate average = 0.0203438
	minimum = 0.01575 (at node 3)
	maximum = 0.024 (at node 0)
Accepted packet rate average = 0.0203125
	minimum = 0.017 (at node 13)
	maximum = 0.0225 (at node 1)
Injected flit rate average = 0.0203438
	minimum = 0.01575 (at node 3)
	maximum = 0.024 (at node 0)
Accepted flit rate average= 0.0203125
	minimum = 0.017 (at node 13)
	maximum = 0.0225 (at node 1)
Injected packet length average = 1
Accepted packet length average = 1
Total in-flight flits = 8 (8 measured)
latency change    = 0.00251761
throughput change = 0.0215385
Class 0:
Packet latency average = 19.3742
	minimum = 7
	maximum = 39
Network latency average = 19.3742
	minimum = 7
	maximum = 39
Slowest packet = 21211
Flit latency average = 19.3753
	minimum = 7
	maximum = 39
Slowest flit = 21211
Fragmentation average = 0
	minimum = 0
	maximum = 0
Injected packet rate average = 0.0203625
	minimum = 0.0168 (at node 3)
	maximum = 0.0246 (at node 0)
Accepted packet rate average = 0.02035
	minimum = 0.0172 (at node 0)
	maximum = 0.0236 (at node 7)
Injected flit rate average = 0.0203625
	minimum = 0.0168 (at node 3)
	maximum = 0.0246 (at node 0)
Accepted flit rate average= 0.02035
	minimum = 0.0172 (at node 0)
	maximum = 0.0236 (at node 7)
Injected packet length average = 1
Accepted packet length average = 1
Total in-flight flits = 7 (7 measured)
latency change    = 0.00214386
throughput change = 0.00184275
Draining all recorded packets ...
Draining remaining packets ...
Time taken is 8052 cycles
Class 0:
Packet latency average = 19.1519
	minimum = 7
	maximum = 37
Network latency average = 19.1519
	minimum = 7
	maximum = 37
Slowest packet = 22789
Flit latency average = 19.1519
	minimum = 7
	maximum = 37
Slowest flit = 22789
Fragmentation average = 0
	minimum = 0
	maximum = 0
Injected packet rate average = 0.0181875
	minimum = 0.005 (at node 3)
	maximum = 0.025 (at node 6)
Accepted packet rate average = 0.0176875
	minimum = 0.009 (at node 3)
	maximum = 0.026 (at node 6)
Injected flit rate average = 0.0181875
	minimum = 0.005 (at node 3)
	maximum = 0.025 (at node 6)
Accepted flit rate average= 0.0176875
	minimum = 0.009 (at node 3)
	maximum = 0.026 (at node 6)
Injected packet length average = 1
Accepted packet length average = 1
Total in-flight flits = 8 (0 measured)
latency change    = 1
throughput change = 1
Class 0:
Packet latency average = 19.4735
	minimum = 7
	maximum = 38
Network latency average = 19.4735
	minimum = 7
	maximum = 38
Slowest packet = 23276
Flit latency average = 19.4735
	minimum = 7
	maximum = 38
Slowest flit = 23276
Fragmentation average = 0
	minimum = 0
	maximum = 0
Injected packet rate average = 0.0190312
	minimum = 0.014 (at node 3)
	maximum = 0.0215 (at node 8)
Accepted packet rate average = 0.018875
	minimum = 0.0125 (at node 3)
	maximum = 0.027 (at node 13)
Injected flit rate average = 0.0190312
	minimum = 0.014 (at node 3)
	maximum = 0.0215 (at node 8)
Accepted flit rate average= 0.018875
	minimum = 0.0125 (at node 3)
	maximum = 0.027 (at node 13)
Injected packet length average = 1
Accepted packet length average = 1
Total in-flight flits = 5 (0 measured)
latency change    = 0.016513
throughput change = 0.0629139
Class 0:
Packet latency average = 19.5495
	minimum = 7
	maximum = 39
Network latency average = 19.5495
	minimum = 7
	maximum = 39
Slowest packet = 23471
Flit latency average = 19.5495
	minimum = 7
	maximum = 39
Slowest flit = 23471
Fragmentation average = 0
	minimum = 0
	maximum = 0
Injected packet rate average = 0.0195
	minimum = 0.012 (at node 5)
	maximum = 0.026 (at node 0)
Accepted packet rate average = 0.0195625
	minimum = 0.012 (at node 0)
	maximum = 0.028 (at node 5)
Injected flit rate average = 0.0195
	minimum = 0.012 (at node 5)
	maximum = 0.026 (at node 0)
Accepted flit rate average= 0.0195625
	minimum = 0.012 (at node 0)
	maximum = 0.028 (at node 5)
Injected packet length average = 1
Accepted packet length average = 1
Total in-flight flits = 4 (0 measured)
latency change    = 0.00388812
throughput change = 0.0351438
Warmed up ...Time used is 3000 cycles
Class 0:
Packet latency average = 18.8614
	minimum = 7
	maximum = 37
Network latency average = 18.8614
	minimum = 7
	maximum = 37
Slowest packet = 23686
Flit latency average = 18.9837
	minimum = 7
	maximum = 37
Slowest flit = 23672
Fragmentation average = 0
	minimum = 0
	maximum = 0
Injected packet rate average = 0.0190625
	minimum = 0.012 (at node 14)
	maximum = 0.026 (at node 0)
Accepted packet rate average = 0.0191875
	minimum = 0.012 (at node 8)
	maximum = 0.025 (at node 4)
Injected flit rate average = 0.0190625
	minimum = 0.012 (at node 14)
	maximum = 0.026 (at node 0)
Accepted flit rate average= 0.0191875
	minimum = 0.012 (at node 8)
	maximum = 0.025 (at node 4)
Injected packet length average = 1
Accepted packet length average = 1
Total in-flight flits = 2 (2 measured)
latency change    = 0.0364838
throughput change = 0.019544
Class 0:
Packet latency average = 19.0693
	minimum = 7
	maximum = 37
Network latency average = 19.0693
	minimum = 7
	maximum = 37
Slowest packet = 23686
Flit latency average = 19.1268
	minimum = 7
	maximum = 37
Slowest flit = 23672
Fragmentation average = 0
	minimum = 0
	maximum = 0
Injected packet rate average = 0.0200625
	minimum = 0.015 (at node 15)
	maximum = 0.0245 (at node 5)
Accepted packet rate average = 0.0199688
	minimum = 0.0135 (at node 8)
	maximum = 0.0255 (at node 9)
Injected flit rate average = 0.0200625
	minimum = 0.015 (at node 15)
	maximum = 0.0245 (at node 5)
Accepted flit rate average= 0.0199688
	minimum = 0.0135 (at node 8)
	maximum = 0.0255 (at node 9)
Injected packet length average = 1
Accepted packet length average = 1
Total in-flight flits = 7 (7 measured)
latency change    = 0.0109026
throughput change = 0.0391236
Class 0:
Packet latency average = 19.2877
	minimum = 7
	maximum = 37
Network latency average = 19.2877
	minimum = 7
	maximum = 37
Slowest packet = 23686
Flit latency average = 19.3253
	minimum = 7
	maximum = 37
Slowest flit = 23672
Fragmentation average = 0
	minimum = 0
	maximum = 0
Injected packet rate average = 0.0199167
	minimum = 0.017 (at node 15)
	maximum = 0.0226667 (at node 10)
Accepted packet rate average = 0.0198542
	minimum = 0.013 (at node 8)
	maximum = 0.0256667 (at node 14)
Injected flit rate average = 0.0199167
	minimum = 0.017 (at node 15)
	maximum = 0.0226667 (at node 10)
Accepted flit rate average= 0.0198542
	minimum = 0.013 (at node 8)
	maximum = 0.0256667 (at node 14)
Injected packet length average = 1
Accepted packet length average = 1
Total in-flight flits = 7 (7 measured)
latency change    = 0.0113223
throughput change = 0.00577125
Draining all recorded packets ...
Draining remaining packets ...
Time taken is 6056 cycles
Class 0:
Packet latency average = 19.4938
	minimum = 7
	maximum = 37
Network latency average = 19.4938
	minimum = 7
	maximum = 37
Slowest packet = 24701
Flit latency average = 19.4938
	minimum = 7
	maximum = 37
Slowest flit = 24701
Fragmentation average = 0
	minimum = 0
	maximum = 0
Injected packet rate average = 0.0206875
	minimum = 0.013 (at node 8)
	maximum = 0.028 (at node 4)
Accepted packet rate average = 0.02025
	minimum = 0.015 (at node 11)
	maximum = 0.031 (at node 1)
Injected flit rate average = 0.0206875
	minimum = 0.013 (at node 8)
	maximum = 0.028 (at node 4)
Accepted flit rate average= 0.02025
	minimum = 0.015 (at node 11)
	maximum = 0.031 (at node 1)
Injected packet length average = 1
Accepted packet length average = 1
Total in-flight flits = 7 (0 measured)
latency change    = 1
throughput change = 1
Class 0:
Packet latency average = 19.5566
	minimum = 7
	maximum = 37
Network latency average = 19.5566
	minimum = 7
	maximum = 37
Slowest packet = 24701
Flit latency average = 19.5566
	minimum = 7
	maximum = 37
Slowest flit = 24701
Fragmentation average = 0
	minimum = 0
	maximum = 0
Injected packet rate average = 0.0200625
	minimum = 0.0135 (at node 3)
	maximum = 0.0245 (at node 1)
Accepted packet rate average = 0.019875
	minimum = 0.0145 (at node 12)
	maximum = 0.027 (at node 4)
Injected flit rate average = 0.0200625
	minimum = 0.0135 (at node 3)
	maximum = 0.0245 (at node 1)
Accepted flit rate average= 0.019875
	minimum = 0.0145 (at node 12)
	maximum = 0.027 (at node 4)
Injected packet length average = 1
Accepted packet length average = 1
Total in-flight flits = 6 (0 measured)
latency change    = 0.00321
throughput change = 0.0188679
Class 0:
Packet latency average = 19.9219
	minimum = 7
	maximum = 38
Network latency average = 19.9219
	minimum = 7
	maximum = 38
Slowest packet = 25271
Flit latency average = 19.9219
	minimum = 7
	maximum = 38
Slowest flit = 25271
Fragmentation average = 0
	minimum = 0
	maximum = 0
Injected packet rate average = 0.0198125
	minimum = 0.013 (at node 6)
	maximum = 0.029 (at node 3)
Accepted packet rate average = 0.02
	minimum = 0.011 (at node 8)
	maximum = 0.031 (at node 14)
Injected flit rate average = 0.0198125
	minimum = 0.013 (at node 6)
	maximum = 0.029 (at node 3)
Accepted flit rate average= 0.02
	minimum = 0.011 (at node 8)
	maximum = 0.031 (at node 14)
Injected packet length average = 1
Accepted packet length average = 1
Total in-flight flits = 3 (0 measured)
latency change    = 0.0183352
throughput change = 0.00625
Warmed up ...Time used is 3000 cycles
Class 0:
Packet latency average = 19.1964
	minimum = 7
	maximum = 37
Network latency average = 19.1964
	minimum = 7
	maximum = 37
Slowest packet = 25625
Flit latency average = 19.2665
	minimum = 7
	maximum = 37
Slowest flit = 25625
Fragmentation average = 0
	minimum = 0
	maximum = 0
Injected packet rate average = 0.0213125
	minimum = 0.013 (at node 6)
	maximum = 0.03 (at node 11)
Accepted packet rate average = 0.020875
	minimum = 0.009 (at node 2)
	maximum = 0.034 (at node 13)
Injected flit rate average = 0.0213125
	minimum = 0.013 (at node 6)
	maximum = 0.03 (at node 11)
Accepted flit rate average= 0.020875
	minimum = 0.009 (at node 2)
	maximum = 0.034 (at node 13)
Injected packet length average = 1
Accepted packet length average = 1
Total in-flight flits = 10 (10 measured)
latency change    = 0.0377936
throughput change = 0.0419162
Class 0:
Packet latency average = 19.2078
	minimum = 7
	maximum = 37
Network latency average = 19.2078
	minimum = 7
	maximum = 37
Slowest packet = 25625
Flit latency average = 19.2442
	minimum = 7
	maximum = 37
Slowest flit = 25625
Fragmentation average = 0
	minimum = 0
	maximum = 0
Injected packet rate average = 0.0202188
	minimum = 0.015 (at node 6)
	maximum = 0.027 (at node 1)
Accepted packet rate average = 0.0200938
	minimum = 0.015 (at node 2)
	maximum = 0.0275 (at node 13)
Injected flit rate average = 0.0202188
	minimum = 0.015 (at node 6)
	maximum = 0.027 (at node 1)
Accepted flit rate average= 0.0200938
	minimum = 0.015 (at node 2)
	maximum = 0.0275 (at node 13)
Injected packet length average = 1
Accepted packet length average = 1
Total in-flight flits = 7 (7 measured)
latency change    = 0.00059548
throughput change = 0.0388802
Class 0:
Packet latency average = 19.2287
	minimum = 7
	maximum = 37
Network latency average = 19.2287
	minimum = 7
	maximum = 37
Slowest packet = 25625
Flit latency average = 19.2526
	minimum = 7
	maximum = 37
Slowest flit = 25625
Fragmentation average = 0
	minimum = 0
	maximum = 0
Injected packet rate average = 0.0205
	minimum = 0.017 (at node 3)
	maximum = 0.0266667 (at node 1)
Accepted packet rate average = 0.020375
	minimum = 0.0163333 (at node 2)
	maximum = 0.0253333 (at node 13)
Injected flit rate average = 0.0205
	minimum = 0.017 (at node 3)
	maximum = 0.0266667 (at node 1)
Accepted flit rate average= 0.020375
	minimum = 0.0163333 (at node 2)
	maximum = 0.0253333 (at node 13)
Injected packet length average = 1
Accepted packet length average = 1
Total in-flight flits = 9 (9 measured)
latency change    = 0.0010872
throughput change = 0.0138037
Draining all recorded packets ...
Draining remaining packets ...
Time taken is 6056 cycles
Class 0:
Packet latency average = 19.0605
	minimum = 7
	maximum = 37
Network latency average = 19.0605
	minimum = 7
	maximum = 37
Slowest packet = 26739
Flit latency average = 19.0605
	minimum = 7
	maximum = 37
Slowest flit = 26739
Fragmentation average = 0
	minimum = 0
	maximum = 0
Injected packet rate average = 0.018125
	minimum = 0.01 (at node 0)
	maximum = 0.028 (at node 4)
Accepted packet rate average = 0.0175625
	minimum = 0.01 (at node 11)
	maximum = 0.027 (at node 6)
Injected flit rate average = 0.018125
	minimum = 0.01 (at node 0)
	maximum = 0.028 (at node 4)
Accepted flit rate average= 0.0175625
	minimum = 0.01 (at node 11)
	maximum = 0.027 (at node 6)
Injected packet length average = 1
Accepted packet length average = 1
Total in-flight flits = 9 (0 measured)
latency change    = 1
throughput change = 1
Class 0:
Packet latency average = 19.4949
	minimum = 7
	maximum = 37
Network latency average = 19.4949
	minimum = 7
	maximum = 37
Slowest packet = 26739
Flit latency average = 19.4949
	minimum = 7
	maximum = 37
Slowest flit = 26739
Fragmentation average = 0
	minimum = 0
	maximum = 0
Injected packet rate average = 0.01875
	minimum = 0.013 (at node 9)
	maximum = 0.0245 (at node 8)
Accepted packet rate average = 0.018375
	minimum = 0.0125 (at node 13)
	maximum = 0.023 (at node 6)
Injected flit rate average = 0.01875
	minimum = 0.013 (at node 9)
	maximum = 0.0245 (at node 8)
Accepted flit rate average= 0.018375
	minimum = 0.0125 (at node 13)
	maximum = 0.023 (at node 6)
Injected packet length average = 1
Accepted packet length average = 1
Total in-flight flits = 12 (0 measured)
latency change    = 0.0222827
throughput change = 0.0442177
Class 0:
Packet latency average = 19.6204
	minimum = 7
	maximum = 37
Network latency average = 19.6204
	minimum = 7
	maximum = 37
Slowest packet = 27242
Flit latency average = 19.6204
	minimum = 7
	maximum = 37
Slowest flit = 27242
Fragmentation average = 0
	minimum = 0
	maximum = 0
Injected packet rate average = 0.0214375
	minimum = 0.015 (at node 6)
	maximum = 0.034 (at node 9)
Accepted packet rate average = 0.0220625
	minimum = 0.014 (at node 3)
	maximum = 0.031 (at node 10)
Injected flit rate average = 0.0214375
	minimum = 0.015 (at node 6)
	maximum = 0.034 (at node 9)
Accepted flit rate average= 0.0220625
	minimum = 0.014 (at node 3)
	maximum = 0.031 (at node 10)
Injected packet length average = 1
Accepted packet length average = 1
Total in-flight flits = 2 (0 measured)
latency change    = 0.00639634
throughput change = 0.167139
Warmed up ...Time used is 3000 cycles
Class 0:
Packet latency average = 19.6415
	minimum = 7
	maximum = 37
Network latency average = 19.6415
	minimum = 7
	maximum = 37
Slowest packet = 27658
Flit latency average = 19.6094
	minimum = 7
	maximum = 37
Slowest flit = 27658
Fragmentation average = 0
	minimum = 0
	maximum = 0
Injected packet rate average = 0.0203125
	minimum = 0.013 (at node 0)
	maximum = 0.028 (at node 1)
Accepted packet rate average = 0.02
	minimum = 0.014 (at node 0)
	maximum = 0.026 (at node 2)
Injected flit rate average = 0.0203125
	minimum = 0.013 (at node 0)
	maximum = 0.028 (at node 1)
Accepted flit rate average= 0.02
	minimum = 0.014 (at node 0)
	maximum = 0.026 (at node 2)
Injected packet length average = 1
Accepted packet length average = 1
Total in-flight flits = 7 (7 measured)
latency change    = 0.00107491
throughput change = 0.103125
Class 0:
Packet latency average = 19.7254
	minimum = 7
	maximum = 37
Network latency average = 19.7254
	minimum = 7
	maximum = 37
Slowest packet = 27658
Flit latency average = 19.7098
	minimum = 7
	maximum = 37
Slowest flit = 27658
Fragmentation average = 0
	minimum = 0
	maximum = 0
Injected packet rate average = 0.0210625
	minimum = 0.013 (at node 0)
	maximum = 0.027 (at node 1)
Accepted packet rate average = 0.021
	minimum = 0.014 (at node 0)
	maximum = 0.0295 (at node 2)
Injected flit rate average = 0.0210625
	minimum = 0.013 (at node 0)
	maximum = 0.027 (at node 1)
Accepted flit rate average= 0.021
	minimum = 0.014 (at node 0)
	maximum = 0.0295 (at node 2)
Injected packet length average = 1
Accepted packet length average = 1
Total in-flight flits = 4 (4 measured)
latency change    = 0.00425156
throughput change = 0.047619
Class 0:
Packet latency average = 19.8067
	minimum = 7
	maximum = 37
Network latency average = 19.8067
	minimum = 7
	maximum = 37
Slowest packet = 27658
Flit latency average = 19.7956
	minimum = 7
	maximum = 37
Slowest flit = 27658
Fragmentation average = 0
	minimum = 0
	maximum = 0
Injected packet rate average = 0.0199375
	minimum = 0.014 (at node 0)
	maximum = 0.0243333 (at node 13)
Accepted packet rate average = 0.019875
	minimum = 0.015 (at node 0)
	maximum = 0.0266667 (at node 2)
Injected flit rate average = 0.0199375
	minimum = 0.014 (at node 0)
	maximum = 0.0243333 (at node 13)
Accepted flit rate average= 0.019875
	minimum = 0.015 (at node 0)
	maximum = 0.0266667 (at node 2)
Injected packet length average = 1
Accepted packet length average = 1
Total in-flight flits = 5 (5 measured)
latency change    = 0.00410717
throughput change = 0.0566038
Class 0:
Packet latency average = 19.6696
	minimum = 7
	maximum = 37
Network latency average = 19.6696
	minimum = 7
	maximum = 37
Slowest packet = 27658
Flit latency average = 19.6614
	minimum = 7
	maximum = 37
Slowest flit = 27658
Fragmentation average = 0
	minimum = 0
	maximum = 0
Injected packet rate average = 0.0198594
	minimum = 0.01475 (at node 6)
	maximum = 0.02575 (at node 13)
Accepted packet rate average = 0.0198438
	minimum = 0.01475 (at node 0)
	maximum = 0.02525 (at node 2)
Injected flit rate average = 0.0198594
	minimum = 0.01475 (at node 6)
	maximum = 0.02575 (at node 13)
Accepted flit rate average= 0.0198438
	minimum = 0.01475 (at node 0)
	maximum = 0.02525 (at node 2)
Injected packet length average = 1
Accepted packet length average = 1
Total in-flight flits = 3 (3 measured)
latency change    = 0.00697343
throughput change = 0.0015748
Class 0:
Packet latency average = 19.5326
	minimum = 7
	maximum = 37
Network latency average = 19.5326
	minimum = 7
	maximum = 37
Slowest packet = 27658
Flit latency average = 19.5264
	minimum = 7
	maximum = 37
Slowest flit = 27658
Fragmentation average = 0
	minimum = 0
	maximum = 0
Injected packet rate average = 0.020175
	minimum = 0.0166 (at node 6)
	maximum = 0.0252 (at node 13)
Accepted packet rate average = 0.0201375
	minimum = 0.0154 (at node 0)
	maximum = 0.025 (at node 10)
Injected flit rate average = 0.020175
	minimum = 0.0166 (at node 6)
	maximum = 0.0252 (at node 13)
Accepted flit rate average= 0.0201375
	minimum = 0.0154 (at node 0)
	maximum = 0.025 (at node 10)
Injected packet length average = 1
Accepted packet length average = 1
Total in-flight flits = 5 (5 measured)
latency change    = 0.00701029
throughput change = 0.0145872
Class 0:
Packet latency average = 19.5611
	minimum = 7
	maximum = 37
Network latency average = 19.5611
	minimum = 7
	maximum = 37
Slowest packet = 27658
Flit latency average = 19.5559
	minimum = 7
	maximum = 37
Slowest flit = 27658
Fragmentation average = 0
	minimum = 0
	maximum = 0
Injected packet rate average = 0.0201354
	minimum = 0.0173333 (at node 0)
	maximum = 0.0236667 (at node 13)
Accepted packet rate average = 0.020125
	minimum = 0.0168333 (at node 13)
	maximum = 0.024 (at node 10)
Injected flit rate average = 0.0201354
	minimum = 0.0173333 (at node 0)
	maximum = 0.0236667 (at node 13)
Accepted flit rate average= 0.020125
	minimum = 0.0168333 (at node 13)
	maximum = 0.024 (at node 10)
Injected packet length average = 1
Accepted packet length average = 1
Total in-flight flits = 3 (3 measured)
[...]
Fragmentation average = 0
	minimum = 0
	maximum = 0
Injected packet rate average = 0.0207813
	minimum = 0.0115 (at node 0)
	maximum = 0.0285 (at node 8)
Accepted packet rate average = 0.0205625
	minimum = 0.0145 (at node 13)
	maximum = 0.0265 (at node 5)
Injected flit rate average = 0.0207813
	minimum = 0.0115 (at node 0)
	maximum = 0.0285 (at node 8)
Accepted flit rate average= 0.0205625
	minimum = 0.0145 (at node 13)
	maximum = 0.0265 (at node 5)
Injected packet length average = 1
Accepted packet length average = 1
Total in-flight flits = 7 (0 measured)
latency change    = 0.00640819
throughput change = 0.0455927
Class 0:
Packet latency average = 19.6075
	minimum = 7
	maximum = 37
Network latency average = 19.6075
	minimum = 7
	maximum = 37
Slowest packet = 216457
Flit latency average = 19.6075
	minimum = 7
	maximum = 37
Slowest flit = 216457
Fragmentation average = 0
	minimum = 0
	maximum = 0
Injected packet rate average = 0.0200625
	minimum = 0.011 (at node 3)
	maximum = 0.03 (at node 12)
Accepted packet rate average = 0.0200625
	minimum = 0.014 (at node 14)
	maximum = 0.027 (at node 0)
Injected flit rate average = 0.0200625
	minimum = 0.011 (at node 3)
	maximum = 0.03 (at node 12)
Accepted flit rate average= 0.0200625
	minimum = 0.014 (at node 14)
	maximum = 0.027 (at node 0)
Injected packet length average = 1
Accepted packet length average = 1
Total in-flight flits = 7 (0 measured)
latency change    = 0.00354368
throughput change = 0.0249221
Warmed up ...Time used is 3000 cycles
Class 0:
Packet latency average = 19.5136
	minimum = 7
	maximum = 37
Network latency average = 19.5136
	minimum = 7
	maximum = 37
Slowest packet = 216761
Flit latency average = 19.5651
	minimum = 7
	maximum = 37
Slowest flit = 216761
Fragmentation average = 0
	minimum = 0
	maximum = 0
Injected packet rate average = 0.0214375
	minimum = 0.01 (at node 12)
	maximum = 0.033 (at node 3)
Accepted packet rate average = 0.021125
	minimum = 0.013 (at node 13)
	maximum = 0.031 (at node 9)
Injected flit rate average = 0.0214375
	minimum = 0.01 (at node 12)
	maximum = 0.033 (at node 3)
Accepted flit rate average= 0.021125
	minimum = 0.013 (at node 13)
	maximum = 0.031 (at node 9)
Injected packet length average = 1
Accepted packet length average = 1
Total in-flight flits = 12 (12 measured)
latency change    = 0.00481108
throughput change = 0.0502959
Class 0:
Packet latency average = 19.4275
	minimum = 7
	maximum = 37
Network latency average = 19.4275
	minimum = 7
	maximum = 37
Slowest packet = 216761
Flit latency average = 19.4541
	minimum = 7
	maximum = 37
Slowest flit = 216761
Fragmentation average = 0
	minimum = 0
	maximum = 0
Injected packet rate average = 0.021125
	minimum = 0.0175 (at node 2)
	maximum = 0.0275 (at node 3)
Accepted packet rate average = 0.021125
	minimum = 0.016 (at node 0)
	maximum = 0.028 (at node 9)
Injected flit rate average = 0.021125
	minimum = 0.0175 (at node 2)
	maximum = 0.0275 (at node 3)
Accepted flit rate average= 0.021125
	minimum = 0.016 (at node 0)
	maximum = 0.028 (at node 9)
Injected packet length average = 1
Accepted packet length average = 1
Total in-flight flits = 7 (7 measured)
latency change    = 0.00443142
throughput change = 0
Class 0:
Packet latency average = 19.5218
	minimum = 7
	maximum = 37
Network latency average = 19.5218
	minimum = 7
	maximum = 37
Slowest packet = 216761
Flit latency average = 19.5388
	minimum = 7
	maximum = 37
Slowest flit = 216761
Fragmentation average = 0
	minimum = 0
	maximum = 0
Injected packet rate average = 0.0211042
	minimum = 0.017 (at node 2)
	maximum = 0.025 (at node 8)
Accepted packet rate average = 0.0211875
	minimum = 0.0186667 (at node 10)
	maximum = 0.028 (at node 9)
Injected flit rate average = 0.0211042
	minimum = 0.017 (at node 2)
	maximum = 0.025 (at node 8)
Accepted flit rate average= 0.0211875
	minimum = 0.0186667 (at node 10)
	maximum = 0.028 (at node 9)
Injected packet length average = 1
Accepted packet length average = 1
Total in-flight flits = 3 (3 measured)
latency change    = 0.0048294
throughput change = 0.00294985
Class 0:
Packet latency average = 19.4222
	minimum = 7
	maximum = 37
Network latency average = 19.4222
	minimum = 7
	maximum = 37
Slowest packet = 216761
Flit latency average = 19.4355
	minimum = 7
	maximum = 37
Slowest flit = 216761
Fragmentation average = 0
	minimum = 0
	maximum = 0
Injected packet rate average = 0.0211875
	minimum = 0.01875 (at node 2)
	maximum = 0.025 (at node 3)
Accepted packet rate average = 0.0212031
	minimum = 0.01725 (at node 6)
	maximum = 0.02625 (at node 9)
Injected flit rate average = 0.0211875
	minimum = 0.01875 (at node 2)
	maximum = 0.025 (at node 3)
Accepted flit rate average= 0.0212031
	minimum = 0.01725 (at node 6)
	maximum = 0.02625 (at node 9)
Injected packet length average = 1
Accepted packet length average = 1
Total in-flight flits = 6 (6 measured)
latency change    = 0.00512608
throughput change = 0.00073692
Draining all recorded packets ...
Draining remaining packets ...
Time taken is 7050 cycles
Class 0:
Packet latency average = 18.8762
	minimum = 7
	maximum = 37
Network latency average = 18.8762
	minimum = 7
	maximum = 37
Slowest packet = 218127
Flit latency average = 18.8762
	minimum = 7
	maximum = 37
Slowest flit = 218127
Fragmentation average = 0
	minimum = 0
	maximum = 0
Injected packet rate average = 0.0206875
	minimum = 0.013 (at node 4)
	maximum = 0.027 (at node 3)
Accepted packet rate average = 0.0201875
	minimum = 0.012 (at node 2)
	maximum = 0.028 (at node 12)
Injected flit rate average = 0.0206875
	minimum = 0.013 (at node 4)
	maximum = 0.027 (at node 3)
Accepted flit rate average= 0.0201875
	minimum = 0.012 (at node 2)
	maximum = 0.028 (at node 12)
Injected packet length average = 1
Accepted packet length average = 1
Total in-flight flits = 8 (0 measured)
latency change    = 1
throughput change = 1
Class 0:
Packet latency average = 19.2994
	minimum = 7
	maximum = 37
Network latency average = 19.2994
	minimum = 7
	maximum = 37
Slowest packet = 218127
Flit latency average = 19.2994
	minimum = 7
	maximum = 37
Slowest flit = 218127
Fragmentation average = 0
	minimum = 0
	maximum = 0
Injected packet rate average = 0.020625
	minimum = 0.015 (at node 4)
	maximum = 0.0245 (at node 7)
Accepted packet rate average = 0.02025
	minimum = 0.014 (at node 13)
	maximum = 0.0245 (at node 9)
Injected flit rate average = 0.020625
	minimum = 0.015 (at node 4)
	maximum = 0.0245 (at node 7)
Accepted flit rate average= 0.02025
	minimum = 0.014 (at node 13)
	maximum = 0.0245 (at node 9)
Injected packet length average = 1
Accepted packet length average = 1
Total in-flight flits = 12 (0 measured)
latency change    = 0.0219293
throughput change = 0.00308642
Class 0:
Packet latency average = 19.0865
	minimum = 7
	maximum = 37
Network latency average = 19.0865
	minimum = 7
	maximum = 37
Slowest packet = 218903
Flit latency average = 19.0865
	minimum = 7
	maximum = 37
Slowest flit = 218903
Fragmentation average = 0
	minimum = 0
	maximum = 0
Injected packet rate average = 0.0215
	minimum = 0.013 (at node 7)
	maximum = 0.026 (at node 14)
Accepted packet rate average = 0.0216875
	minimum = 0.012 (at node 1)
	maximum = 0.032 (at node 5)
Injected flit rate average = 0.0215
	minimum = 0.013 (at node 7)
	maximum = 0.026 (at node 14)
Accepted flit rate average= 0.0216875
	minimum = 0.012 (at node 1)
	maximum = 0.032 (at node 5)
Injected packet length average = 1
Accepted packet length average = 1
Total in-flight flits = 9 (0 measured)
latency change    = 0.0111559
throughput change = 0.0662824
Warmed up ...Time used is 3000 cycles
Class 0:
Packet latency average = 19.4502
	minimum = 7
	maximum = 37
Network latency average = 19.4502
	minimum = 7
	maximum = 37
Slowest packet = 219212
Flit latency average = 19.5147
	minimum = 7
	maximum = 37
Slowest flit = 219212
Fragmentation average = 0
	minimum = 0
	maximum = 0
Injected packet rate average = 0.0211875
	minimum = 0.01 (at node 12)
	maximum = 0.031 (at node 5)
Accepted packet rate average = 0.02125
	minimum = 0.013 (at node 5)
	maximum = 0.031 (at node 0)
Injected flit rate average = 0.0211875
	minimum = 0.01 (at node 12)
	maximum = 0.031 (at node 5)
Accepted flit rate average= 0.02125
	minimum = 0.013 (at node 5)
	maximum = 0.031 (at node 0)
Injected packet length average = 1
Accepted packet length average = 1
Total in-flight flits = 8 (8 measured)
latency change    = 0.0186989
throughput change = 0.0205882
Class 0:
Packet latency average = 19.4363
	minimum = 7
	maximum = 37
Network latency average = 19.4363
	minimum = 7
	maximum = 37
Slowest packet = 219212
Flit latency average = 19.471
	minimum = 7
	maximum = 37
Slowest flit = 219212
Fragmentation average = 0
	minimum = 0
	maximum = 0
Injected packet rate average = 0.0197813
	minimum = 0.0145 (at node 4)
	maximum = 0.0285 (at node 11)
Accepted packet rate average = 0.0199063
	minimum = 0.0145 (at node 1)
	maximum = 0.0265 (at node 2)
Injected flit rate average = 0.0197813
	minimum = 0.0145 (at node 4)
	maximum = 0.0285 (at node 11)
Accepted flit rate average= 0.0199063
	minimum = 0.0145 (at node 1)
	maximum = 0.0265 (at node 2)
Injected packet length average = 1
Accepted packet length average = 1
Total in-flight flits = 5 (5 measured)
latency change    = 0.000712343
throughput change = 0.0675039
Class 0:
Packet latency average = 19.4946
	minimum = 7
	maximum = 37
Network latency average = 19.4946
	minimum = 7
	maximum = 37
Slowest packet = 219212
Flit latency average = 19.5175
	minimum = 7
	maximum = 37
Slowest flit = 219212
Fragmentation average = 0
	minimum = 0
	maximum = 0
Injected packet rate average = 0.0195625
	minimum = 0.015 (at node 4)
	maximum = 0.0253333 (at node 7)
Accepted packet rate average = 0.0196458
	minimum = 0.0156667 (at node 8)
	maximum = 0.0246667 (at node 0)
Injected flit rate average = 0.0195625
	minimum = 0.015 (at node 4)
	maximum = 0.0253333 (at node 7)
Accepted flit rate average= 0.0196458
	minimum = 0.0156667 (at node 8)
	maximum = 0.0246667 (at node 0)
Injected packet length average = 1
Accepted packet length average = 1
Total in-flight flits = 5 (5 measured)
latency change    = 0.00299267
throughput change = 0.0132556
Class 0:
Packet latency average = 19.4067
	minimum = 7
	maximum = 37
Network latency average = 19.4067
	minimum = 7
	maximum = 37
Slowest packet = 219212
Flit latency average = 19.4241
	minimum = 7
	maximum = 37
Slowest flit = 219212
Fragmentation average = 0
	minimum = 0
	maximum = 0
Injected packet rate average = 0.0200625
	minimum = 0.017 (at node 15)
	maximum = 0.0245 (at node 5)
Accepted packet rate average = 0.0200781
	minimum = 0.01475 (at node 1)
	maximum = 0.02425 (at node 2)
Injected flit rate average = 0.0200625
	minimum = 0.017 (at node 15)
	maximum = 0.0245 (at node 5)
Accepted flit rate average= 0.0200781
	minimum = 0.01475 (at node 1)
	maximum = 0.02425 (at node 2)
Injected packet length average = 1
Accepted packet length average = 1
Total in-flight flits = 8 (8 measured)
latency change    = 0.00452971
throughput change = 0.0215305
Class 0:
Packet latency average = 19.4718
	minimum = 7
	maximum = 37
Network latency average = 19.4718
	minimum = 7
	maximum = 37
Slowest packet = 219212
Flit latency average = 19.4852
	minimum = 7
	maximum = 37
Slowest flit = 219212
Fragmentation average = 0
	minimum = 0
	maximum = 0
Injected packet rate average = 0.0202125
	minimum = 0.017 (at node 3)
	maximum = 0.0244 (at node 7)
Accepted packet rate average = 0.020275
	minimum = 0.0146 (at node 1)
	maximum = 0.0234 (at node 13)
Injected flit rate average = 0.0202125
	minimum = 0.017 (at node 3)
	maximum = 0.0244 (at node 7)
Accepted flit rate average= 0.020275
	minimum = 0.0146 (at node 1)
	maximum = 0.0234 (at node 13)
Injected packet length average = 1
Accepted packet length average = 1
Total in-flight flits = 4 (4 measured)
latency change    = 0.00334083
throughput change = 0.00971023
Draining all recorded packets ...
Draining remaining packets ...
Time taken is 8055 cycles
Class 0:
Packet latency average = 19.9498
	minimum = 7
	maximum = 37
Network latency average = 19.9498
	minimum = 7
	maximum = 37
Slowest packet = 220739
Flit latency average = 19.9498
	minimum = 7
	maximum = 37
Slowest flit = 220739
Fragmentation average = 0
	minimum = 0
	maximum = 0
Injected packet rate average = 0.0190625
	minimum = 0.013 (at node 15)
	maximum = 0.025 (at node 0)
Accepted packet rate average = 0.0186875
	minimum = 0.011 (at node 0)
	maximum = 0.027 (at node 4)
Injected flit rate average = 0.0190625
	minimum = 0.013 (at node 15)
	maximum = 0.025 (at node 0)
Accepted flit rate average= 0.0186875
	minimum = 0.011 (at node 0)
	maximum = 0.027 (at node 4)
Injected packet length average = 1
Accepted packet length average = 1
Total in-flight flits = 6 (0 measured)
latency change    = 1
throughput change = 1
Class 0:
Packet latency average = 19.3867
	minimum = 7
	maximum = 37
Network latency average = 19.3867
	minimum = 7
	maximum = 37
Slowest packet = 220739
Flit latency average = 19.3867
	minimum = 7
	maximum = 37
Slowest flit = 220739
Fragmentation average = 0
	minimum = 0
	maximum = 0
Injected packet rate average = 0.02
	minimum = 0.016 (at node 1)
	maximum = 0.025 (at node 8)
Accepted packet rate average = 0.0197188
	minimum = 0.014 (at node 6)
	maximum = 0.024 (at node 2)
Injected flit rate average = 0.02
	minimum = 0.016 (at node 1)
	maximum = 0.025 (at node 8)
Accepted flit rate average= 0.0197188
	minimum = 0.014 (at node 6)
	maximum = 0.024 (at node 2)
Injected packet length average = 1
Accepted packet length average = 1
Total in-flight flits = 9 (0 measured)
latency change    = 0.029048
throughput change = 0.0522979
Class 0:
Packet latency average = 19.339
	minimum = 7
	maximum = 37
Network latency average = 19.339
	minimum = 7
	maximum = 37
Slowest packet = 221345
Flit latency average = 19.339
	minimum = 7
	maximum = 37
Slowest flit = 221345
Fragmentation average = 0
	minimum = 0
	maximum = 0
Injected packet rate average = 0.0178125
	minimum = 0.011 (at node 3)
	maximum = 0.025 (at node 6)
Accepted packet rate average = 0.01825
	minimum = 0.011 (at node 10)
	maximum = 0.024 (at node 9)
Injected flit rate average = 0.0178125
	minimum = 0.011 (at node 3)
	maximum = 0.025 (at node 6)
Accepted flit rate average= 0.01825
	minimum = 0.011 (at node 10)
	maximum = 0.024 (at node 9)
Injected packet length average = 1
Accepted packet length average = 1
Total in-flight flits = 2 (0 measured)
latency change    = 0.00246376
throughput change = 0.0804795
Warmed up ...Time used is 3000 cycles
Class 0:
Packet latency average = 19.7527
	minimum = 7
	maximum = 37
Network latency average = 19.7527
	minimum = 7
	maximum = 37
Slowest packet = 221693
Flit latency average = 19.7687
	minimum = 7
	maximum = 37
Slowest flit = 221693
Fragmentation average = 0
	minimum = 0
	maximum = 0
Injected packet rate average = 0.017875
	minimum = 0.014 (at node 1)
	maximum = 0.025 (at node 6)
Accepted packet rate average = 0.0175625
	minimum = 0.012 (at node 2)
	maximum = 0.023 (at node 9)
Injected flit rate average = 0.017875
	minimum = 0.014 (at node 1)
	maximum = 0.025 (at node 6)
Accepted flit rate average= 0.0175625
	minimum = 0.012 (at node 2)
	maximum = 0.023 (at node 9)
Injected packet length average = 1
Accepted packet length average = 1
Total in-flight flits = 7 (7 measured)
latency change    = 0.0209413
throughput change = 0.0391459
Class 0:
Packet latency average = 19.6463
	minimum = 7
	maximum = 37
Network latency average = 19.6463
	minimum = 7
	maximum = 37
Slowest packet = 221693
Flit latency average = 19.6538
	minimum = 7
	maximum = 37
Slowest flit = 221693
Fragmentation average = 0
	minimum = 0
	maximum = 0
Injected packet rate average = 0.0195625
	minimum = 0.013 (at node 12)
	maximum = 0.0265 (at node 4)
Accepted packet rate average = 0.0195
	minimum = 0.014 (at node 12)
	maximum = 0.026 (at node 15)
Injected flit rate average = 0.0195625
	minimum = 0.013 (at node 12)
	maximum = 0.0265 (at node 4)
Accepted flit rate average= 0.0195
	minimum = 0.014 (at node 12)
	maximum = 0.026 (at node 15)
Injected packet length average = 1
Accepted packet length average = 1
Total in-flight flits = 4 (4 measured)
latency change    = 0.00541506
throughput change = 0.099359
Class 0:
Packet latency average = 19.6406
	minimum = 7
	maximum = 37
Network latency average = 19.6406
	minimum = 7
	maximum = 37
Slowest packet = 221693
Flit latency average = 19.6457
	minimum = 7
	maximum = 37
Slowest flit = 221693
Fragmentation average = 0
	minimum = 0
	maximum = 0
Injected packet rate average = 0.0195833
	minimum = 0.0156667 (at node 7)
	maximum = 0.0256667 (at node 4)
Accepted packet rate average = 0.0195208
	minimum = 0.0146667 (at node 12)
	maximum = 0.0233333 (at node 2)
Injected flit rate average = 0.0195833
	minimum = 0.0156667 (at node 7)
	maximum = 0.0256667 (at node 4)
Accepted flit rate average= 0.0195208
	minimum = 0.0146667 (at node 12)
	maximum = 0.0233333 (at node 2)
Injected packet length average = 1
Accepted packet length average = 1
Total in-flight flits = 5 (5 measured)
latency change    = 0.000288205
throughput change = 0.00106724
Class 0:
Packet latency average = 19.5341
	minimum = 7
	maximum = 37
Network latency average = 19.5341
	minimum = 7
	maximum = 37
Slowest packet = 221693
Flit latency average = 19.538
	minimum = 7
	maximum = 37
Slowest flit = 221693
Fragmentation average = 0
	minimum = 0
	maximum = 0
Injected packet rate average = 0.0197344
	minimum = 0.0155 (at node 12)
	maximum = 0.024 (at node 4)
Accepted packet rate average = 0.0197188
	minimum = 0.014 (at node 12)
	maximum = 0.023 (at node 5)
Injected flit rate average = 0.0197344
	minimum = 0.0155 (at node 12)
	maximum = 0.024 (at node 4)
Accepted flit rate average= 0.0197188
	minimum = 0.014 (at node 12)
	maximum = 0.023 (at node 5)
Injected packet length average = 1
Accepted packet length average = 1
Total in-flight flits = 3 (3 measured)
latency change    = 0.00545275
throughput change = 0.010037
Class 0:
Packet latency average = 19.4673
	minimum = 7
	maximum = 37
Network latency average = 19.4673
	minimum = 7
	maximum = 37
Slowest packet = 221693
Flit latency average = 19.4706
	minimum = 7
	maximum = 37
Slowest flit = 221693
Fragmentation average = 0
	minimum = 0
	maximum = 0
Injected packet rate average = 0.0196
	minimum = 0.0168 (at node 12)
	maximum = 0.0244 (at node 4)
Accepted packet rate average = 0.019525
	minimum = 0.0162 (at node 4)
	maximum = 0.0218 (at node 0)
Injected flit rate average = 0.0196
	minimum = 0.0168 (at node 12)
	maximum = 0.0244 (at node 4)
Accepted flit rate average= 0.019525
	minimum = 0.0162 (at node 4)
	maximum = 0.0218 (at node 0)
Injected packet length average = 1
Accepted packet length average = 1
Total in-flight flits = 8 (8 measured)
latency change    = 0.00343238
throughput change = 0.00992318
Draining all recorded packets ...
Draining remaining packets ...
Time taken is 8048 cycles
====== Overall Traffic Statistics ======
====== Traffic class 0 ======
Packet latency average = 19.5324 (100 samples)
	minimum = 7 (100 samples)
	maximum = 38.03 (100 samples)
Network latency average = 19.5324 (100 samples)
	minimum = 7 (100 samples)
	maximum = 38.03 (100 samples)
Flit latency average = 19.5427 (100 samples)
	minimum = 7 (100 samples)
	maximum = 38.04 (100 samples)
Fragmentation average = 0 (100 samples)
	minimum = 0 (100 samples)
	maximum = 0 (100 samples)
Injected packet rate average = 0.019992 (100 samples)
	minimum = 0.0161758 (100 samples)
	maximum = 0.0241925 (100 samples)
Accepted packet rate average = 0.0199787 (100 samples)
	minimum = 0.0159363 (100 samples)
	maximum = 0.0240967 (100 samples)
Injected flit rate average = 0.019992 (100 samples)
	minimum = 0.0161758 (100 samples)
	maximum = 0.0241925 (100 samples)
Accepted flit rate average = 0.0199787 (100 samples)
	minimum = 0.0159363 (100 samples)
	maximum = 0.0240967 (100 samples)
Injected packet size average = 1 (100 samples)
Accepted packet size average = 1 (100 samples)
Hops average = 3.50033 (100 samples)
Total run time 11.0834
