BEGIN Configuration File: /tmp/bs_1138183_623401.cfg
topology = mesh;
k = 4;
n = 2;
routing_function = valiant;
num_vcs = 4;
vc_buf_size = 4;
wait_for_tail_credit = 1;
vc_allocator = islip;
sw_allocator = islip;
alloc_iters = 1;
credit_delay = 2;
routing_delay = 1;
vc_alloc_delay = 1;
sw_alloc_delay = 1;
input_speedup = 2;
output_speedup = 1;
internal_speedup = 1.0;
traffic = uniform;
packet_size = 1;
sim_type = latency;
injection_rate = 0.1;
warmup_periods = 3;
sample_period = 1000;
sim_count = 100;
seed = 3;

END Configuration File: /tmp/bs_1138183_623401.cfg
Class 0:
Packet latency average = 37.9302
	minimum = 7
	maximum = 118
Network latency average = 37.9276
	minimum = 7
	maximum = 118
Slowest packet = 353
Flit latency average = 37.9276
	minimum = 7
	maximum = 118
Slowest flit = 353
Fragmentation average = 0
	minimum = 0
	maximum = 0
Injected packet rate average = 0.09975
	minimum = 0.079 (at node 15)
	maximum = 0.114 (at node 9)
Accepted packet rate average = 0.095875
	minimum = 0.076 (at node 1)
	maximum = 0.11 (at node 8)
Injected flit rate average = 0.09975
	minimum = 0.079 (at node 15)
	maximum = 0.114 (at node 9)
Accepted flit rate average= 0.095875
	minimum = 0.076 (at node 1)
	maximum = 0.11 (at node 8)
Injected packet length average = 1
Accepted packet length average = 1
Total in-flight flits = 62 (0 measured)
latency change    = 1
throughput change = 1
Class 0:
Packet latency average = 38.2962
	minimum = 7
	maximum = 121
Network latency average = 38.279
	minimum = 7
	maximum = 121
Slowest packet = 2037
Flit latency average = 38.279
	minimum = 7
	maximum = 121
Slowest flit = 2037
Fragmentation average = 0
	minimum = 0
	maximum = 0
Injected packet rate average = 0.0980625
	minimum = 0.0885 (at node 0)
	maximum = 0.108 (at node 9)
Accepted packet rate average = 0.0962188
	minimum = 0.078 (at node 1)
	maximum = 0.1085 (at node 2)
Injected flit rate average = 0.0980625
	minimum = 0.0885 (at node 0)
	maximum = 0.108 (at node 9)
Accepted flit rate average= 0.0962188
	minimum = 0.078 (at node 1)
	maximum = 0.1085 (at node 2)
Injected packet length average = 1
Accepted packet length average = 1
Total in-flight flits = 59 (0 measured)
latency change    = 0.00955584
throughput change = 0.00357259
Class 0:
Packet latency average = 39.4544
	minimum = 7
	maximum = 104
Network latency average = 39.4367
	minimum = 7
	maximum = 104
Slowest packet = 4198
Flit latency average = 39.4367
	minimum = 7
	maximum = 104
Slowest flit = 4198
Fragmentation average = 0
	minimum = 0
	maximum = 0
Injected packet rate average = 0.0985
	minimum = 0.085 (at node 4)
	maximum = 0.117 (at node 12)
Accepted packet rate average = 0.09875
	minimum = 0.082 (at node 10)
	maximum = 0.116 (at node 6)
Injected flit rate average = 0.0985
	minimum = 0.085 (at node 4)
	maximum = 0.117 (at node 12)
Accepted flit rate average= 0.09875
	minimum = 0.082 (at node 10)
	maximum = 0.116 (at node 6)
Injected packet length average = 1
Accepted packet length average = 1
Total in-flight flits = 55 (0 measured)
latency change    = 0.0293562
throughput change = 0.0256329
Warmed up ...Time used is 3000 cycles
Class 0:
Packet latency average = 37.2599
	minimum = 7
	maximum = 99
Network latency average = 37.2411
	minimum = 7
	maximum = 99
Slowest packet = 5036
Flit latency average = 37.3305
	minimum = 7
	maximum = 99
Slowest flit = 5036
Fragmentation average = 0
	minimum = 0
	maximum = 0
Injected packet rate average = 0.097125
	minimum = 0.079 (at node 9)
	maximum = 0.111 (at node 12)
Accepted packet rate average = 0.097
	minimum = 0.074 (at node 1)
	maximum = 0.12 (at node 0)
Injected flit rate average = 0.097125
	minimum = 0.079 (at node 9)
	maximum = 0.111 (at node 12)
Accepted flit rate average= 0.097
	minimum = 0.074 (at node 1)
	maximum = 0.12 (at node 0)
Injected packet length average = 1
Accepted packet length average = 1
Total in-flight flits = 57 (57 measured)
latency change    = 0.0588992
throughput change = 0.0180412
Class 0:
Packet latency average = 38.3284
	minimum = 7
	maximum = 117
Network latency average = 38.2925
	minimum = 7
	maximum = 117
Slowest packet = 7578
Flit latency average = 38.318
	minimum = 7
	maximum = 117
Slowest flit = 7578
Fragmentation average = 0
	minimum = 0
	maximum = 0
Injected packet rate average = 0.0990937
	minimum = 0.0875 (at node 14)
	maximum = 0.1135 (at node 12)
Accepted packet rate average = 0.09925
	minimum = 0.0865 (at node 1)
	maximum = 0.1165 (at node 0)
Injected flit rate average = 0.0990937
	minimum = 0.0875 (at node 14)
	maximum = 0.1135 (at node 12)
Accepted flit rate average= 0.09925
	minimum = 0.0865 (at node 1)
	maximum = 0.1165 (at node 0)
Injected packet length average = 1
Accepted packet length average = 1
Total in-flight flits = 50 (50 measured)
latency change    = 0.0278792
throughput change = 0.02267
Class 0:
Packet latency average = 38.5452
	minimum = 7
	maximum = 135
Network latency average = 38.5012
	minimum = 7
	maximum = 135
Slowest packet = 8413
Flit latency average = 38.5158
	minimum = 7
	maximum = 135
Slowest flit = 8413
Fragmentation average = 0
	minimum = 0
	maximum = 0
Injected packet rate average = 0.099
	minimum = 0.0893333 (at node 14)
	maximum = 0.109 (at node 5)
Accepted packet rate average = 0.0986667
	minimum = 0.093 (at node 1)
	maximum = 0.11 (at node 0)
Injected flit rate average = 0.099
	minimum = 0.0893333 (at node 14)
	maximum = 0.109 (at node 5)
Accepted flit rate average= 0.0986667
	minimum = 0.093 (at node 1)
	maximum = 0.11 (at node 0)
Injected packet length average = 1
Accepted packet length average = 1
Total in-flight flits = 71 (71 measured)
latency change    = 0.00562359
throughput change = 0.00591216
Class 0:
Packet latency average = 38.9452
	minimum = 7
	maximum = 135
Network latency average = 38.909
	minimum = 7
	maximum = 135
Slowest packet = 8413
Flit latency average = 38.9165
	minimum = 7
	maximum = 135
Slowest flit = 8413
Fragmentation average = 0
	minimum = 0
	maximum = 0
Injected packet rate average = 0.0989375
	minimum = 0.08875 (at node 1)
	maximum = 0.10675 (at node 5)
Accepted packet rate average = 0.0986094
	minimum = 0.09325 (at node 2)
	maximum = 0.10675 (at node 0)
Injected flit rate average = 0.0989375
	minimum = 0.08875 (at node 1)
	maximum = 0.10675 (at node 5)
Accepted flit rate average= 0.0986094
	minimum = 0.09325 (at node 2)
	maximum = 0.10675 (at node 0)
Injected packet length average = 1
Accepted packet length average = 1
Total in-flight flits = 76 (76 measured)
latency change    = 0.0102706
throughput change = 0.000580996
Draining all recorded packets ...
Draining remaining packets ...
Time taken is 7167 cycles
Class 0:
Packet latency average = 39.7751
	minimum = 7
	maximum = 130
Network latency average = 39.706
	minimum = 7
	maximum = 130
Slowest packet = 11752
Flit latency average = 39.706
	minimum = 7
	maximum = 130
Slowest flit = 11752
Fragmentation average = 0
	minimum = 0
	maximum = 0
Injected packet rate average = 0.1005
	minimum = 0.087 (at node 7)
	maximum = 0.112 (at node 14)
Accepted packet rate average = 0.0975625
	minimum = 0.087 (at node 2)
	maximum = 0.109 (at node 1)
Injected flit rate average = 0.1005
	minimum = 0.087 (at node 7)
	maximum = 0.112 (at node 14)
Accepted flit rate average= 0.0975625
	minimum = 0.087 (at node 2)
	maximum = 0.109 (at node 1)
Injected packet length average = 1
Accepted packet length average = 1
Total in-flight flits = 47 (0 measured)
latency change    = 1
throughput change = 1
Class 0:
Packet latency average = 41.5286
	minimum = 7
	maximum = 195
Network latency average = 40.7435
	minimum = 7
	maximum = 195
Slowest packet = 13506
Flit latency average = 40.7435
	minimum = 7
	maximum = 195
Slowest flit = 13506
Fragmentation average = 0
	minimum = 0
	maximum = 0
Injected packet rate average = 0.101125
	minimum = 0.088 (at node 8)
	maximum = 0.1125 (at node 12)
Accepted packet rate average = 0.0993125
	minimum = 0.0885 (at node 5)
	maximum = 0.1095 (at node 10)
Injected flit rate average = 0.101125
	minimum = 0.088 (at node 8)
	maximum = 0.1125 (at node 12)
Accepted flit rate average= 0.0993125
	minimum = 0.0885 (at node 5)
	maximum = 0.1095 (at node 10)
Injected packet length average = 1
Accepted packet length average = 1
Total in-flight flits = 58 (0 measured)
latency change    = 0.0422236
throughput change = 0.0176211
Class 0:
Packet latency average = 37.9565
	minimum = 7
	maximum = 103
Network latency average = 37.949
	minimum = 7
	maximum = 103
Slowest packet = 15509
Flit latency average = 37.949
	minimum = 7
	maximum = 103
Slowest flit = 15509
Fragmentation average = 0
	minimum = 0
	maximum = 0
Injected packet rate average = 0.0986875
	minimum = 0.088 (at node 11)
	maximum = 0.112 (at node 9)
Accepted packet rate average = 0.0991875
	minimum = 0.086 (at node 15)
	maximum = 0.114 (at node 1)
Injected flit rate average = 0.0986875
	minimum = 0.088 (at node 11)
	maximum = 0.112 (at node 9)
Accepted flit rate average= 0.0991875
	minimum = 0.086 (at node 15)
	maximum = 0.114 (at node 1)
Injected packet length average = 1
Accepted packet length average = 1
Total in-flight flits = 50 (0 measured)
latency change    = 0.0941106
throughput change = 0.00126024
Warmed up ...Time used is 3000 cycles
Class 0:
Packet latency average = 40.0429
	minimum = 7
	maximum = 113
Network latency average = 39.9428
	minimum = 7
	maximum = 113
Slowest packet = 17189
Flit latency average = 39.9225
	minimum = 7
	maximum = 113
Slowest flit = 17189
Fragmentation average = 0
	minimum = 0
	maximum = 0
Injected packet rate average = 0.099625
	minimum = 0.086 (at node 5)
	maximum = 0.116 (at node 6)
Accepted packet rate average = 0.09925
	minimum = 0.082 (at node 5)
	maximum = 0.122 (at node 15)
Injected flit rate average = 0.099625
	minimum = 0.086 (at node 5)
	maximum = 0.116 (at node 6)
Accepted flit rate average= 0.09925
	minimum = 0.082 (at node 5)
	maximum = 0.122 (at node 15)
Injected packet length average = 1
Accepted packet length average = 1
Total in-flight flits = 56 (56 measured)
latency change    = 0.0521039
throughput change = 0.000629723
Class 0:
Packet latency average = 39.3504
	minimum = 7
	maximum = 121
Network latency average = 39.2964
	minimum = 7
	maximum = 121
Slowest packet = 18849
Flit latency average = 39.2964
	minimum = 7
	maximum = 121
Slowest flit = 18849
Fragmentation average = 0
	minimum = 0
	maximum = 0
Injected packet rate average = 0.0985625
	minimum = 0.0845 (at node 5)
	maximum = 0.1115 (at node 10)
Accepted packet rate average = 0.09825
	minimum = 0.0805 (at node 5)
	maximum = 0.1125 (at node 15)
Injected flit rate average = 0.0985625
	minimum = 0.0845 (at node 5)
	maximum = 0.1115 (at node 10)
Accepted flit rate average= 0.09825
	minimum = 0.0805 (at node 5)
	maximum = 0.1125 (at node 15)
Injected packet length average = 1
Accepted packet length average = 1
Total in-flight flits = 60 (60 measured)
latency change    = 0.0175998
throughput change = 0.0101781
Class 0:
Packet latency average = 39.9193
	minimum = 7
	maximum = 132
Network latency average = 39.8669
	minimum = 7
	maximum = 132
Slowest packet = 20034
Flit latency average = 39.8609
	minimum = 7
	maximum = 132
Slowest flit = 20034
Fragmentation average = 0
	minimum = 0
	maximum = 0
Injected packet rate average = 0.0995208
	minimum = 0.091 (at node 14)
	maximum = 0.105667 (at node 9)
Accepted packet rate average = 0.0991458
	minimum = 0.0813333 (at node 5)
	maximum = 0.109333 (at node 15)
Injected flit rate average = 0.0995208
	minimum = 0.091 (at node 14)
	maximum = 0.105667 (at node 9)
Accepted flit rate average= 0.0991458
	minimum = 0.0813333 (at node 5)
	maximum = 0.109333 (at node 15)
Injected packet length average = 1
Accepted packet length average = 1
Total in-flight flits = 68 (68 measured)
latency change    = 0.0142525
throughput change = 0.00903551
Class 0:
Packet latency average = 40.3234
	minimum = 7
	maximum = 159
Network latency average = 40.2007
	minimum = 7
	maximum = 153
Slowest packet = 21853
Flit latency average = 40.1937
	minimum = 7
	maximum = 153
Slowest flit = 21853
Fragmentation average = 0
	minimum = 0
	maximum = 0
Injected packet rate average = 0.100375
	minimum = 0.0935 (at node 14)
	maximum = 0.10475 (at node 9)
Accepted packet rate average = 0.0999687
	minimum = 0.08775 (at node 5)
	maximum = 0.10825 (at node 15)
Injected flit rate average = 0.100375
	minimum = 0.0935 (at node 14)
	maximum = 0.10475 (at node 9)
Accepted flit rate average= 0.0999687
	minimum = 0.08775 (at node 5)
	maximum = 0.10825 (at node 15)
Injected packet length average = 1
Accepted packet length average = 1
Total in-flight flits = 76 (76 measured)
latency change    = 0.0100216
throughput change = 0.00823174
Draining all recorded packets ...
Draining remaining packets ...
Time taken is 7167 cycles
Class 0:
Packet latency average = 37.5875
	minimum = 7
	maximum = 125
Network latency average = 37.5738
	minimum = 7
	maximum = 125
Slowest packet = 23028
Flit latency average = 37.5738
	minimum = 7
	maximum = 125
Slowest flit = 23028
Fragmentation average = 0
	minimum = 0
	maximum = 0
Injected packet rate average = 0.0998125
	minimum = 0.083 (at node 15)
	maximum = 0.113 (at node 5)
Accepted packet rate average = 0.0960625
	minimum = 0.078 (at node 15)
	maximum = 0.116 (at node 11)
Injected flit rate average = 0.0998125
	minimum = 0.083 (at node 15)
	maximum = 0.113 (at node 5)
Accepted flit rate average= 0.0960625
	minimum = 0.078 (at node 15)
	maximum = 0.116 (at node 11)
Injected packet length average = 1
Accepted packet length average = 1
Total in-flight flits = 60 (0 measured)
latency change    = 1
throughput change = 1
Class 0:
Packet latency average = 38.4288
	minimum = 7
	maximum = 125
Network latency average = 38.413
	minimum = 7
	maximum = 125
Slowest packet = 23028
Flit latency average = 38.413
	minimum = 7
	maximum = 125
Slowest flit = 23028
Fragmentation average = 0
	minimum = 0
	maximum = 0
Injected packet rate average = 0.100719
	minimum = 0.0935 (at node 15)
	maximum = 0.1065 (at node 3)
Accepted packet rate average = 0.0985937
	minimum = 0.0855 (at node 15)
	maximum = 0.1125 (at node 11)
Injected flit rate average = 0.100719
	minimum = 0.0935 (at node 15)
	maximum = 0.1065 (at node 3)
Accepted flit rate average= 0.0985937
	minimum = 0.0855 (at node 15)
	maximum = 0.1125 (at node 11)
Injected packet length average = 1
Accepted packet length average = 1
Total in-flight flits = 68 (0 measured)
latency change    = 0.0218933
throughput change = 0.0256735
Class 0:
Packet latency average = 39.6325
	minimum = 7
	maximum = 125
Network latency average = 39.6198
	minimum = 7
	maximum = 125
Slowest packet = 26512
Flit latency average = 39.6198
	minimum = 7
	maximum = 125
Slowest flit = 26512
Fragmentation average = 0
	minimum = 0
	maximum = 0
Injected packet rate average = 0.101875
	minimum = 0.081 (at node 14)
	maximum = 0.122 (at node 15)
Accepted packet rate average = 0.103563
	minimum = 0.087 (at node 8)
	maximum = 0.117 (at node 9)
Injected flit rate average = 0.101875
	minimum = 0.081 (at node 14)
	maximum = 0.122 (at node 15)
Accepted flit rate average= 0.103563
	minimum = 0.087 (at node 8)
	maximum = 0.117 (at node 9)
Injected packet length average = 1
Accepted packet length average = 1
Total in-flight flits = 41 (0 measured)
latency change    = 0.0303697
throughput change = 0.0479783
Warmed up ...Time used is 3000 cycles
Class 0:
Packet latency average = 38.9188
	minimum = 7
	maximum = 127
Network latency average = 38.8884
	minimum = 7
	maximum = 127
Slowest packet = 27987
Flit latency average = 38.8779
	minimum = 7
	maximum = 127
Slowest flit = 27987
Fragmentation average = 0
	minimum = 0
	maximum = 0
Injected packet rate average = 0.099125
	minimum = 0.078 (at node 7)
	maximum = 0.124 (at node 6)
Accepted packet rate average = 0.09725
	minimum = 0.086 (at node 3)
	maximum = 0.111 (at node 14)
Injected flit rate average = 0.099125
	minimum = 0.078 (at node 7)
	maximum = 0.124 (at node 6)
Accepted flit rate average= 0.09725
	minimum = 0.086 (at node 3)
	maximum = 0.111 (at node 14)
Injected packet length average = 1
Accepted packet length average = 1
Total in-flight flits = 73 (73 measured)
latency change    = 0.0183371
throughput change = 0.06491
Class 0:
Packet latency average = 39.6033
	minimum = 7
	maximum = 131
Network latency average = 39.4557
	minimum = 7
	maximum = 131
Slowest packet = 28978
Flit latency average = 39.4433
	minimum = 7
	maximum = 131
Slowest flit = 28978
Fragmentation average = 0
	minimum = 0
	maximum = 0
Injected packet rate average = 0.101375
	minimum = 0.0835 (at node 7)
	maximum = 0.1215 (at node 6)
Accepted packet rate average = 0.100375
	minimum = 0.089 (at node 2)
	maximum = 0.1135 (at node 1)
Injected flit rate average = 0.101375
	minimum = 0.0835 (at node 7)
	maximum = 0.1215 (at node 6)
Accepted flit rate average= 0.100375
	minimum = 0.089 (at node 2)
	maximum = 0.1135 (at node 1)
Injected packet length average = 1
Accepted packet length average = 1
Total in-flight flits = 73 (73 measured)
latency change    = 0.0172831
throughput change = 0.0311333
Class 0:
Packet latency average = 40.1591
	minimum = 7
	maximum = 131
Network latency average = 40.0405
	minimum = 7
	maximum = 131
Slowest packet = 28978
Flit latency average = 40.0273
	minimum = 7
	maximum = 131
Slowest flit = 28978
Fragmentation average = 0
	minimum = 0
	maximum = 0
Injected packet rate average = 0.100854
	minimum = 0.0876667 (at node 7)
	maximum = 0.111667 (at node 6)
Accepted packet rate average = 0.100604
	minimum = 0.0883333 (at node 13)
	maximum = 0.116667 (at node 1)
Injected flit rate average = 0.100854
	minimum = 0.0876667 (at node 7)
	maximum = 0.111667 (at node 6)
Accepted flit rate average= 0.100604
	minimum = 0.0883333 (at node 13)
	maximum = 0.116667 (at node 1)
Injected packet length average = 1
Accepted packet length average = 1
Total in-flight flits = 53 (53 measured)
latency change    = 0.0138416
throughput change = 0.0022779
Class 0:
Packet latency average = 39.5366
	minimum = 7
	maximum = 131
Network latency average = 39.4427
	minimum = 7
	maximum = 131
Slowest packet = 28978
Flit latency average = 39.4366
	minimum = 7
	maximum = 131
Slowest flit = 28978
Fragmentation average = 0
	minimum = 0
	maximum = 0
Injected packet rate average = 0.099875
	minimum = 0.0905 (at node 7)
	maximum = 0.10575 (at node 6)
Accepted packet rate average = 0.0995313
	minimum = 0.0895 (at node 13)
	maximum = 0.10825 (at node 1)
Injected flit rate average = 0.099875
	minimum = 0.0905 (at node 7)
	maximum = 0.10575 (at node 6)
Accepted flit rate average= 0.0995313
	minimum = 0.0895 (at node 13)
	maximum = 0.10825 (at node 1)
Injected packet length average = 1
Accepted packet length average = 1
Total in-flight flits = 63 (63 measured)
latency change    = 0.0157467
throughput change = 0.0107797
Draining all recorded packets ...
Draining remaining packets ...
Time taken is 7112 cycles
Class 0:
Packet latency average = 39.7995
	minimum = 7
	maximum = 164
Network latency average = 39.2523
	minimum = 7
	maximum = 164
Slowest packet = 34181
Flit latency average = 39.2523
	minimum = 7
	maximum = 164
Slowest flit = 34181
Fragmentation average = 0
	minimum = 0
	maximum = 0
Injected packet rate average = 0.1035
	minimum = 0.088 (at node 14)
	maximum = 0.121 (at node 3)
Accepted packet rate average = 0.100062
	minimum = 0.074 (at node 10)
	maximum = 0.125 (at node 9)
Injected flit rate average = 0.1035
	minimum = 0.088 (at node 14)
	maximum = 0.121 (at node 3)
Accepted flit rate average= 0.100062
	minimum = 0.074 (at node 10)
	maximum = 0.125 (at node 9)
Injected packet length average = 1
Accepted packet length average = 1
Total in-flight flits = 55 (0 measured)
latency change    = 1
throughput change = 1
Class 0:
Packet latency average = 39.3146
	minimum = 7
	maximum = 164
Network latency average = 39.03
	minimum = 7
	maximum = 164
Slowest packet = 34181
Flit latency average = 39.03
	minimum = 7
	maximum = 164
Slowest flit = 34181
Fragmentation average = 0
	minimum = 0
	maximum = 0
Injected packet rate average = 0.101312
	minimum = 0.0885 (at node 14)
	maximum = 0.112 (at node 8)
Accepted packet rate average = 0.0990313
	minimum = 0.0825 (at node 10)
	maximum = 0.114 (at node 9)
Injected flit rate average = 0.101312
	minimum = 0.0885 (at node 14)
	maximum = 0.112 (at node 8)
Accepted flit rate average= 0.0990313
	minimum = 0.0825 (at node 10)
	maximum = 0.114 (at node 9)
Injected packet length average = 1
Accepted packet length average = 1
Total in-flight flits = 73 (0 measured)
latency change    = 0.0123336
throughput change = 0.0104134
Class 0:
Packet latency average = 41.0212
	minimum = 7
	maximum = 134
Network latency average = 41.017
	minimum = 7
	maximum = 134
Slowest packet = 37359
Flit latency average = 41.017
	minimum = 7
	maximum = 134
Slowest flit = 37359
Fragmentation average = 0
	minimum = 0
	maximum = 0
Injected packet rate average = 0.101938
	minimum = 0.087 (at node 5)
	maximum = 0.118 (at node 4)
Accepted packet rate average = 0.103125
	minimum = 0.089 (at node 12)
	maximum = 0.116 (at node 1)
Injected flit rate average = 0.101938
	minimum = 0.087 (at node 5)
	maximum = 0.118 (at node 4)
Accepted flit rate average= 0.103125
	minimum = 0.089 (at node 12)
	maximum = 0.116 (at node 1)
Injected packet length average = 1
Accepted packet length average = 1
Total in-flight flits = 54 (0 measured)
latency change    = 0.0416029
throughput change = 0.039697
Warmed up ...Time used is 3000 cycles
Class 0:
Packet latency average = 41.8839
	minimum = 7
	maximum = 162
Network latency average = 41.3416
	minimum = 7
	maximum = 162
Slowest packet = 39977
Flit latency average = 41.6137
	minimum = 7
	maximum = 162
Slowest flit = 39977
Fragmentation average = 0
	minimum = 0
	maximum = 0
Injected packet rate average = 0.09875
	minimum = 0.071 (at node 10)
	maximum = 0.115 (at node 11)
Accepted packet rate average = 0.0986875
	minimum = 0.073 (at node 4)
	maximum = 0.118 (at node 11)
Injected flit rate average = 0.09875
	minimum = 0.071 (at node 10)
	maximum = 0.115 (at node 11)
Accepted flit rate average= 0.0986875
	minimum = 0.073 (at node 4)
	maximum = 0.118 (at node 11)
Injected packet length average = 1
Accepted packet length average = 1
Total in-flight flits = 55 (55 measured)
latency change    = 0.0205979
throughput change = 0.0449652
Class 0:
Packet latency average = 39.7476
	minimum = 7
	maximum = 162
Network latency average = 39.478
	minimum = 7
	maximum = 162
Slowest packet = 39977
Flit latency average = 39.6464
	minimum = 7
	maximum = 162
Slowest flit = 39977
Fragmentation average = 0
	minimum = 0
	maximum = 0
Injected packet rate average = 0.0986875
	minimum = 0.0835 (at node 10)
	maximum = 0.1085 (at node 0)
Accepted packet rate average = 0.098375
	minimum = 0.0855 (at node 1)
	maximum = 0.108 (at node 11)
Injected flit rate average = 0.0986875
	minimum = 0.0835 (at node 10)
	maximum = 0.1085 (at node 0)
Accepted flit rate average= 0.098375
	minimum = 0.0855 (at node 1)
	maximum = 0.108 (at node 11)
Injected packet length average = 1
Accepted packet length average = 1
Total in-flight flits = 64 (64 measured)
latency change    = 0.0537481
throughput change = 0.00317662
Class 0:
Packet latency average = 39.4461
	minimum = 7
	maximum = 162
Network latency average = 39.2584
	minimum = 7
	maximum = 162
Slowest packet = 39977
Flit latency average = 39.3728
	minimum = 7
	maximum = 162
Slowest flit = 39977
Fragmentation average = 0
	minimum = 0
	maximum = 0
Injected packet rate average = 0.0988542
	minimum = 0.085 (at node 10)
	maximum = 0.107667 (at node 9)
Accepted packet rate average = 0.0986875
	minimum = 0.0826667 (at node 9)
	maximum = 0.107333 (at node 5)
Injected flit rate average = 0.0988542
	minimum = 0.085 (at node 10)
	maximum = 0.107667 (at node 9)
Accepted flit rate average= 0.0986875
	minimum = 0.0826667 (at node 9)
	maximum = 0.107333 (at node 5)
Injected packet length average = 1
Accepted packet length average = 1
Total in-flight flits = 62 (62 measured)
latency change    = 0.0076432
throughput change = 0.00316656
Class 0:
Packet latency average = 39.4433
	minimum = 7
	maximum = 162
Network latency average = 39.3014
	minimum = 7
	maximum = 162
Slowest packet = 39977
Flit latency average = 39.3868
	minimum = 7
	maximum = 162
Slowest flit = 39977
Fragmentation average = 0
	minimum = 0
	maximum = 0
Injected packet rate average = 0.0985937
	minimum = 0.08725 (at node 10)
	maximum = 0.106 (at node 0)
Accepted packet rate average = 0.0987344
	minimum = 0.09 (at node 9)
	maximum = 0.105 (at node 15)
Injected flit rate average = 0.0985937
	minimum = 0.08725 (at node 10)
	maximum = 0.106 (at node 0)
Accepted flit rate average= 0.0987344
	minimum = 0.09 (at node 9)
	maximum = 0.105 (at node 15)
Injected packet length average = 1
Accepted packet length average = 1
Total in-flight flits = 45 (45 measured)
latency change    = 7.16317e-05
throughput change = 0.000474759
Class 0:
Packet latency average = 39.0856
	minimum = 7
	maximum = 162
Network latency average = 38.9703
	minimum = 7
	maximum = 162
Slowest packet = 39977
Flit latency average = 39.0412
	minimum = 7
	maximum = 162
Slowest flit = 39977
Fragmentation average = 0
	minimum = 0
	maximum = 0
Injected packet rate average = 0.0981375
	minimum = 0.0874 (at node 10)
	maximum = 0.1042 (at node 0)
Accepted packet rate average = 0.0982375
	minimum = 0.0882 (at node 9)
	maximum = 0.1038 (at node 11)
Injected flit rate average = 0.0981375
	minimum = 0.0874 (at node 10)
	maximum = 0.1042 (at node 0)
Accepted flit rate average= 0.0982375
	minimum = 0.0882 (at node 9)
	maximum = 0.1038 (at node 11)
Injected packet length average = 1
Accepted packet length average = 1
Total in-flight flits = 46 (46 measured)
latency change    = 0.00915094
throughput change = 0.0050579
Draining all recorded packets ...
Draining remaining packets ...
Time taken is 8107 cycles
Class 0:
Packet latency average = 37.9807
	minimum = 7
	maximum = 104
Network latency average = 37.9633
	minimum = 7
	maximum = 104
Slowest packet = 47075
Flit latency average = 37.9633
	minimum = 7
	maximum = 104
Slowest flit = 47075
Fragmentation average = 0
	minimum = 0
	maximum = 0
Injected packet rate average = 0.100312
	minimum = 0.084 (at node 8)
	maximum = 0.111 (at node 2)
Accepted packet rate average = 0.0971875
	minimum = 0.082 (at node 15)
	maximum = 0.118 (at node 11)
Injected flit rate average = 0.100312
	minimum = 0.084 (at node 8)
	maximum = 0.111 (at node 2)
Accepted flit rate average= 0.0971875
	minimum = 0.082 (at node 15)
	maximum = 0.118 (at node 11)
Injected packet length average = 1
Accepted packet length average = 1
Total in-flight flits = 50 (0 measured)
latency change    = 1
throughput change = 1
Class 0:
Packet latency average = 38.5966
	minimum = 7
	maximum = 116
Network latency average = 38.5544
	minimum = 7
	maximum = 116
Slowest packet = 48737
Flit latency average = 38.5544
	minimum = 7
	maximum = 116
Slowest flit = 48737
Fragmentation average = 0
	minimum = 0
	maximum = 0
Injected packet rate average = 0.101906
	minimum = 0.092 (at node 5)
	maximum = 0.1125 (at node 2)
Accepted packet rate average = 0.100156
	minimum = 0.0815 (at node 15)
	maximum = 0.1175 (at node 11)
Injected flit rate average = 0.101906
	minimum = 0.092 (at node 5)
	maximum = 0.1125 (at node 2)
Accepted flit rate average= 0.100156
	minimum = 0.0815 (at node 15)
	maximum = 0.1175 (at node 11)
Injected packet length average = 1
Accepted packet length average = 1
Total in-flight flits = 56 (0 measured)
latency change    = 0.0159564
throughput change = 0.0296412
Class 0:
Packet latency average = 36.4116
	minimum = 7
	maximum = 105
Network latency average = 36.4109
	minimum = 7
	maximum = 105
Slowest packet = 51353
Flit latency average = 36.4109
	minimum = 7
	maximum = 105
Slowest flit = 51353
Fragmentation average = 0
	minimum = 0
	maximum = 0
Injected packet rate average = 0.094875
	minimum = 0.078 (at node 7)
	maximum = 0.109 (at node 15)
Accepted packet rate average = 0.0950625
	minimum = 0.079 (at node 3)
	maximum = 0.116 (at node 6)
Injected flit rate average = 0.094875
	minimum = 0.078 (at node 7)
	maximum = 0.109 (at node 15)
Accepted flit rate average= 0.0950625
	minimum = 0.079 (at node 3)
	maximum = 0.116 (at node 6)
Injected packet length average = 1
Accepted packet length average = 1
Total in-flight flits = 53 (0 measured)
latency change    = 0.0600083
throughput change = 0.0535832
Warmed up ...Time used is 3000 cycles
Class 0:
Packet latency average = 39.1255
	minimum = 7
	maximum = 113
Network latency average = 39.1124
	minimum = 7
	maximum = 113
Slowest packet = 52514
Flit latency average = 39.1251
	minimum = 7
	maximum = 113
Slowest flit = 52514
Fragmentation average = 0
	minimum = 0
	maximum = 0
Injected packet rate average = 0.09825
	minimum = 0.078 (at node 3)
	maximum = 0.109 (at node 10)
Accepted packet rate average = 0.0984375
	minimum = 0.079 (at node 1)
	maximum = 0.122 (at node 7)
Injected flit rate average = 0.09825
	minimum = 0.078 (at node 3)
	maximum = 0.109 (at node 10)
Accepted flit rate average= 0.0984375
	minimum = 0.079 (at node 1)
	maximum = 0.122 (at node 7)
Injected packet length average = 1
Accepted packet length average = 1
Total in-flight flits = 50 (50 measured)
latency change    = 0.0693645
throughput change = 0.0342857
Class 0:
Packet latency average = 39.1414
	minimum = 7
	maximum = 140
Network latency average = 39.0112
	minimum = 7
	maximum = 140
Slowest packet = 53292
Flit latency average = 39.0193
	minimum = 7
	maximum = 140
Slowest flit = 53292
Fragmentation average = 0
	minimum = 0
	maximum = 0
Injected packet rate average = 0.0995313
	minimum = 0.0915 (at node 0)
	maximum = 0.1125 (at node 15)
Accepted packet rate average = 0.0989063
	minimum = 0.0865 (at node 9)
	maximum = 0.1155 (at node 7)
Injected flit rate average = 0.0995313
	minimum = 0.0915 (at node 0)
	maximum = 0.1125 (at node 15)
Accepted flit rate average= 0.0989063
	minimum = 0.0865 (at node 9)
	maximum = 0.1155 (at node 7)
Injected packet length average = 1
Accepted packet length average = 1
Total in-flight flits = 73 (73 measured)
latency change    = 0.000406102
throughput change = 0.00473934
Class 0:
Packet latency average = 39.9661
	minimum = 7
	maximum = 183
Network latency average = 39.4565
	minimum = 7
	maximum = 183
Slowest packet = 54719
Flit latency average = 39.4569
	minimum = 7
	maximum = 183
Slowest flit = 54719
Fragmentation average = 0
	minimum = 0
	maximum = 0
Injected packet rate average = 0.099875
	minimum = 0.0883333 (at node 5)
	maximum = 0.109333 (at node 15)
Accepted packet rate average = 0.0995417
	minimum = 0.0916667 (at node 9)
	maximum = 0.109 (at node 12)
Injected flit rate average = 0.099875
	minimum = 0.0883333 (at node 5)
	maximum = 0.109333 (at node 15)
Accepted flit rate average= 0.0995417
	minimum = 0.0916667 (at node 9)
	maximum = 0.109 (at node 12)
Injected packet length average = 1
Accepted packet length average = 1
Total in-flight flits = 69 (69 measured)
latency change    = 0.0206362
throughput change = 0.00638342
Class 0:
Packet latency average = 41.0245
	minimum = 7
	maximum = 183
Network latency average = 40.3849
	minimum = 7
	maximum = 183
Slowest packet = 54719
Flit latency average = 40.3776
	minimum = 7
	maximum = 183
Slowest flit = 54719
Fragmentation average = 0
	minimum = 0
	maximum = 0
Injected packet rate average = 0.101266
	minimum = 0.089 (at node 5)
	maximum = 0.1075 (at node 7)
Accepted packet rate average = 0.101141
	minimum = 0.09325 (at node 9)
	maximum = 0.11025 (at node 12)
Injected flit rate average = 0.101266
	minimum = 0.089 (at node 5)
	maximum = 0.1075 (at node 7)
Accepted flit rate average= 0.101141
	minimum = 0.09325 (at node 9)
	maximum = 0.11025 (at node 12)
Injected packet length average = 1
Accepted packet length average = 1
Total in-flight flits = 61 (61 measured)
latency change    = 0.0257972
throughput change = 0.0158093
Draining all recorded packets ...
Draining remaining packets ...
Time taken is 7133 cycles
Class 0:
Packet latency average = 38.6195
	minimum = 7
	maximum = 124
Network latency average = 38.5885
	minimum = 7
	maximum = 124
Slowest packet = 58402
Flit latency average = 38.5885
	minimum = 7
	maximum = 124
Slowest flit = 58402
Fragmentation average = 0
	minimum = 0
	maximum = 0
Injected packet rate average = 0.0989375
	minimum = 0.084 (at node 14)
	maximum = 0.119 (at node 4)
Accepted packet rate average = 0.0949375
	minimum = 0.079 (at node 14)
	maximum = 0.108 (at node 7)
Injected flit rate average = 0.0989375
	minimum = 0.084 (at node 14)
	maximum = 0.119 (at node 4)
Accepted flit rate average= 0.0949375
	minimum = 0.079 (at node 14)
	maximum = 0.108 (at node 7)
Injected packet length average = 1
Accepted packet length average = 1
Total in-flight flits = 64 (0 measured)
latency change    = 1
throughput change = 1
Class 0:
Packet latency average = 39.169
	minimum = 7
	maximum = 136
Network latency average = 39.1446
	minimum = 7
	maximum = 136
Slowest packet = 59604
Flit latency average = 39.1446
	minimum = 7
	maximum = 136
Slowest flit = 59604
Fragmentation average = 0
	minimum = 0
	maximum = 0
Injected packet rate average = 0.0994375
	minimum = 0.089 (at node 9)
	maximum = 0.111 (at node 5)
Accepted packet rate average = 0.0972812
	minimum = 0.0875 (at node 4)
	maximum = 0.1165 (at node 12)
Injected flit rate average = 0.0994375
	minimum = 0.089 (at node 9)
	maximum = 0.111 (at node 5)
Accepted flit rate average= 0.0972812
	minimum = 0.0875 (at node 4)
	maximum = 0.1165 (at node 12)
Injected packet length average = 1
Accepted packet length average = 1
Total in-flight flits = 69 (0 measured)
latency change    = 0.0140285
throughput change = 0.0240925
Class 0:
Packet latency average = 40.1392
	minimum = 7
	maximum = 110
Network latency average = 40.1153
	minimum = 7
	maximum = 110
Slowest packet = 62368
Flit latency average = 40.1153
	minimum = 7
	maximum = 110
Slowest flit = 62368
Fragmentation average = 0
	minimum = 0
	maximum = 0
Injected packet rate average = 0.104438
	minimum = 0.09 (at node 2)
	maximum = 0.117 (at node 11)
Accepted packet rate average = 0.104625
	minimum = 0.085 (at node 11)
	maximum = 0.13 (at node 3)
Injected flit rate average = 0.104438
	minimum = 0.09 (at node 2)
	maximum = 0.117 (at node 11)
Accepted flit rate average= 0.104625
	minimum = 0.085 (at node 11)
	maximum = 0.13 (at node 3)
Injected packet length average = 1
Accepted packet length average = 1
Total in-flight flits = 66 (0 measured)
latency change    = 0.0241714
throughput change = 0.0701912
Warmed up ...Time used is 3000 cycles
Class 0:
Packet latency average = 38.6265
	minimum = 7
	maximum = 105
Network latency average = 38.6174
	minimum = 7
	maximum = 105
Slowest packet = 64025
Flit latency average = 39.1996
	minimum = 7
	maximum = 130
Slowest flit = 62857
Fragmentation average = 0
	minimum = 0
	maximum = 0
Injected packet rate average = 0.100375
	minimum = 0.085 (at node 10)
	maximum = 0.123 (at node 15)
Accepted packet rate average = 0.1005
	minimum = 0.087 (at node 14)
	maximum = 0.114 (at node 9)
Injected flit rate average = 0.100375
	minimum = 0.085 (at node 10)
	maximum = 0.123 (at node 15)
Accepted flit rate average= 0.1005
	minimum = 0.087 (at node 14)
	maximum = 0.114 (at node 9)
Injected packet length average = 1
Accepted packet length average = 1
Total in-flight flits = 64 (64 measured)
latency change    = 0.039163
throughput change = 0.0410448
Class 0:
Packet latency average = 38.8417
	minimum = 7
	maximum = 146
Network latency average = 38.8036
	minimum = 7
	maximum = 146
Slowest packet = 64594
Flit latency average = 39.093
	minimum = 7
	maximum = 146
Slowest flit = 64594
Fragmentation average = 0
	minimum = 0
	maximum = 0
Injected packet rate average = 0.100031
	minimum = 0.089 (at node 4)
	maximum = 0.11 (at node 15)
Accepted packet rate average = 0.09975
	minimum = 0.0845 (at node 14)
	maximum = 0.1125 (at node 6)
Injected flit rate average = 0.100031
	minimum = 0.089 (at node 4)
	maximum = 0.11 (at node 15)
Accepted flit rate average= 0.09975
	minimum = 0.0845 (at node 14)
	maximum = 0.1125 (at node 6)
Injected packet length average = 1
Accepted packet length average = 1
Total in-flight flits = 75 (75 measured)
latency change    = 0.00554023
throughput change = 0.0075188
Class 0:
Packet latency average = 40.3605
	minimum = 7
	maximum = 184
Network latency average = 40.1615
	minimum = 7
	maximum = 184
Slowest packet = 66797
Flit latency average = 40.334
	minimum = 7
	maximum = 184
Slowest flit = 66797
Fragmentation average = 0
	minimum = 0
	maximum = 0
Injected packet rate average = 0.100854
	minimum = 0.0923333 (at node 10)
	maximum = 0.109 (at node 0)
Accepted packet rate average = 0.100729
	minimum = 0.0913333 (at node 14)
	maximum = 0.111 (at node 15)
Injected flit rate average = 0.100854
	minimum = 0.0923333 (at node 10)
	maximum = 0.109 (at node 0)
Accepted flit rate average= 0.100729
	minimum = 0.0913333 (at node 14)
	maximum = 0.111 (at node 15)
Injected packet length average = 1
Accepted packet length average = 1
Total in-flight flits = 72 (72 measured)
latency change    = 0.037631
throughput change = 0.00972079
Draining all recorded packets ...
Draining remaining packets ...
Time taken is 6131 cycles
Class 0:
Packet latency average = 38.2224
	minimum = 7
	maximum = 150
Network latency average = 38.18
	minimum = 7
	maximum = 150
Slowest packet = 68964
Flit latency average = 38.18
	minimum = 7
	maximum = 150
Slowest flit = 68964
Fragmentation average = 0
	minimum = 0
	maximum = 0
Injected packet rate average = 0.103625
	minimum = 0.088 (at node 11)
	maximum = 0.114 (at node 5)
Accepted packet rate average = 0.0989375
	minimum = 0.083 (at node 8)
	maximum = 0.111 (at node 0)
Injected flit rate average = 0.103625
	minimum = 0.088 (at node 11)
	maximum = 0.114 (at node 5)
Accepted flit rate average= 0.0989375
	minimum = 0.083 (at node 8)
	maximum = 0.111 (at node 0)
Injected packet length average = 1
Accepted packet length average = 1
Total in-flight flits = 75 (0 measured)
latency change    = 1
throughput change = 1
Class 0:
Packet latency average = 39.8723
	minimum = 7
	maximum = 150
Network latency average = 39.8004
	minimum = 7
	maximum = 150
Slowest packet = 68964
Flit latency average = 39.8004
	minimum = 7
	maximum = 150
Slowest flit = 68964
Fragmentation average = 0
	minimum = 0
	maximum = 0
Injected packet rate average = 0.103344
	minimum = 0.093 (at node 4)
	maximum = 0.115 (at node 7)
Accepted packet rate average = 0.101312
	minimum = 0.0905 (at node 3)
	maximum = 0.109 (at node 12)
Injected flit rate average = 0.103344
	minimum = 0.093 (at node 4)
	maximum = 0.115 (at node 7)
Accepted flit rate average= 0.101312
	minimum = 0.0905 (at node 3)
	maximum = 0.109 (at node 12)
Injected packet length average = 1
Accepted packet length average = 1
Total in-flight flits = 65 (0 measured)
latency change    = 0.0413806
throughput change = 0.0234423
Class 0:
Packet latency average = 40.8067
	minimum = 7
	maximum = 128
Network latency average = 40.7918
	minimum = 7
	maximum = 128
Slowest packet = 71699
Flit latency average = 40.7918
	minimum = 7
	maximum = 128
Slowest flit = 71699
Fragmentation average = 0
	minimum = 0
	maximum = 0
Injected packet rate average = 0.101562
	minimum = 0.083 (at node 13)
	maximum = 0.123 (at node 11)
Accepted packet rate average = 0.101187
	minimum = 0.083 (at node 13)
	maximum = 0.118 (at node 10)
Injected flit rate average = 0.101562
	minimum = 0.083 (at node 13)
	maximum = 0.123 (at node 11)
Accepted flit rate average= 0.101187
	minimum = 0.083 (at node 13)
	maximum = 0.118 (at node 10)
Injected packet length average = 1
Accepted packet length average = 1
Total in-flight flits = 71 (0 measured)
latency change    = 0.0228975
throughput change = 0.00123533
Warmed up ...Time used is 3000 cycles
Class 0:
Packet latency average = 37.6498
	minimum = 7
	maximum = 100
Network latency average = 37.6484
	minimum = 7
	maximum = 100
Slowest packet = 73418
Flit latency average = 38.0148
	minimum = 7
	maximum = 100
Slowest flit = 73418
Fragmentation average = 0
	minimum = 0
	maximum = 0
Injected packet rate average = 0.0970625
	minimum = 0.082 (at node 2)
	maximum = 0.115 (at node 12)
Accepted packet rate average = 0.0970625
	minimum = 0.08 (at node 8)
	maximum = 0.111 (at node 1)
Injected flit rate average = 0.0970625
	minimum = 0.082 (at node 2)
	maximum = 0.115 (at node 12)
Accepted flit rate average= 0.0970625
	minimum = 0.08 (at node 8)
	maximum = 0.111 (at node 1)
Injected packet length average = 1
Accepted packet length average = 1
Total in-flight flits = 71 (71 measured)
latency change    = 0.0838483
throughput change = 0.0424984
Class 0:
Packet latency average = 38.3808
	minimum = 7
	maximum = 124
Network latency average = 38.3653
	minimum = 7
	maximum = 124
Slowest packet = 75554
Flit latency average = 38.5293
	minimum = 7
	maximum = 124
Slowest flit = 75554
Fragmentation average = 0
	minimum = 0
	maximum = 0
Injected packet rate average = 0.0985
	minimum = 0.0905 (at node 0)
	maximum = 0.1095 (at node 10)
Accepted packet rate average = 0.0987187
	minimum = 0.091 (at node 6)
	maximum = 0.1085 (at node 10)
Injected flit rate average = 0.0985
	minimum = 0.0905 (at node 0)
	maximum = 0.1095 (at node 10)
Accepted flit rate average= 0.0987187
	minimum = 0.091 (at node 6)
	maximum = 0.1085 (at node 10)
Injected packet length average = 1
Accepted packet length average = 1
Total in-flight flits = 64 (64 measured)
latency change    = 0.0190468
throughput change = 0.0167775
Class 0:
Packet latency average = 40.0393
	minimum = 7
	maximum = 148
Network latency average = 40.0073
	minimum = 7
	maximum = 148
Slowest packet = 76977
Flit latency average = 40.0895
	minimum = 7
	maximum = 148
Slowest flit = 76977
Fragmentation average = 0
	minimum = 0
	maximum = 0
Injected packet rate average = 0.101708
	minimum = 0.094 (at node 2)
	maximum = 0.110333 (at node 5)
Accepted packet rate average = 0.101667
	minimum = 0.0946667 (at node 5)
	maximum = 0.116 (at node 10)
Injected flit rate average = 0.101708
	minimum = 0.094 (at node 2)
	maximum = 0.110333 (at node 5)
Accepted flit rate average= 0.101667
	minimum = 0.0946667 (at node 5)
	maximum = 0.116 (at node 10)
Injected packet length average = 1
Accepted packet length average = 1
Total in-flight flits = 73 (73 measured)
latency change    = 0.0414211
throughput change = 0.0289959
Class 0:
Packet latency average = 40.2617
	minimum = 7
	maximum = 148
Network latency average = 40.2218
	minimum = 7
	maximum = 148
Slowest packet = 76977
Flit latency average = 40.281
	minimum = 7
	maximum = 148
Slowest flit = 76977
Fragmentation average = 0
	minimum = 0
	maximum = 0
Injected packet rate average = 0.101766
	minimum = 0.09625 (at node 2)
	maximum = 0.10875 (at node 9)
Accepted packet rate average = 0.101969
	minimum = 0.094 (at node 13)
	maximum = 0.1175 (at node 10)
Injected flit rate average = 0.101766
	minimum = 0.09625 (at node 2)
	maximum = 0.10875 (at node 9)
Accepted flit rate average= 0.101969
	minimum = 0.094 (at node 13)
	maximum = 0.1175 (at node 10)
Injected packet length average = 1
Accepted packet length average = 1
Total in-flight flits = 58 (58 measured)
latency change    = 0.00552278
throughput change = 0.00296251
Draining all recorded packets ...
Draining remaining packets ...
Time taken is 7114 cycles
Class 0:
Packet latency average = 38.8909
	minimum = 7
	maximum = 127
Network latency average = 38.8489
	minimum = 7
	maximum = 127
Slowest packet = 80107
Flit latency average = 38.8489
	minimum = 7
	maximum = 127
Slowest flit = 80107
Fragmentation average = 0
	minimum = 0
	maximum = 0
Injected packet rate average = 0.097875
	minimum = 0.081 (at node 3)
	maximum = 0.119 (at node 5)
Accepted packet rate average = 0.095125
	minimum = 0.069 (at node 0)
	maximum = 0.119 (at node 1)
Injected flit rate average = 0.097875
	minimum = 0.081 (at node 3)
	maximum = 0.119 (at node 5)
Accepted flit rate average= 0.095125
	minimum = 0.069 (at node 0)
	maximum = 0.119 (at node 1)
Injected packet length average = 1
Accepted packet length average = 1
Total in-flight flits = 44 (0 measured)
latency change    = 1
throughput change = 1
Class 0:
Packet latency average = 38.9042
	minimum = 7
	maximum = 127
Network latency average = 38.8782
	minimum = 7
	maximum = 127
Slowest packet = 80107
Flit latency average = 38.8782
	minimum = 7
	maximum = 127
Slowest flit = 80107
Fragmentation average = 0
	minimum = 0
	maximum = 0
Injected packet rate average = 0.09925
	minimum = 0.09 (at node 3)
	maximum = 0.116 (at node 5)
Accepted packet rate average = 0.0975
	minimum = 0.0835 (at node 0)
	maximum = 0.1125 (at node 1)
Injected flit rate average = 0.09925
	minimum = 0.09 (at node 3)
	maximum = 0.116 (at node 5)
Accepted flit rate average= 0.0975
	minimum = 0.0835 (at node 0)
	maximum = 0.1125 (at node 1)
Injected packet length average = 1
Accepted packet length average = 1
Total in-flight flits = 56 (0 measured)
latency change    = 0.000340161
throughput change = 0.024359
Class 0:
Packet latency average = 40.4491
	minimum = 7
	maximum = 157
Network latency average = 40.2367
	minimum = 7
	maximum = 157
Slowest packet = 83266
Flit latency average = 40.2367
	minimum = 7
	maximum = 157
Slowest flit = 83266
Fragmentation average = 0
	minimum = 0
	maximum = 0
Injected packet rate average = 0.097375
	minimum = 0.084 (at node 11)
	maximum = 0.109 (at node 0)
Accepted packet rate average = 0.0976875
	minimum = 0.085 (at node 3)
	maximum = 0.115 (at node 14)
Injected flit rate average = 0.097375
	minimum = 0.084 (at node 11)
	maximum = 0.109 (at node 0)
Accepted flit rate average= 0.0976875
	minimum = 0.085 (at node 3)
	maximum = 0.115 (at node 14)
Injected packet length average = 1
Accepted packet length average = 1
Total in-flight flits = 51 (0 measured)
latency change    = 0.0381954
throughput change = 0.00191939
Warmed up ...Time used is 3000 cycles
Class 0:
Packet latency average = 39.6207
	minimum = 7
	maximum = 148
Network latency average = 39.6148
	minimum = 7
	maximum = 148
Slowest packet = 84885
Flit latency average = 39.9081
	minimum = 7
	maximum = 148
Slowest flit = 84885
Fragmentation average = 0
	minimum = 0
	maximum = 0
Injected packet rate average = 0.0985
	minimum = 0.086 (at node 13)
	maximum = 0.113 (at node 3)
Accepted packet rate average = 0.0979375
	minimum = 0.076 (at node 4)
	maximum = 0.111 (at node 2)
Injected flit rate average = 0.0985
	minimum = 0.086 (at node 13)
	maximum = 0.113 (at node 3)
Accepted flit rate average= 0.0979375
	minimum = 0.076 (at node 4)
	maximum = 0.111 (at node 2)
Injected packet length average = 1
Accepted packet length average = 1
Total in-flight flits = 60 (60 measured)
latency change    = 0.0209089
throughput change = 0.00255265
Class 0:
Packet latency average = 39.2825
	minimum = 7
	maximum = 148
Network latency average = 39.2668
	minimum = 7
	maximum = 148
Slowest packet = 84885
Flit latency average = 39.4178
	minimum = 7
	maximum = 148
Slowest flit = 84885
Fragmentation average = 0
	minimum = 0
	maximum = 0
Injected packet rate average = 0.0992813
	minimum = 0.0865 (at node 13)
	maximum = 0.109 (at node 3)
Accepted packet rate average = 0.0988125
	minimum = 0.0875 (at node 4)
	maximum = 0.1095 (at node 6)
Injected flit rate average = 0.0992813
	minimum = 0.0865 (at node 13)
	maximum = 0.109 (at node 3)
Accepted flit rate average= 0.0988125
	minimum = 0.0875 (at node 4)
	maximum = 0.1095 (at node 6)
Injected packet length average = 1
Accepted packet length average = 1
Total in-flight flits = 66 (66 measured)
latency change    = 0.00860857
throughput change = 0.00885515
Class 0:
Packet latency average = 39.9704
	minimum = 7
	maximum = 163
Network latency average = 39.6287
	minimum = 7
	maximum = 163
Slowest packet = 87261
Flit latency average = 39.7248
	minimum = 7
	maximum = 163
Slowest flit = 87261
Fragmentation average = 0
	minimum = 0
	maximum = 0
Injected packet rate average = 0.0999792
	minimum = 0.087 (at node 13)
	maximum = 0.107 (at node 12)
Accepted packet rate average = 0.0995417
	minimum = 0.0926667 (at node 3)
	maximum = 0.113333 (at node 6)
Injected flit rate average = 0.0999792
	minimum = 0.087 (at node 13)
	maximum = 0.107 (at node 12)
Accepted flit rate average= 0.0995417
	minimum = 0.0926667 (at node 3)
	maximum = 0.113333 (at node 6)
Injected packet length average = 1
Accepted packet length average = 1
Total in-flight flits = 72 (72 measured)
latency change    = 0.0172087
throughput change = 0.00732524
Draining all recorded packets ...
Draining remaining packets ...
Time taken is 6116 cycles
Class 0:
Packet latency average = 36.412
	minimum = 7
	maximum = 111
Network latency average = 36.404
	minimum = 7
	maximum = 111
Slowest packet = 89662
Flit latency average = 36.404
	minimum = 7
	maximum = 111
Slowest flit = 89662
Fragmentation average = 0
	minimum = 0
	maximum = 0
Injected packet rate average = 0.0971875
	minimum = 0.082 (at node 3)
	maximum = 0.126 (at node 2)
Accepted packet rate average = 0.09375
	minimum = 0.076 (at node 0)
	maximum = 0.114 (at node 13)
Injected flit rate average = 0.0971875
	minimum = 0.082 (at node 3)
	maximum = 0.126 (at node 2)
Accepted flit rate average= 0.09375
	minimum = 0.076 (at node 0)
	maximum = 0.114 (at node 13)
Injected packet length average = 1
Accepted packet length average = 1
Total in-flight flits = 55 (0 measured)
latency change    = 1
throughput change = 1
Class 0:
Packet latency average = 39.1469
	minimum = 7
	maximum = 154
Network latency average = 39.037
	minimum = 7
	maximum = 154
Slowest packet = 91784
Flit latency average = 39.037
	minimum = 7
	maximum = 154
Slowest flit = 91784
Fragmentation average = 0
	minimum = 0
	maximum = 0
Injected packet rate average = 0.09975
	minimum = 0.089 (at node 3)
	maximum = 0.1125 (at node 2)
Accepted packet rate average = 0.0972188
	minimum = 0.089 (at node 0)
	maximum = 0.114 (at node 13)
Injected flit rate average = 0.09975
	minimum = 0.089 (at node 3)
	maximum = 0.1125 (at node 2)
Accepted flit rate average= 0.0972188
	minimum = 0.089 (at node 0)
	maximum = 0.114 (at node 13)
Injected packet length average = 1
Accepted packet length average = 1
Total in-flight flits = 82 (0 measured)
latency change    = 0.0698624
throughput change = 0.0356798
Class 0:
Packet latency average = 40.1757
	minimum = 7
	maximum = 168
Network latency average = 39.8498
	minimum = 7
	maximum = 142
Slowest packet = 92009
Flit latency average = 39.8498
	minimum = 7
	maximum = 142
Slowest flit = 92009
Fragmentation average = 0
	minimum = 0
	maximum = 0
Injected packet rate average = 0.099625
	minimum = 0.086 (at node 11)
	maximum = 0.128 (at node 10)
Accepted packet rate average = 0.100687
	minimum = 0.083 (at node 5)
	maximum = 0.118 (at node 9)
Injected flit rate average = 0.099625
	minimum = 0.086 (at node 11)
	maximum = 0.128 (at node 10)
Accepted flit rate average= 0.100687
	minimum = 0.083 (at node 5)
	maximum = 0.118 (at node 9)
Injected packet length average = 1
Accepted packet length average = 1
Total in-flight flits = 64 (0 measured)
latency change    = 0.0256068
throughput change = 0.0344507
Warmed up ...Time used is 3000 cycles
Class 0:
Packet latency average = 38.6223
	minimum = 7
	maximum = 137
Network latency average = 38.6164
	minimum = 7
	maximum = 137
Slowest packet = 94206
Flit latency average = 39.2001
	minimum = 7
	maximum = 139
Slowest flit = 93753
Fragmentation average = 0
	minimum = 0
	maximum = 0
Injected packet rate average = 0.0993125
	minimum = 0.079 (at node 13)
	maximum = 0.11 (at node 2)
Accepted packet rate average = 0.0993125
	minimum = 0.082 (at node 4)
	maximum = 0.122 (at node 10)
Injected flit rate average = 0.0993125
	minimum = 0.079 (at node 13)
	maximum = 0.11 (at node 2)
Accepted flit rate average= 0.0993125
	minimum = 0.082 (at node 4)
	maximum = 0.122 (at node 10)
Injected packet length average = 1
Accepted packet length average = 1
Total in-flight flits = 64 (64 measured)
latency change    = 0.0402196
throughput change = 0.0138452
Class 0:
Packet latency average = 38.4125
	minimum = 7
	maximum = 137
Network latency average = 38.3955
	minimum = 7
	maximum = 137
Slowest packet = 94206
Flit latency average = 38.6908
	minimum = 7
	maximum = 139
Slowest flit = 93753
Fragmentation average = 0
	minimum = 0
	maximum = 0
Injected packet rate average = 0.0994375
	minimum = 0.089 (at node 3)
	maximum = 0.1175 (at node 4)
Accepted packet rate average = 0.0996563
	minimum = 0.087 (at node 4)
	maximum = 0.117 (at node 10)
Injected flit rate average = 0.0994375
	minimum = 0.089 (at node 3)
	maximum = 0.1175 (at node 4)
Accepted flit rate average= 0.0996563
	minimum = 0.087 (at node 4)
	maximum = 0.117 (at node 10)
Injected packet length average = 1
Accepted packet length average = 1
Total in-flight flits = 57 (57 measured)
latency change    = 0.00546216
throughput change = 0.00344936
Class 0:
Packet latency average = 38.6538
	minimum = 7
	maximum = 137
Network latency average = 38.6248
	minimum = 7
	maximum = 137
Slowest packet = 94206
Flit latency average = 38.8216
	minimum = 7
	maximum = 139
Slowest flit = 93753
Fragmentation average = 0
	minimum = 0
	maximum = 0
Injected packet rate average = 0.0981042
	minimum = 0.0936667 (at node 3)
	maximum = 0.106667 (at node 4)
Accepted packet rate average = 0.0981042
	minimum = 0.0873333 (at node 4)
	maximum = 0.112333 (at node 10)
Injected flit rate average = 0.0981042
	minimum = 0.0936667 (at node 3)
	maximum = 0.106667 (at node 4)
Accepted flit rate average= 0.0981042
	minimum = 0.0873333 (at node 4)
	maximum = 0.112333 (at node 10)
Injected packet length average = 1
Accepted packet length average = 1
Total in-flight flits = 64 (64 measured)
latency change    = 0.00624366
throughput change = 0.0158208
Draining all recorded packets ...
Draining remaining packets ...
Time taken is 6127 cycles
Class 0:
Packet latency average = 37.2344
	minimum = 7
	maximum = 111
Network latency average = 37.2316
	minimum = 7
	maximum = 111
Slowest packet = 99120
Flit latency average = 37.2316
	minimum = 7
	maximum = 111
Slowest flit = 99120
Fragmentation average = 0
	minimum = 0
	maximum = 0
Injected packet rate average = 0.09375
	minimum = 0.077 (at node 12)
	maximum = 0.111 (at node 13)
Accepted packet rate average = 0.089875
	minimum = 0.072 (at node 14)
	maximum = 0.106 (at node 8)
Injected flit rate average = 0.09375
	minimum = 0.077 (at node 12)
	maximum = 0.111 (at node 13)
Accepted flit rate average= 0.089875
	minimum = 0.072 (at node 14)
	maximum = 0.106 (at node 8)
Injected packet length average = 1
Accepted packet length average = 1
Total in-flight flits = 62 (0 measured)
latency change    = 1
throughput change = 1
Class 0:
Packet latency average = 38.0346
	minimum = 7
	maximum = 119
Network latency average = 37.9767
	minimum = 7
	maximum = 116
Slowest packet = 100277
Flit latency average = 37.9767
	minimum = 7
	maximum = 116
Slowest flit = 100277
Fragmentation average = 0
	minimum = 0
	maximum = 0
Injected packet rate average = 0.0962188
	minimum = 0.0795 (at node 12)
	maximum = 0.11 (at node 11)
Accepted packet rate average = 0.0940312
	minimum = 0.0835 (at node 14)
	maximum = 0.1035 (at node 0)
Injected flit rate average = 0.0962188
	minimum = 0.0795 (at node 12)
	maximum = 0.11 (at node 11)
Accepted flit rate average= 0.0940312
	minimum = 0.0835 (at node 14)
	maximum = 0.1035 (at node 0)
Injected packet length average = 1
Accepted packet length average = 1
Total in-flight flits = 70 (0 measured)
latency change    = 0.021039
throughput change = 0.0442007
Class 0:
Packet latency average = 38.8926
	minimum = 7
	maximum = 128
Network latency average = 38.85
	minimum = 7
	maximum = 128
Slowest packet = 102336
Flit latency average = 38.85
	minimum = 7
	maximum = 128
Slowest flit = 102336
Fragmentation average = 0
	minimum = 0
	maximum = 0
Injected packet rate average = 0.100687
	minimum = 0.084 (at node 11)
	maximum = 0.121 (at node 0)
Accepted packet rate average = 0.10125
	minimum = 0.087 (at node 14)
	maximum = 0.113 (at node 4)
Injected flit rate average = 0.100687
	minimum = 0.084 (at node 11)
	maximum = 0.121 (at node 0)
Accepted flit rate average= 0.10125
	minimum = 0.087 (at node 14)
	maximum = 0.113 (at node 4)
Injected packet length average = 1
Accepted packet length average = 1
Total in-flight flits = 61 (0 measured)
latency change    = 0.0220615
throughput change = 0.0712963
Warmed up ...Time used is 3000 cycles
Class 0:
Packet latency average = 36.9587
	minimum = 7
	maximum = 113
Network latency average = 36.9554
	minimum = 7
	maximum = 113
Slowest packet = 103826
Flit latency average = 37.1323
	minimum = 7
	maximum = 113
Slowest flit = 103826
Fragmentation average = 0
	minimum = 0
	maximum = 0
Injected packet rate average = 0.099125
	minimum = 0.089 (at node 0)
	maximum = 0.113 (at node 14)
Accepted packet rate average = 0.0991875
	minimum = 0.088 (at node 0)
	maximum = 0.112 (at node 8)
Injected flit rate average = 0.099125
	minimum = 0.089 (at node 0)
	maximum = 0.113 (at node 14)
Accepted flit rate average= 0.0991875
	minimum = 0.088 (at node 0)
	maximum = 0.112 (at node 8)
Injected packet length average = 1
Accepted packet length average = 1
Total in-flight flits = 60 (60 measured)
latency change    = 0.0523253
throughput change = 0.020794
Class 0:
Packet latency average = 38.1089
	minimum = 7
	maximum = 113
Network latency average = 38.096
	minimum = 7
	maximum = 113
Slowest packet = 103826
Flit latency average = 38.1613
	minimum = 7
	maximum = 113
Slowest flit = 103826
Fragmentation average = 0
	minimum = 0
	maximum = 0
Injected packet rate average = 0.101281
	minimum = 0.089 (at node 15)
	maximum = 0.109 (at node 11)
Accepted packet rate average = 0.101156
	minimum = 0.0895 (at node 5)
	maximum = 0.111 (at node 10)
Injected flit rate average = 0.101281
	minimum = 0.089 (at node 15)
	maximum = 0.109 (at node 11)
Accepted flit rate average= 0.101156
	minimum = 0.0895 (at node 5)
	maximum = 0.111 (at node 10)
Injected packet length average = 1
Accepted packet length average = 1
Total in-flight flits = 65 (65 measured)
latency change    = 0.0301826
throughput change = 0.0194625
Class 0:
Packet latency average = 39.3405
	minimum = 7
	maximum = 158
Network latency average = 39.3193
	minimum = 7
	maximum = 158
Slowest packet = 107064
Flit latency average = 39.3473
	minimum = 7
	maximum = 158
Slowest flit = 107064
Fragmentation average = 0
	minimum = 0
	maximum = 0
Injected packet rate average = 0.101833
	minimum = 0.0936667 (at node 10)
	maximum = 0.109333 (at node 14)
Accepted packet rate average = 0.101625
	minimum = 0.089 (at node 9)
	maximum = 0.113667 (at node 10)
Injected flit rate average = 0.101833
	minimum = 0.0936667 (at node 10)
	maximum = 0.109333 (at node 14)
Accepted flit rate average= 0.101625
	minimum = 0.089 (at node 9)
	maximum = 0.113667 (at node 10)
Injected packet length average = 1
Accepted packet length average = 1
Total in-flight flits = 71 (71 measured)
latency change    = 0.0313041
throughput change = 0.00461255
Class 0:
Packet latency average = 39.342
	minimum = 7
	maximum = 158
Network latency average = 39.2968
	minimum = 7
	maximum = 158
Slowest packet = 107064
Flit latency average = 39.318
	minimum = 7
	maximum = 158
Slowest flit = 107064
Fragmentation average = 0
	minimum = 0
	maximum = 0
Injected packet rate average = 0.101391
	minimum = 0.092 (at node 10)
	maximum = 0.10925 (at node 11)
Accepted packet rate average = 0.101359
	minimum = 0.09 (at node 9)
	maximum = 0.10875 (at node 10)
Injected flit rate average = 0.101391
	minimum = 0.092 (at node 10)
	maximum = 0.10925 (at node 11)
Accepted flit rate average= 0.101359
	minimum = 0.09 (at node 9)
	maximum = 0.10875 (at node 10)
Injected packet length average = 1
Accepted packet length average = 1
Total in-flight flits = 63 (63 measured)
latency change    = 4.03401e-05
throughput change = 0.00262063
Draining all recorded packets ...
Draining remaining packets ...
Time taken is 7145 cycles
Class 0:
Packet latency average = 40.322
	minimum = 7
	maximum = 138
Network latency average = 40.1154
	minimum = 7
	maximum = 138
Slowest packet = 110419
Flit latency average = 40.1154
	minimum = 7
	maximum = 138
Slowest flit = 110419
Fragmentation average = 0
	minimum = 0
	maximum = 0
Injected packet rate average = 0.099375
	minimum = 0.086 (at node 1)
	maximum = 0.123 (at node 11)
Accepted packet rate average = 0.0953125
	minimum = 0.083 (at node 7)
	maximum = 0.127 (at node 3)
Injected flit rate average = 0.099375
	minimum = 0.086 (at node 1)
	maximum = 0.123 (at node 11)
Accepted flit rate average= 0.0953125
	minimum = 0.083 (at node 7)
	maximum = 0.127 (at node 3)
Injected packet length average = 1
Accepted packet length average = 1
Total in-flight flits = 65 (0 measured)
latency change    = 1
throughput change = 1
Class 0:
Packet latency average = 38.8357
	minimum = 7
	maximum = 138
Network latency average = 38.7332
	minimum = 7
	maximum = 138
Slowest packet = 110419
Flit latency average = 38.7332
	minimum = 7
	maximum = 138
Slowest flit = 110419
Fragmentation average = 0
	minimum = 0
	maximum = 0
Injected packet rate average = 0.0982813
	minimum = 0.0865 (at node 5)
	maximum = 0.115 (at node 11)
Accepted packet rate average = 0.0964062
	minimum = 0.086 (at node 9)
	maximum = 0.1115 (at node 3)
Injected flit rate average = 0.0982813
	minimum = 0.0865 (at node 5)
	maximum = 0.115 (at node 11)
Accepted flit rate average= 0.0964062
	minimum = 0.086 (at node 9)
	maximum = 0.1115 (at node 3)
Injected packet length average = 1
Accepted packet length average = 1
Total in-flight flits = 60 (0 measured)
latency change    = 0.0382718
throughput change = 0.0113452
Class 0:
Packet latency average = 37.8589
	minimum = 7
	maximum = 123
Network latency average = 37.8538
	minimum = 7
	maximum = 123
Slowest packet = 114457
Flit latency average = 37.8538
	minimum = 7
	maximum = 123
Slowest flit = 114457
Fragmentation average = 0
	minimum = 0
	maximum = 0
Injected packet rate average = 0.099125
	minimum = 0.072 (at node 7)
	maximum = 0.12 (at node 0)
Accepted packet rate average = 0.0991875
	minimum = 0.082 (at node 11)
	maximum = 0.121 (at node 2)
Injected flit rate average = 0.099125
	minimum = 0.072 (at node 7)
	maximum = 0.12 (at node 0)
Accepted flit rate average= 0.0991875
	minimum = 0.082 (at node 11)
	maximum = 0.121 (at node 2)
Injected packet length average = 1
Accepted packet length average = 1
Total in-flight flits = 59 (0 measured)
latency change    = 0.0258012
throughput change = 0.0280403
Warmed up ...Time used is 3000 cycles
Class 0:
Packet latency average = 38.7129
	minimum = 7
	maximum = 137
Network latency average = 38.6815
	minimum = 7
	maximum = 137
Slowest packet = 115956
Flit latency average = 38.9288
	minimum = 7
	maximum = 137
Slowest flit = 115956
Fragmentation average = 0
	minimum = 0
	maximum = 0
Injected packet rate average = 0.0970625
	minimum = 0.08 (at node 5)
	maximum = 0.113 (at node 1)
Accepted packet rate average = 0.0975
	minimum = 0.075 (at node 11)
	maximum = 0.115 (at node 0)
Injected flit rate average = 0.0970625
	minimum = 0.08 (at node 5)
	maximum = 0.113 (at node 1)
Accepted flit rate average= 0.0975
	minimum = 0.075 (at node 11)
	maximum = 0.115 (at node 0)
Injected packet length average = 1
Accepted packet length average = 1
Total in-flight flits = 52 (52 measured)
latency change    = 0.02206
throughput change = 0.0173077
Class 0:
Packet latency average = 38.6401
	minimum = 7
	maximum = 137
Network latency average = 38.5931
	minimum = 7
	maximum = 137
Slowest packet = 115956
Flit latency average = 38.7183
	minimum = 7
	maximum = 137
Slowest flit = 115956
Fragmentation average = 0
	minimum = 0
	maximum = 0
Injected packet rate average = 0.09775
	minimum = 0.085 (at node 5)
	maximum = 0.1175 (at node 7)
Accepted packet rate average = 0.097625
	minimum = 0.083 (at node 12)
	maximum = 0.1155 (at node 6)
Injected flit rate average = 0.09775
	minimum = 0.085 (at node 5)
	maximum = 0.1175 (at node 7)
Accepted flit rate average= 0.097625
	minimum = 0.083 (at node 12)
	maximum = 0.1155 (at node 6)
Injected packet length average = 1
Accepted packet length average = 1
Total in-flight flits = 63 (63 measured)
latency change    = 0.00188218
throughput change = 0.00128041
Class 0:
Packet latency average = 38.4893
	minimum = 7
	maximum = 137
Network latency average = 38.4553
	minimum = 7
	maximum = 137
Slowest packet = 115956
Flit latency average = 38.5402
	minimum = 7
	maximum = 137
Slowest flit = 115956
Fragmentation average = 0
	minimum = 0
	maximum = 0
Injected packet rate average = 0.0985
	minimum = 0.0866667 (at node 5)
	maximum = 0.112 (at node 7)
Accepted packet rate average = 0.0980417
	minimum = 0.0826667 (at node 12)
	maximum = 0.107333 (at node 6)
Injected flit rate average = 0.0985
	minimum = 0.0866667 (at node 5)
	maximum = 0.112 (at node 7)
Accepted flit rate average= 0.0980417
	minimum = 0.0826667 (at node 12)
	maximum = 0.107333 (at node 6)
Injected packet length average = 1
Accepted packet length average = 1
Total in-flight flits = 81 (81 measured)
latency change    = 0.00391751
throughput change = 0.00424989
Draining all recorded packets ...
Draining remaining packets ...
Time taken is 6125 cycles
Class 0:
Packet latency average = 39.5703
	minimum = 7
	maximum = 131
Network latency average = 39.5663
	minimum = 7
	maximum = 131
Slowest packet = 119807
Flit latency average = 39.5663
	minimum = 7
	maximum = 131
Slowest flit = 119807
Fragmentation average = 0
	minimum = 0
	maximum = 0
Injected packet rate average = 0.0974375
	minimum = 0.086 (at node 11)
	maximum = 0.122 (at node 14)
Accepted packet rate average = 0.0938125
	minimum = 0.066 (at node 9)
	maximum = 0.125 (at node 11)
Injected flit rate average = 0.0974375
	minimum = 0.086 (at node 11)
	maximum = 0.122 (at node 14)
Accepted flit rate average= 0.0938125
	minimum = 0.066 (at node 9)
	maximum = 0.125 (at node 11)
Injected packet length average = 1
Accepted packet length average = 1
Total in-flight flits = 58 (0 measured)
latency change    = 1
throughput change = 1
Class 0:
Packet latency average = 39.0443
	minimum = 7
	maximum = 131
Network latency average = 39.0386
	minimum = 7
	maximum = 131
Slowest packet = 119807
Flit latency average = 39.0386
	minimum = 7
	maximum = 131
Slowest flit = 119807
Fragmentation average = 0
	minimum = 0
	maximum = 0
Injected packet rate average = 0.0988125
	minimum = 0.0865 (at node 11)
	maximum = 0.121 (at node 14)
Accepted packet rate average = 0.09725
	minimum = 0.083 (at node 9)
	maximum = 0.1145 (at node 10)
Injected flit rate average = 0.0988125
	minimum = 0.0865 (at node 11)
	maximum = 0.121 (at node 14)
Accepted flit rate average= 0.09725
	minimum = 0.083 (at node 9)
	maximum = 0.1145 (at node 10)
Injected packet length average = 1
Accepted packet length average = 1
Total in-flight flits = 50 (0 measured)
latency change    = 0.0134704
throughput change = 0.035347
Class 0:
Packet latency average = 37.0392
	minimum = 7
	maximum = 102
Network latency average = 37.0341
	minimum = 7
	maximum = 102
Slowest packet = 124000
Flit latency average = 37.0341
	minimum = 7
	maximum = 102
Slowest flit = 124000
Fragmentation average = 0
	minimum = 0
	maximum = 0
Injected packet rate average = 0.0975625
	minimum = 0.082 (at node 5)
	maximum = 0.108 (at node 11)
Accepted packet rate average = 0.0971875
	minimum = 0.083 (at node 2)
	maximum = 0.105 (at node 5)
Injected flit rate average = 0.0975625
	minimum = 0.082 (at node 5)
	maximum = 0.108 (at node 11)
Accepted flit rate average= 0.0971875
	minimum = 0.083 (at node 2)
	maximum = 0.105 (at node 5)
Injected packet length average = 1
Accepted packet length average = 1
Total in-flight flits = 56 (0 measured)
latency change    = 0.0541349
throughput change = 0.000643087
Warmed up ...Time used is 3000 cycles
Class 0:
Packet latency average = 40.7123
	minimum = 7
	maximum = 130
Network latency average = 40.696
	minimum = 7
	maximum = 128
Slowest packet = 125493
Flit latency average = 40.7907
	minimum = 7
	maximum = 128
Slowest flit = 125493
Fragmentation average = 0
	minimum = 0
	maximum = 0
Injected packet rate average = 0.102688
	minimum = 0.077 (at node 8)
	maximum = 0.118 (at node 14)
Accepted packet rate average = 0.103
	minimum = 0.077 (at node 12)
	maximum = 0.127 (at node 7)
Injected flit rate average = 0.102688
	minimum = 0.077 (at node 8)
	maximum = 0.118 (at node 14)
Accepted flit rate average= 0.103
	minimum = 0.077 (at node 12)
	maximum = 0.127 (at node 7)
Injected packet length average = 1
Accepted packet length average = 1
Total in-flight flits = 51 (51 measured)
latency change    = 0.0902205
throughput change = 0.056432
Class 0:
Packet latency average = 40.0352
	minimum = 7
	maximum = 130
Network latency average = 39.9698
	minimum = 7
	maximum = 128
Slowest packet = 125493
Flit latency average = 40.0306
	minimum = 7
	maximum = 128
Slowest flit = 125493
Fragmentation average = 0
	minimum = 0
	maximum = 0
Injected packet rate average = 0.101312
	minimum = 0.0895 (at node 7)
	maximum = 0.114 (at node 2)
Accepted packet rate average = 0.101062
	minimum = 0.0865 (at node 12)
	maximum = 0.11 (at node 1)
Injected flit rate average = 0.101312
	minimum = 0.0895 (at node 7)
	maximum = 0.114 (at node 2)
Accepted flit rate average= 0.101062
	minimum = 0.0865 (at node 12)
	maximum = 0.11 (at node 1)
Injected packet length average = 1
Accepted packet length average = 1
Total in-flight flits = 64 (64 measured)
latency change    = 0.0169118
throughput change = 0.0191713
Class 0:
Packet latency average = 39.8087
	minimum = 7
	maximum = 165
Network latency average = 39.7471
	minimum = 7
	maximum = 165
Slowest packet = 128734
Flit latency average = 39.791
	minimum = 7
	maximum = 165
Slowest flit = 128734
Fragmentation average = 0
	minimum = 0
	maximum = 0
Injected packet rate average = 0.10025
	minimum = 0.0873333 (at node 7)
	maximum = 0.11 (at node 12)
Accepted packet rate average = 0.0992917
	minimum = 0.0896667 (at node 12)
	maximum = 0.108333 (at node 1)
Injected flit rate average = 0.10025
	minimum = 0.0873333 (at node 7)
	maximum = 0.11 (at node 12)
Accepted flit rate average= 0.0992917
	minimum = 0.0896667 (at node 12)
	maximum = 0.108333 (at node 1)
Injected packet length average = 1
Accepted packet length average = 1
Total in-flight flits = 107 (107 measured)
latency change    = 0.00569065
throughput change = 0.0178347
Class 0:
Packet latency average = 41.7175
	minimum = 7
	maximum = 224
Network latency average = 41.0584
	minimum = 7
	maximum = 192
Slowest packet = 128787
Flit latency average = 41.0796
	minimum = 7
	maximum = 192
Slowest flit = 128787
Fragmentation average = 0
	minimum = 0
	maximum = 0
Injected packet rate average = 0.100391
	minimum = 0.08925 (at node 7)
	maximum = 0.109 (at node 12)
Accepted packet rate average = 0.100094
	minimum = 0.095 (at node 13)
	maximum = 0.109 (at node 7)
Injected flit rate average = 0.100391
	minimum = 0.08925 (at node 7)
	maximum = 0.109 (at node 12)
Accepted flit rate average= 0.100094
	minimum = 0.095 (at node 13)
	maximum = 0.109 (at node 7)
Injected packet length average = 1
Accepted packet length average = 1
Total in-flight flits = 75 (75 measured)
latency change    = 0.0457548
throughput change = 0.00801332
Draining all recorded packets ...
Draining remaining packets ...
Time taken is 7130 cycles
Class 0:
Packet latency average = 36.9615
	minimum = 7
	maximum = 110
Network latency average = 36.9569
	minimum = 7
	maximum = 110
Slowest packet = 131405
Flit latency average = 36.9569
	minimum = 7
	maximum = 110
Slowest flit = 131405
Fragmentation average = 0
	minimum = 0
	maximum = 0
Injected packet rate average = 0.0994375
	minimum = 0.085 (at node 13)
	maximum = 0.118 (at node 8)
Accepted packet rate average = 0.09575
	minimum = 0.079 (at node 13)
	maximum = 0.109 (at node 6)
Injected flit rate average = 0.0994375
	minimum = 0.085 (at node 13)
	maximum = 0.118 (at node 8)
Accepted flit rate average= 0.09575
	minimum = 0.079 (at node 13)
	maximum = 0.109 (at node 6)
Injected packet length average = 1
Accepted packet length average = 1
Total in-flight flits = 59 (0 measured)
latency change    = 1
throughput change = 1
Class 0:
Packet latency average = 39.0463
	minimum = 7
	maximum = 141
Network latency average = 39.0061
	minimum = 7
	maximum = 141
Slowest packet = 133124
Flit latency average = 39.0061
	minimum = 7
	maximum = 141
Slowest flit = 133124
Fragmentation average = 0
	minimum = 0
	maximum = 0
Injected packet rate average = 0.0995
	minimum = 0.09 (at node 15)
	maximum = 0.1105 (at node 8)
Accepted packet rate average = 0.0977813
	minimum = 0.09 (at node 15)
	maximum = 0.1125 (at node 3)
Injected flit rate average = 0.0995
	minimum = 0.09 (at node 15)
	maximum = 0.1105 (at node 8)
Accepted flit rate average= 0.0977813
	minimum = 0.09 (at node 15)
	maximum = 0.1125 (at node 3)
Injected packet length average = 1
Accepted packet length average = 1
Total in-flight flits = 55 (0 measured)
latency change    = 0.0533943
throughput change = 0.0207734
Class 0:
Packet latency average = 39.9026
	minimum = 7
	maximum = 133
Network latency average = 39.8385
	minimum = 7
	maximum = 133
Slowest packet = 134816
Flit latency average = 39.8385
	minimum = 7
	maximum = 133
Slowest flit = 134816
Fragmentation average = 0
	minimum = 0
	maximum = 0
Injected packet rate average = 0.102313
	minimum = 0.084 (at node 11)
	maximum = 0.12 (at node 3)
Accepted packet rate average = 0.101375
	minimum = 0.082 (at node 1)
	maximum = 0.115 (at node 11)
Injected flit rate average = 0.102313
	minimum = 0.084 (at node 11)
	maximum = 0.12 (at node 3)
Accepted flit rate average= 0.101375
	minimum = 0.082 (at node 1)
	maximum = 0.115 (at node 11)
Injected packet length average = 1
Accepted packet length average = 1
Total in-flight flits = 70 (0 measured)
latency change    = 0.0214585
throughput change = 0.0354501
Warmed up ...Time used is 3000 cycles
Class 0:
Packet latency average = 41.929
	minimum = 7
	maximum = 138
Network latency average = 41.5226
	minimum = 7
	maximum = 138
Slowest packet = 136868
Flit latency average = 41.9795
	minimum = 7
	maximum = 138
Slowest flit = 136868
Fragmentation average = 0
	minimum = 0
	maximum = 0
Injected packet rate average = 0.103125
	minimum = 0.09 (at node 10)
	maximum = 0.121 (at node 2)
Accepted packet rate average = 0.103875
	minimum = 0.083 (at node 9)
	maximum = 0.118 (at node 5)
Injected flit rate average = 0.103125
	minimum = 0.09 (at node 10)
	maximum = 0.121 (at node 2)
Accepted flit rate average= 0.103875
	minimum = 0.083 (at node 9)
	maximum = 0.118 (at node 5)
Injected packet length average = 1
Accepted packet length average = 1
Total in-flight flits = 58 (58 measured)
latency change    = 0.04833
throughput change = 0.0240674
Class 0:
Packet latency average = 40.0088
	minimum = 7
	maximum = 138
Network latency average = 39.7929
	minimum = 7
	maximum = 138
Slowest packet = 136868
Flit latency average = 40.0628
	minimum = 7
	maximum = 138
Slowest flit = 136868
Fragmentation average = 0
	minimum = 0
	maximum = 0
Injected packet rate average = 0.102188
	minimum = 0.092 (at node 13)
	maximum = 0.1155 (at node 2)
Accepted packet rate average = 0.101938
	minimum = 0.084 (at node 6)
	maximum = 0.121 (at node 2)
Injected flit rate average = 0.102188
	minimum = 0.092 (at node 13)
	maximum = 0.1155 (at node 2)
Accepted flit rate average= 0.101938
	minimum = 0.084 (at node 6)
	maximum = 0.121 (at node 2)
Injected packet length average = 1
Accepted packet length average = 1
Total in-flight flits = 78 (78 measured)
latency change    = 0.0479957
throughput change = 0.0190067
Class 0:
Packet latency average = 40.1837
	minimum = 7
	maximum = 172
Network latency average = 39.8755
	minimum = 7
	maximum = 172
Slowest packet = 139115
Flit latency average = 40.0547
	minimum = 7
	maximum = 172
Slowest flit = 139115
Fragmentation average = 0
	minimum = 0
	maximum = 0
Injected packet rate average = 0.101437
	minimum = 0.0936667 (at node 5)
	maximum = 0.109 (at node 2)
Accepted packet rate average = 0.101688
	minimum = 0.0866667 (at node 9)
	maximum = 0.117667 (at node 2)
Injected flit rate average = 0.101437
	minimum = 0.0936667 (at node 5)
	maximum = 0.109 (at node 2)
Accepted flit rate average= 0.101688
	minimum = 0.0866667 (at node 9)
	maximum = 0.117667 (at node 2)
Injected packet length average = 1
Accepted packet length average = 1
Total in-flight flits = 58 (58 measured)
latency change    = 0.00435434
throughput change = 0.00245851
Draining all recorded packets ...
Draining remaining packets ...
Time taken is 6139 cycles
Class 0:
Packet latency average = 38.3038
	minimum = 7
	maximum = 120
Network latency average = 38.2805
	minimum = 7
	maximum = 115
Slowest packet = 141242
Flit latency average = 38.2805
	minimum = 7
	maximum = 115
Slowest flit = 141242
Fragmentation average = 0
	minimum = 0
	maximum = 0
Injected packet rate average = 0.0976875
	minimum = 0.084 (at node 13)
	maximum = 0.111 (at node 5)
Accepted packet rate average = 0.0938125
	minimum = 0.078 (at node 15)
	maximum = 0.106 (at node 3)
Injected flit rate average = 0.0976875
	minimum = 0.084 (at node 13)
	maximum = 0.111 (at node 5)
Accepted flit rate average= 0.0938125
	minimum = 0.078 (at node 15)
	maximum = 0.106 (at node 3)
Injected packet length average = 1
Accepted packet length average = 1
Total in-flight flits = 62 (0 measured)
latency change    = 1
throughput change = 1
Class 0:
Packet latency average = 38.8168
	minimum = 7
	maximum = 145
Network latency average = 38.757
	minimum = 7
	maximum = 145
Slowest packet = 143007
Flit latency average = 38.757
	minimum = 7
	maximum = 145
Slowest flit = 143007
Fragmentation average = 0
	minimum = 0
	maximum = 0
Injected packet rate average = 0.0997813
	minimum = 0.0925 (at node 2)
	maximum = 0.11 (at node 11)
Accepted packet rate average = 0.09775
	minimum = 0.0885 (at node 14)
	maximum = 0.107 (at node 8)
Injected flit rate average = 0.0997813
	minimum = 0.0925 (at node 2)
	maximum = 0.11 (at node 11)
Accepted flit rate average= 0.09775
	minimum = 0.0885 (at node 14)
	maximum = 0.107 (at node 8)
Injected packet length average = 1
Accepted packet length average = 1
Total in-flight flits = 65 (0 measured)
latency change    = 0.0132164
throughput change = 0.0402813
Class 0:
Packet latency average = 39.2866
	minimum = 7
	maximum = 136
Network latency average = 39.0412
	minimum = 7
	maximum = 136
Slowest packet = 144255
Flit latency average = 39.0412
	minimum = 7
	maximum = 136
Slowest flit = 144255
Fragmentation average = 0
	minimum = 0
	maximum = 0
Injected packet rate average = 0.10125
	minimum = 0.089 (at node 4)
	maximum = 0.127 (at node 2)
Accepted packet rate average = 0.101625
	minimum = 0.08 (at node 1)
	maximum = 0.119 (at node 8)
Injected flit rate average = 0.10125
	minimum = 0.089 (at node 4)
	maximum = 0.127 (at node 2)
Accepted flit rate average= 0.101625
	minimum = 0.08 (at node 1)
	maximum = 0.119 (at node 8)
Injected packet length average = 1
Accepted packet length average = 1
Total in-flight flits = 59 (0 measured)
latency change    = 0.0119577
throughput change = 0.0381304
Warmed up ...Time used is 3000 cycles
Class 0:
Packet latency average = 38.2104
	minimum = 7
	maximum = 115
Network latency average = 38.2104
	minimum = 7
	maximum = 115
Slowest packet = 145791
Flit latency average = 38.4785
	minimum = 7
	maximum = 115
Slowest flit = 145791
Fragmentation average = 0
	minimum = 0
	maximum = 0
Injected packet rate average = 0.0973125
	minimum = 0.084 (at node 7)
	maximum = 0.118 (at node 12)
Accepted packet rate average = 0.0975625
	minimum = 0.089 (at node 1)
	maximum = 0.117 (at node 4)
Injected flit rate average = 0.0973125
	minimum = 0.084 (at node 7)
	maximum = 0.118 (at node 12)
Accepted flit rate average= 0.0975625
	minimum = 0.089 (at node 1)
	maximum = 0.117 (at node 4)
Injected packet length average = 1
Accepted packet length average = 1
Total in-flight flits = 55 (55 measured)
latency change    = 0.0281653
throughput change = 0.04164
Class 0:
Packet latency average = 38.2034
	minimum = 7
	maximum = 126
Network latency average = 38.1566
	minimum = 7
	maximum = 117
Slowest packet = 148064
Flit latency average = 38.29
	minimum = 7
	maximum = 117
Slowest flit = 148064
Fragmentation average = 0
	minimum = 0
[...]
Accepted packet rate average = 0.101187
	minimum = 0.086 (at node 5)
	maximum = 0.123 (at node 10)
Injected flit rate average = 0.101562
	minimum = 0.081 (at node 5)
	maximum = 0.115 (at node 1)
Accepted flit rate average= 0.101187
	minimum = 0.086 (at node 5)
	maximum = 0.123 (at node 10)
Injected packet length average = 1
Accepted packet length average = 1
Total in-flight flits = 74 (74 measured)
latency change    = 0.0453244
throughput change = 0.0222359
Class 0:
Packet latency average = 39.0016
	minimum = 7
	maximum = 130
Network latency average = 38.7782
	minimum = 7
	maximum = 130
Slowest packet = 1043841
Flit latency average = 38.9864
	minimum = 7
	maximum = 130
Slowest flit = 1043841
Fragmentation average = 0
	minimum = 0
	maximum = 0
Injected packet rate average = 0.0984375
	minimum = 0.0905 (at node 3)
	maximum = 0.1085 (at node 1)
Accepted packet rate average = 0.098625
	minimum = 0.082 (at node 5)
	maximum = 0.112 (at node 10)
Injected flit rate average = 0.0984375
	minimum = 0.0905 (at node 3)
	maximum = 0.1085 (at node 1)
Accepted flit rate average= 0.098625
	minimum = 0.082 (at node 5)
	maximum = 0.112 (at node 10)
Injected packet length average = 1
Accepted packet length average = 1
Total in-flight flits = 62 (62 measured)
latency change    = 0.000404828
throughput change = 0.0259823
Class 0:
Packet latency average = 38.6778
	minimum = 7
	maximum = 130
Network latency average = 38.5164
	minimum = 7
	maximum = 130
Slowest packet = 1043841
Flit latency average = 38.6601
	minimum = 7
	maximum = 130
Slowest flit = 1043841
Fragmentation average = 0
	minimum = 0
	maximum = 0
Injected packet rate average = 0.0978542
	minimum = 0.0886667 (at node 9)
	maximum = 0.110667 (at node 1)
Accepted packet rate average = 0.097875
	minimum = 0.0836667 (at node 5)
	maximum = 0.108667 (at node 7)
Injected flit rate average = 0.0978542
	minimum = 0.0886667 (at node 9)
	maximum = 0.110667 (at node 1)
Accepted flit rate average= 0.097875
	minimum = 0.0836667 (at node 5)
	maximum = 0.108667 (at node 7)
Injected packet length average = 1
Accepted packet length average = 1
Total in-flight flits = 67 (67 measured)
latency change    = 0.00837343
throughput change = 0.00766284
Draining all recorded packets ...
Draining remaining packets ...
Time taken is 6108 cycles
Class 0:
Packet latency average = 39.073
	minimum = 7
	maximum = 122
Network latency average = 38.9733
	minimum = 7
	maximum = 122
Slowest packet = 1049844
Flit latency average = 38.9733
	minimum = 7
	maximum = 122
Slowest flit = 1049844
Fragmentation average = 0
	minimum = 0
	maximum = 0
Injected packet rate average = 0.101375
	minimum = 0.081 (at node 6)
	maximum = 0.129 (at node 8)
Accepted packet rate average = 0.095875
	minimum = 0.083 (at node 10)
	maximum = 0.111 (at node 1)
Injected flit rate average = 0.101375
	minimum = 0.081 (at node 6)
	maximum = 0.129 (at node 8)
Accepted flit rate average= 0.095875
	minimum = 0.083 (at node 10)
	maximum = 0.111 (at node 1)
Injected packet length average = 1
Accepted packet length average = 1
Total in-flight flits = 89 (0 measured)
latency change    = 1
throughput change = 1
Class 0:
Packet latency average = 39.7113
	minimum = 7
	maximum = 122
Network latency average = 39.4631
	minimum = 7
	maximum = 122
Slowest packet = 1049844
Flit latency average = 39.4631
	minimum = 7
	maximum = 122
Slowest flit = 1049844
Fragmentation average = 0
	minimum = 0
	maximum = 0
Injected packet rate average = 0.100094
	minimum = 0.088 (at node 6)
	maximum = 0.119 (at node 8)
Accepted packet rate average = 0.0987187
	minimum = 0.087 (at node 7)
	maximum = 0.1075 (at node 5)
Injected flit rate average = 0.100094
	minimum = 0.088 (at node 6)
	maximum = 0.119 (at node 8)
Accepted flit rate average= 0.0987187
	minimum = 0.087 (at node 7)
	maximum = 0.1075 (at node 5)
Injected packet length average = 1
Accepted packet length average = 1
Total in-flight flits = 44 (0 measured)
latency change    = 0.0160732
throughput change = 0.0288066
Class 0:
Packet latency average = 38.8508
	minimum = 7
	maximum = 109
Network latency average = 38.8088
	minimum = 7
	maximum = 109
Slowest packet = 1052409
Flit latency average = 38.8088
	minimum = 7
	maximum = 109
Slowest flit = 1052409
Fragmentation average = 0
	minimum = 0
	maximum = 0
Injected packet rate average = 0.0976875
	minimum = 0.074 (at node 1)
	maximum = 0.122 (at node 9)
Accepted packet rate average = 0.09675
	minimum = 0.089 (at node 1)
	maximum = 0.107 (at node 11)
Injected flit rate average = 0.0976875
	minimum = 0.074 (at node 1)
	maximum = 0.122 (at node 9)
Accepted flit rate average= 0.09675
	minimum = 0.089 (at node 1)
	maximum = 0.107 (at node 11)
Injected packet length average = 1
Accepted packet length average = 1
Total in-flight flits = 59 (0 measured)
latency change    = 0.0221495
throughput change = 0.0203488
Warmed up ...Time used is 3000 cycles
Class 0:
Packet latency average = 38.2478
	minimum = 7
	maximum = 121
Network latency average = 38.2433
	minimum = 7
	maximum = 121
Slowest packet = 1054666
Flit latency average = 38.4991
	minimum = 7
	maximum = 121
Slowest flit = 1054666
Fragmentation average = 0
	minimum = 0
	maximum = 0
Injected packet rate average = 0.102875
	minimum = 0.086 (at node 8)
	maximum = 0.114 (at node 11)
Accepted packet rate average = 0.101312
	minimum = 0.083 (at node 10)
	maximum = 0.12 (at node 2)
Injected flit rate average = 0.102875
	minimum = 0.086 (at node 8)
	maximum = 0.114 (at node 11)
Accepted flit rate average= 0.101312
	minimum = 0.083 (at node 10)
	maximum = 0.12 (at node 2)
Injected packet length average = 1
Accepted packet length average = 1
Total in-flight flits = 85 (85 measured)
latency change    = 0.015766
throughput change = 0.0450339
Class 0:
Packet latency average = 38.6556
	minimum = 7
	maximum = 162
Network latency average = 38.614
	minimum = 7
	maximum = 162
Slowest packet = 1054839
Flit latency average = 38.7373
	minimum = 7
	maximum = 162
Slowest flit = 1054839
Fragmentation average = 0
	minimum = 0
	maximum = 0
Injected packet rate average = 0.0998437
	minimum = 0.0895 (at node 13)
	maximum = 0.1085 (at node 1)
Accepted packet rate average = 0.0995625
	minimum = 0.087 (at node 4)
	maximum = 0.106 (at node 0)
Injected flit rate average = 0.0998437
	minimum = 0.0895 (at node 13)
	maximum = 0.1085 (at node 1)
Accepted flit rate average= 0.0995625
	minimum = 0.087 (at node 4)
	maximum = 0.106 (at node 0)
Injected packet length average = 1
Accepted packet length average = 1
Total in-flight flits = 68 (68 measured)
latency change    = 0.0105501
throughput change = 0.0175769
Class 0:
Packet latency average = 39.6059
	minimum = 7
	maximum = 162
Network latency average = 39.5579
	minimum = 7
	maximum = 162
Slowest packet = 1054839
Flit latency average = 39.6282
	minimum = 7
	maximum = 162
Slowest flit = 1054839
Fragmentation average = 0
	minimum = 0
	maximum = 0
Injected packet rate average = 0.0998333
	minimum = 0.0926667 (at node 9)
	maximum = 0.105333 (at node 3)
Accepted packet rate average = 0.0999167
	minimum = 0.086 (at node 4)
	maximum = 0.108333 (at node 0)
Injected flit rate average = 0.0998333
	minimum = 0.0926667 (at node 9)
	maximum = 0.105333 (at node 3)
Accepted flit rate average= 0.0999167
	minimum = 0.086 (at node 4)
	maximum = 0.108333 (at node 0)
Injected packet length average = 1
Accepted packet length average = 1
Total in-flight flits = 55 (55 measured)
latency change    = 0.0239936
throughput change = 0.00354462
Draining all recorded packets ...
Draining remaining packets ...
Time taken is 6089 cycles
Class 0:
Packet latency average = 38.7718
	minimum = 7
	maximum = 116
Network latency average = 38.7498
	minimum = 7
	maximum = 116
Slowest packet = 1058358
Flit latency average = 38.7498
	minimum = 7
	maximum = 116
Slowest flit = 1058358
Fragmentation average = 0
	minimum = 0
	maximum = 0
Injected packet rate average = 0.10075
	minimum = 0.083 (at node 8)
	maximum = 0.11 (at node 11)
Accepted packet rate average = 0.0966875
	minimum = 0.078 (at node 3)
	maximum = 0.127 (at node 12)
Injected flit rate average = 0.10075
	minimum = 0.083 (at node 8)
	maximum = 0.11 (at node 11)
Accepted flit rate average= 0.0966875
	minimum = 0.078 (at node 3)
	maximum = 0.127 (at node 12)
Injected packet length average = 1
Accepted packet length average = 1
Total in-flight flits = 65 (0 measured)
latency change    = 1
throughput change = 1
Class 0:
Packet latency average = 39.3571
	minimum = 7
	maximum = 130
Network latency average = 39.3408
	minimum = 7
	maximum = 130
Slowest packet = 1060018
Flit latency average = 39.3408
	minimum = 7
	maximum = 130
Slowest flit = 1060018
Fragmentation average = 0
	minimum = 0
	maximum = 0
Injected packet rate average = 0.10175
	minimum = 0.0915 (at node 8)
	maximum = 0.111 (at node 0)
Accepted packet rate average = 0.0998437
	minimum = 0.0845 (at node 15)
	maximum = 0.119 (at node 12)
Injected flit rate average = 0.10175
	minimum = 0.0915 (at node 8)
	maximum = 0.111 (at node 0)
Accepted flit rate average= 0.0998437
	minimum = 0.0845 (at node 15)
	maximum = 0.119 (at node 12)
Injected packet length average = 1
Accepted packet length average = 1
Total in-flight flits = 61 (0 measured)
latency change    = 0.0148716
throughput change = 0.0316119
Class 0:
Packet latency average = 39.746
	minimum = 7
	maximum = 134
Network latency average = 39.6801
	minimum = 7
	maximum = 124
Slowest packet = 1062038
Flit latency average = 39.6801
	minimum = 7
	maximum = 124
Slowest flit = 1062038
Fragmentation average = 0
	minimum = 0
	maximum = 0
Injected packet rate average = 0.0979375
	minimum = 0.076 (at node 8)
	maximum = 0.112 (at node 7)
Accepted packet rate average = 0.0976875
	minimum = 0.084 (at node 1)
	maximum = 0.114 (at node 12)
Injected flit rate average = 0.0979375
	minimum = 0.076 (at node 8)
	maximum = 0.112 (at node 7)
Accepted flit rate average= 0.0976875
	minimum = 0.084 (at node 1)
	maximum = 0.114 (at node 12)
Injected packet length average = 1
Accepted packet length average = 1
Total in-flight flits = 65 (0 measured)
latency change    = 0.00978415
throughput change = 0.0220729
Warmed up ...Time used is 3000 cycles
Class 0:
Packet latency average = 40.1178
	minimum = 7
	maximum = 121
Network latency average = 39.9955
	minimum = 7
	maximum = 121
Slowest packet = 1063718
Flit latency average = 40.4205
	minimum = 7
	maximum = 121
Slowest flit = 1063718
Fragmentation average = 0
	minimum = 0
	maximum = 0
Injected packet rate average = 0.100625
	minimum = 0.077 (at node 2)
	maximum = 0.119 (at node 12)
Accepted packet rate average = 0.100625
	minimum = 0.078 (at node 8)
	maximum = 0.119 (at node 4)
Injected flit rate average = 0.100625
	minimum = 0.077 (at node 2)
	maximum = 0.119 (at node 12)
Accepted flit rate average= 0.100625
	minimum = 0.078 (at node 8)
	maximum = 0.119 (at node 4)
Injected packet length average = 1
Accepted packet length average = 1
Total in-flight flits = 65 (65 measured)
latency change    = 0.00926766
throughput change = 0.0291925
Class 0:
Packet latency average = 40.0013
	minimum = 7
	maximum = 130
Network latency average = 39.9091
	minimum = 7
	maximum = 130
Slowest packet = 1065856
Flit latency average = 40.124
	minimum = 7
	maximum = 130
Slowest flit = 1065856
Fragmentation average = 0
	minimum = 0
	maximum = 0
Injected packet rate average = 0.100406
	minimum = 0.0815 (at node 2)
	maximum = 0.1115 (at node 5)
Accepted packet rate average = 0.100312
	minimum = 0.088 (at node 11)
	maximum = 0.117 (at node 4)
Injected flit rate average = 0.100406
	minimum = 0.0815 (at node 2)
	maximum = 0.1115 (at node 5)
Accepted flit rate average= 0.100312
	minimum = 0.088 (at node 11)
	maximum = 0.117 (at node 4)
Injected packet length average = 1
Accepted packet length average = 1
Total in-flight flits = 68 (68 measured)
latency change    = 0.00291309
throughput change = 0.00311526
Class 0:
Packet latency average = 39.821
	minimum = 7
	maximum = 139
Network latency average = 39.7592
	minimum = 7
	maximum = 139
Slowest packet = 1066053
Flit latency average = 39.9044
	minimum = 7
	maximum = 139
Slowest flit = 1066053
Fragmentation average = 0
	minimum = 0
	maximum = 0
Injected packet rate average = 0.100167
	minimum = 0.083 (at node 2)
	maximum = 0.110333 (at node 7)
Accepted packet rate average = 0.100417
	minimum = 0.0913333 (at node 14)
	maximum = 0.114 (at node 0)
Injected flit rate average = 0.100167
	minimum = 0.083 (at node 2)
	maximum = 0.110333 (at node 7)
Accepted flit rate average= 0.100417
	minimum = 0.0913333 (at node 14)
	maximum = 0.114 (at node 0)
Injected packet length average = 1
Accepted packet length average = 1
Total in-flight flits = 53 (53 measured)
latency change    = 0.00452629
throughput change = 0.00103734
Draining all recorded packets ...
Draining remaining packets ...
Time taken is 6117 cycles
Class 0:
Packet latency average = 38.9416
	minimum = 7
	maximum = 136
Network latency average = 38.9223
	minimum = 7
	maximum = 136
Slowest packet = 1068103
Flit latency average = 38.9223
	minimum = 7
	maximum = 136
Slowest flit = 1068103
Fragmentation average = 0
	minimum = 0
	maximum = 0
Injected packet rate average = 0.097625
	minimum = 0.083 (at node 1)
	maximum = 0.107 (at node 5)
Accepted packet rate average = 0.094125
	minimum = 0.081 (at node 1)
	maximum = 0.105 (at node 10)
Injected flit rate average = 0.097625
	minimum = 0.083 (at node 1)
	maximum = 0.107 (at node 5)
Accepted flit rate average= 0.094125
	minimum = 0.081 (at node 1)
	maximum = 0.105 (at node 10)
Injected packet length average = 1
Accepted packet length average = 1
Total in-flight flits = 56 (0 measured)
latency change    = 1
throughput change = 1
Class 0:
Packet latency average = 38.3744
	minimum = 7
	maximum = 136
Network latency average = 38.3516
	minimum = 7
	maximum = 136
Slowest packet = 1068103
Flit latency average = 38.3516
	minimum = 7
	maximum = 136
Slowest flit = 1068103
Fragmentation average = 0
	minimum = 0
	maximum = 0
Injected packet rate average = 0.098625
	minimum = 0.0855 (at node 3)
	maximum = 0.107 (at node 7)
Accepted packet rate average = 0.09625
	minimum = 0.087 (at node 11)
	maximum = 0.107 (at node 14)
Injected flit rate average = 0.098625
	minimum = 0.0855 (at node 3)
	maximum = 0.107 (at node 7)
Accepted flit rate average= 0.09625
	minimum = 0.087 (at node 11)
	maximum = 0.107 (at node 14)
Injected packet length average = 1
Accepted packet length average = 1
Total in-flight flits = 76 (0 measured)
latency change    = 0.0147811
throughput change = 0.0220779
Class 0:
Packet latency average = 45.1801
	minimum = 7
	maximum = 177
Network latency average = 44.1927
	minimum = 7
	maximum = 177
Slowest packet = 1071992
Flit latency average = 44.1927
	minimum = 7
	maximum = 177
Slowest flit = 1071992
Fragmentation average = 0
	minimum = 0
	maximum = 0
Injected packet rate average = 0.103
	minimum = 0.083 (at node 1)
	maximum = 0.124 (at node 13)
Accepted packet rate average = 0.103438
	minimum = 0.089 (at node 9)
	maximum = 0.116 (at node 8)
Injected flit rate average = 0.103
	minimum = 0.083 (at node 1)
	maximum = 0.124 (at node 13)
Accepted flit rate average= 0.103438
	minimum = 0.089 (at node 9)
	maximum = 0.116 (at node 8)
Injected packet length average = 1
Accepted packet length average = 1
Total in-flight flits = 69 (0 measured)
latency change    = 0.150635
throughput change = 0.0694864
Warmed up ...Time used is 3000 cycles
Class 0:
Packet latency average = 37.9732
	minimum = 7
	maximum = 90
Network latency average = 37.9713
	minimum = 7
	maximum = 90
Slowest packet = 1073046
Flit latency average = 38.3861
	minimum = 7
	maximum = 90
Slowest flit = 1073046
Fragmentation average = 0
	minimum = 0
	maximum = 0
Injected packet rate average = 0.104313
	minimum = 0.085 (at node 3)
	maximum = 0.115 (at node 12)
Accepted packet rate average = 0.104563
	minimum = 0.086 (at node 8)
	maximum = 0.119 (at node 7)
Injected flit rate average = 0.104313
	minimum = 0.085 (at node 3)
	maximum = 0.115 (at node 12)
Accepted flit rate average= 0.104563
	minimum = 0.086 (at node 8)
	maximum = 0.119 (at node 7)
Injected packet length average = 1
Accepted packet length average = 1
Total in-flight flits = 65 (65 measured)
latency change    = 0.189788
throughput change = 0.0107591
Class 0:
Packet latency average = 39.9133
	minimum = 7
	maximum = 158
Network latency average = 39.7815
	minimum = 7
	maximum = 158
Slowest packet = 1075539
Flit latency average = 39.9535
	minimum = 7
	maximum = 158
Slowest flit = 1075539
Fragmentation average = 0
	minimum = 0
	maximum = 0
Injected packet rate average = 0.103188
	minimum = 0.0885 (at node 3)
	maximum = 0.1195 (at node 5)
Accepted packet rate average = 0.103438
	minimum = 0.088 (at node 9)
	maximum = 0.113 (at node 13)
Injected flit rate average = 0.103188
	minimum = 0.0885 (at node 3)
	maximum = 0.1195 (at node 5)
Accepted flit rate average= 0.103438
	minimum = 0.088 (at node 9)
	maximum = 0.113 (at node 13)
Injected packet length average = 1
Accepted packet length average = 1
Total in-flight flits = 61 (61 measured)
latency change    = 0.048608
throughput change = 0.0108761
Class 0:
Packet latency average = 39.9536
	minimum = 7
	maximum = 158
Network latency average = 39.8287
	minimum = 7
	maximum = 158
Slowest packet = 1075539
Flit latency average = 39.9437
	minimum = 7
	maximum = 158
Slowest flit = 1075539
Fragmentation average = 0
	minimum = 0
	maximum = 0
Injected packet rate average = 0.102667
	minimum = 0.0913333 (at node 3)
	maximum = 0.112667 (at node 9)
Accepted packet rate average = 0.1025
	minimum = 0.092 (at node 9)
	maximum = 0.111 (at node 5)
Injected flit rate average = 0.102667
	minimum = 0.0913333 (at node 3)
	maximum = 0.112667 (at node 9)
Accepted flit rate average= 0.1025
	minimum = 0.092 (at node 9)
	maximum = 0.111 (at node 5)
Injected packet length average = 1
Accepted packet length average = 1
Total in-flight flits = 77 (77 measured)
latency change    = 0.00100916
throughput change = 0.00914634
Class 0:
Packet latency average = 39.745
	minimum = 7
	maximum = 158
Network latency average = 39.6477
	minimum = 7
	maximum = 158
Slowest packet = 1075539
Flit latency average = 39.7361
	minimum = 7
	maximum = 158
Slowest flit = 1075539
Fragmentation average = 0
	minimum = 0
	maximum = 0
Injected packet rate average = 0.102156
	minimum = 0.08675 (at node 3)
	maximum = 0.10975 (at node 4)
Accepted packet rate average = 0.102297
	minimum = 0.09525 (at node 0)
	maximum = 0.108 (at node 5)
Injected flit rate average = 0.102156
	minimum = 0.08675 (at node 3)
	maximum = 0.10975 (at node 4)
Accepted flit rate average= 0.102297
	minimum = 0.09525 (at node 0)
	maximum = 0.108 (at node 5)
Injected packet length average = 1
Accepted packet length average = 1
Total in-flight flits = 60 (60 measured)
latency change    = 0.00524934
throughput change = 0.00198564
Draining all recorded packets ...
Draining remaining packets ...
Time taken is 7122 cycles
====== Overall Traffic Statistics ======
====== Traffic class 0 ======
Packet latency average = 39.7686 (100 samples)
	minimum = 7 (100 samples)
	maximum = 166.59 (100 samples)
Network latency average = 39.6048 (100 samples)
	minimum = 7 (100 samples)
	maximum = 163.71 (100 samples)
Flit latency average = 39.6679 (100 samples)
	minimum = 7 (100 samples)
	maximum = 166.04 (100 samples)
Fragmentation average = 0 (100 samples)
	minimum = 0 (100 samples)
	maximum = 0 (100 samples)
Injected packet rate average = 0.100267 (100 samples)
	minimum = 0.0911683 (100 samples)
	maximum = 0.109325 (100 samples)
Accepted packet rate average = 0.100262 (100 samples)
	minimum = 0.0912223 (100 samples)
	maximum = 0.109838 (100 samples)
Injected flit rate average = 0.100267 (100 samples)
	minimum = 0.0911683 (100 samples)
	maximum = 0.109325 (100 samples)
Accepted flit rate average = 0.100262 (100 samples)
	minimum = 0.0912223 (100 samples)
	maximum = 0.109838 (100 samples)
Injected packet size average = 1 (100 samples)
Accepted packet size average = 1 (100 samples)
Hops average = 6.00274 (100 samples)
Total run time 17.2758
