BEGIN Configuration File: /tmp/bs_1138183_368937.cfg
topology = mesh;
k = 4;
n = 2;
routing_function = min_adapt;
num_vcs = 4;
vc_buf_size = 4;
wait_for_tail_credit = 1;
vc_allocator = islip;
sw_allocator = islip;
alloc_iters = 1;
credit_delay = 2;
routing_delay = 1;
vc_alloc_delay = 1;
sw_alloc_delay = 1;
input_speedup = 2;
output_speedup = 1;
internal_speedup = 1.0;
traffic = uniform;
packet_size = 1;
sim_type = latency;
injection_rate = 0.2;
warmup_periods = 3;
sample_period = 1000;
sim_count = 100;
seed = 2;

END Configuration File: /tmp/bs_1138183_368937.cfg
Class 0:
Packet latency average = 22.7086
	minimum = 7
	maximum = 122
Network latency average = 22.6917
	minimum = 7
	maximum = 122
Slowest packet = 1104
Flit latency average = 22.6917
	minimum = 7
	maximum = 122
Slowest flit = 1104
Fragmentation average = 0
	minimum = 0
	maximum = 0
Injected packet rate average = 0.198437
	minimum = 0.179 (at node 1)
	maximum = 0.222 (at node 5)
Accepted packet rate average = 0.192812
	minimum = 0.169 (at node 9)
	maximum = 0.213 (at node 10)
Injected flit rate average = 0.198437
	minimum = 0.179 (at node 1)
	maximum = 0.222 (at node 5)
Accepted flit rate average= 0.192812
	minimum = 0.169 (at node 9)
	maximum = 0.213 (at node 10)
Injected packet length average = 1
Accepted packet length average = 1
Total in-flight flits = 90 (0 measured)
latency change    = 1
throughput change = 1
Class 0:
Packet latency average = 23.134
	minimum = 7
	maximum = 122
Network latency average = 23.1077
	minimum = 7
	maximum = 122
Slowest packet = 1104
Flit latency average = 23.1077
	minimum = 7
	maximum = 122
Slowest flit = 1104
Fragmentation average = 0
	minimum = 0
	maximum = 0
Injected packet rate average = 0.199094
	minimum = 0.1805 (at node 1)
	maximum = 0.217 (at node 2)
Accepted packet rate average = 0.197
	minimum = 0.175 (at node 14)
	maximum = 0.213 (at node 0)
Injected flit rate average = 0.199094
	minimum = 0.1805 (at node 1)
	maximum = 0.217 (at node 2)
Accepted flit rate average= 0.197
	minimum = 0.175 (at node 14)
	maximum = 0.213 (at node 0)
Injected packet length average = 1
Accepted packet length average = 1
Total in-flight flits = 67 (0 measured)
latency change    = 0.0183907
throughput change = 0.0212563
Class 0:
Packet latency average = 23.425
	minimum = 7
	maximum = 134
Network latency average = 23.4042
	minimum = 7
	maximum = 134
Slowest packet = 6915
Flit latency average = 23.4042
	minimum = 7
	maximum = 134
Slowest flit = 6915
Fragmentation average = 0
	minimum = 0
	maximum = 0
Injected packet rate average = 0.195937
	minimum = 0.181 (at node 15)
	maximum = 0.217 (at node 9)
Accepted packet rate average = 0.19575
	minimum = 0.172 (at node 13)
	maximum = 0.22 (at node 5)
Injected flit rate average = 0.195937
	minimum = 0.181 (at node 15)
	maximum = 0.217 (at node 9)
Accepted flit rate average= 0.19575
	minimum = 0.172 (at node 13)
	maximum = 0.22 (at node 5)
Injected packet length average = 1
Accepted packet length average = 1
Total in-flight flits = 70 (0 measured)
latency change    = 0.0124195
throughput change = 0.0063857
Warmed up ...Time used is 3000 cycles
Class 0:
Packet latency average = 22.8245
	minimum = 7
	maximum = 120
Network latency average = 22.8065
	minimum = 7
	maximum = 120
Slowest packet = 11882
Flit latency average = 22.9007
	minimum = 7
	maximum = 120
Slowest flit = 11882
Fragmentation average = 0
	minimum = 0
	maximum = 0
Injected packet rate average = 0.205563
	minimum = 0.185 (at node 1)
	maximum = 0.22 (at node 0)
Accepted packet rate average = 0.20525
	minimum = 0.189 (at node 11)
	maximum = 0.222 (at node 2)
Injected flit rate average = 0.205563
	minimum = 0.185 (at node 1)
	maximum = 0.22 (at node 0)
Accepted flit rate average= 0.20525
	minimum = 0.189 (at node 11)
	maximum = 0.222 (at node 2)
Injected packet length average = 1
Accepted packet length average = 1
Total in-flight flits = 75 (75 measured)
latency change    = 0.0263073
throughput change = 0.046285
Class 0:
Packet latency average = 23.2097
	minimum = 7
	maximum = 124
Network latency average = 23.1931
	minimum = 7
	maximum = 124
Slowest packet = 14898
Flit latency average = 23.236
	minimum = 7
	maximum = 124
Slowest flit = 14898
Fragmentation average = 0
	minimum = 0
	maximum = 0
Injected packet rate average = 0.205844
	minimum = 0.1875 (at node 1)
	maximum = 0.216 (at node 10)
Accepted packet rate average = 0.2055
	minimum = 0.193 (at node 0)
	maximum = 0.2215 (at node 8)
Injected flit rate average = 0.205844
	minimum = 0.1875 (at node 1)
	maximum = 0.216 (at node 10)
Accepted flit rate average= 0.2055
	minimum = 0.193 (at node 0)
	maximum = 0.2215 (at node 8)
Injected packet length average = 1
Accepted packet length average = 1
Total in-flight flits = 81 (81 measured)
latency change    = 0.0165937
throughput change = 0.00121655
Class 0:
Packet latency average = 23.2963
	minimum = 7
	maximum = 134
Network latency average = 23.2798
	minimum = 7
	maximum = 134
Slowest packet = 15887
Flit latency average = 23.3081
	minimum = 7
	maximum = 134
Slowest flit = 15887
Fragmentation average = 0
	minimum = 0
	maximum = 0
Injected packet rate average = 0.203458
	minimum = 0.196667 (at node 3)
	maximum = 0.211 (at node 4)
Accepted packet rate average = 0.203604
	minimum = 0.192667 (at node 9)
	maximum = 0.217667 (at node 8)
Injected flit rate average = 0.203458
	minimum = 0.196667 (at node 3)
	maximum = 0.211 (at node 4)
Accepted flit rate average= 0.203604
	minimum = 0.192667 (at node 9)
	maximum = 0.217667 (at node 8)
Injected packet length average = 1
Accepted packet length average = 1
Total in-flight flits = 63 (63 measured)
latency change    = 0.00371937
throughput change = 0.00931137
Draining all recorded packets ...
Draining remaining packets ...
Time taken is 6105 cycles
Class 0:
Packet latency average = 23.0884
	minimum = 7
	maximum = 121
Network latency average = 23.0505
	minimum = 7
	maximum = 121
Slowest packet = 21570
Flit latency average = 23.0505
	minimum = 7
	maximum = 121
Slowest flit = 21570
Fragmentation average = 0
	minimum = 0
	maximum = 0
Injected packet rate average = 0.198563
	minimum = 0.181 (at node 1)
	maximum = 0.23 (at node 3)
Accepted packet rate average = 0.193062
	minimum = 0.165 (at node 9)
	maximum = 0.217 (at node 11)
Injected flit rate average = 0.198563
	minimum = 0.181 (at node 1)
	maximum = 0.23 (at node 3)
Accepted flit rate average= 0.193062
	minimum = 0.165 (at node 9)
	maximum = 0.217 (at node 11)
Injected packet length average = 1
Accepted packet length average = 1
Total in-flight flits = 88 (0 measured)
latency change    = 1
throughput change = 1
Class 0:
Packet latency average = 23.4094
	minimum = 7
	maximum = 158
Network latency average = 23.3605
	minimum = 7
	maximum = 158
Slowest packet = 23337
Flit latency average = 23.3605
	minimum = 7
	maximum = 158
Slowest flit = 23337
Fragmentation average = 0
	minimum = 0
	maximum = 0
Injected packet rate average = 0.199281
	minimum = 0.186 (at node 9)
	maximum = 0.215 (at node 14)
Accepted packet rate average = 0.197469
	minimum = 0.1865 (at node 3)
	maximum = 0.216 (at node 13)
Injected flit rate average = 0.199281
	minimum = 0.186 (at node 9)
	maximum = 0.215 (at node 14)
Accepted flit rate average= 0.197469
	minimum = 0.1865 (at node 3)
	maximum = 0.216 (at node 13)
Injected packet length average = 1
Accepted packet length average = 1
Total in-flight flits = 58 (0 measured)
latency change    = 0.0137134
throughput change = 0.0223137
Class 0:
Packet latency average = 23.4102
	minimum = 7
	maximum = 144
Network latency average = 23.3836
	minimum = 7
	maximum = 144
Slowest packet = 28245
Flit latency average = 23.3836
	minimum = 7
	maximum = 144
Slowest flit = 28245
Fragmentation average = 0
	minimum = 0
	maximum = 0
Injected packet rate average = 0.198437
	minimum = 0.164 (at node 5)
	maximum = 0.225 (at node 13)
Accepted packet rate average = 0.197
	minimum = 0.16 (at node 8)
	maximum = 0.223 (at node 15)
Injected flit rate average = 0.198437
	minimum = 0.164 (at node 5)
	maximum = 0.225 (at node 13)
Accepted flit rate average= 0.197
	minimum = 0.16 (at node 8)
	maximum = 0.223 (at node 15)
Injected packet length average = 1
Accepted packet length average = 1
Total in-flight flits = 81 (0 measured)
latency change    = 3.48358e-05
throughput change = 0.00237944
Warmed up ...Time used is 3000 cycles
Class 0:
Packet latency average = 23.3369
	minimum = 7
	maximum = 108
Network latency average = 23.2878
	minimum = 7
	maximum = 108
Slowest packet = 30574
Flit latency average = 23.5397
	minimum = 7
	maximum = 127
Slowest flit = 28852
Fragmentation average = 0
	minimum = 0
	maximum = 0
Injected packet rate average = 0.201625
	minimum = 0.169 (at node 13)
	maximum = 0.216 (at node 14)
Accepted packet rate average = 0.202437
	minimum = 0.175 (at node 5)
	maximum = 0.232 (at node 7)
Injected flit rate average = 0.201625
	minimum = 0.169 (at node 13)
	maximum = 0.216 (at node 14)
Accepted flit rate average= 0.202437
	minimum = 0.175 (at node 5)
	maximum = 0.232 (at node 7)
Injected packet length average = 1
Accepted packet length average = 1
Total in-flight flits = 68 (68 measured)
latency change    = 0.00314067
throughput change = 0.0268601
Class 0:
Packet latency average = 23.7036
	minimum = 7
	maximum = 152
Network latency average = 23.6691
	minimum = 7
	maximum = 152
Slowest packet = 32493
Flit latency average = 23.7908
	minimum = 7
	maximum = 152
Slowest flit = 32493
Fragmentation average = 0
	minimum = 0
	maximum = 0
Injected packet rate average = 0.201156
	minimum = 0.1865 (at node 15)
	maximum = 0.217 (at node 12)
Accepted packet rate average = 0.201406
	minimum = 0.187 (at node 3)
	maximum = 0.222 (at node 9)
Injected flit rate average = 0.201156
	minimum = 0.1865 (at node 15)
	maximum = 0.217 (at node 12)
Accepted flit rate average= 0.201406
	minimum = 0.187 (at node 3)
	maximum = 0.222 (at node 9)
Injected packet length average = 1
Accepted packet length average = 1
Total in-flight flits = 73 (73 measured)
latency change    = 0.0154712
throughput change = 0.00512025
Class 0:
Packet latency average = 23.7318
	minimum = 7
	maximum = 152
Network latency average = 23.6996
	minimum = 7
	maximum = 152
Slowest packet = 32493
Flit latency average = 23.7801
	minimum = 7
	maximum = 152
Slowest flit = 32493
Fragmentation average = 0
	minimum = 0
	maximum = 0
Injected packet rate average = 0.202125
	minimum = 0.184333 (at node 15)
	maximum = 0.217667 (at node 12)
Accepted packet rate average = 0.202437
	minimum = 0.187667 (at node 5)
	maximum = 0.216 (at node 4)
Injected flit rate average = 0.202125
	minimum = 0.184333 (at node 15)
	maximum = 0.217667 (at node 12)
Accepted flit rate average= 0.202437
	minimum = 0.187667 (at node 5)
	maximum = 0.216 (at node 4)
Injected packet length average = 1
Accepted packet length average = 1
Total in-flight flits = 66 (66 measured)
latency change    = 0.001188
throughput change = 0.00509416
Draining all recorded packets ...
Draining remaining packets ...
Time taken is 6093 cycles
Class 0:
Packet latency average = 22.8946
	minimum = 7
	maximum = 116
Network latency average = 22.8757
	minimum = 7
	maximum = 116
Slowest packet = 39056
Flit latency average = 22.8757
	minimum = 7
	maximum = 116
Slowest flit = 39056
Fragmentation average = 0
	minimum = 0
	maximum = 0
Injected packet rate average = 0.19875
	minimum = 0.171 (at node 3)
	maximum = 0.216 (at node 13)
Accepted packet rate average = 0.194562
	minimum = 0.178 (at node 13)
	maximum = 0.225 (at node 10)
Injected flit rate average = 0.19875
	minimum = 0.171 (at node 3)
	maximum = 0.216 (at node 13)
Accepted flit rate average= 0.194562
	minimum = 0.178 (at node 13)
	maximum = 0.225 (at node 10)
Injected packet length average = 1
Accepted packet length average = 1
Total in-flight flits = 67 (0 measured)
latency change    = 1
throughput change = 1
Class 0:
Packet latency average = 23.1024
	minimum = 7
	maximum = 116
Network latency average = 23.0883
	minimum = 7
	maximum = 116
Slowest packet = 39056
Flit latency average = 23.0883
	minimum = 7
	maximum = 116
Slowest flit = 39056
Fragmentation average = 0
	minimum = 0
	maximum = 0
Injected packet rate average = 0.201313
	minimum = 0.1785 (at node 3)
	maximum = 0.224 (at node 1)
Accepted packet rate average = 0.198906
	minimum = 0.184 (at node 7)
	maximum = 0.2185 (at node 1)
Injected flit rate average = 0.201313
	minimum = 0.1785 (at node 3)
	maximum = 0.224 (at node 1)
Accepted flit rate average= 0.198906
	minimum = 0.184 (at node 7)
	maximum = 0.2185 (at node 1)
Injected packet length average = 1
Accepted packet length average = 1
Total in-flight flits = 77 (0 measured)
latency change    = 0.00899471
throughput change = 0.0218382
Class 0:
Packet latency average = 23.0225
	minimum = 7
	maximum = 153
Network latency average = 23.0003
	minimum = 7
	maximum = 153
Slowest packet = 45350
Flit latency average = 23.0003
	minimum = 7
	maximum = 153
Slowest flit = 45350
Fragmentation average = 0
	minimum = 0
	maximum = 0
Injected packet rate average = 0.197187
	minimum = 0.181 (at node 5)
	maximum = 0.218 (at node 12)
Accepted packet rate average = 0.197
	minimum = 0.159 (at node 3)
	maximum = 0.224 (at node 0)
Injected flit rate average = 0.197187
	minimum = 0.181 (at node 5)
	maximum = 0.218 (at node 12)
Accepted flit rate average= 0.197
	minimum = 0.159 (at node 3)
	maximum = 0.224 (at node 0)
Injected packet length average = 1
Accepted packet length average = 1
Total in-flight flits = 80 (0 measured)
latency change    = 0.00347094
throughput change = 0.0096764
Warmed up ...Time used is 3000 cycles
Class 0:
Packet latency average = 23.5495
	minimum = 7
	maximum = 137
Network latency average = 23.5289
	minimum = 7
	maximum = 137
Slowest packet = 51131
Flit latency average = 23.7525
	minimum = 7
	maximum = 137
Slowest flit = 51131
Fragmentation average = 0
	minimum = 0
	maximum = 0
Injected packet rate average = 0.20875
	minimum = 0.19 (at node 15)
	maximum = 0.226 (at node 3)
Accepted packet rate average = 0.208375
	minimum = 0.181 (at node 2)
	maximum = 0.247 (at node 14)
Injected flit rate average = 0.20875
	minimum = 0.19 (at node 15)
	maximum = 0.226 (at node 3)
Accepted flit rate average= 0.208375
	minimum = 0.181 (at node 2)
	maximum = 0.247 (at node 14)
Injected packet length average = 1
Accepted packet length average = 1
Total in-flight flits = 86 (86 measured)
latency change    = 0.0223764
throughput change = 0.0545891
Class 0:
Packet latency average = 23.4526
	minimum = 7
	maximum = 137
Network latency average = 23.4287
	minimum = 7
	maximum = 137
Slowest packet = 51131
Flit latency average = 23.543
	minimum = 7
	maximum = 137
Slowest flit = 51131
Fragmentation average = 0
	minimum = 0
	maximum = 0
Injected packet rate average = 0.205531
	minimum = 0.194 (at node 12)
	maximum = 0.217 (at node 10)
Accepted packet rate average = 0.205969
	minimum = 0.194 (at node 1)
	maximum = 0.2235 (at node 14)
Injected flit rate average = 0.205531
	minimum = 0.194 (at node 12)
	maximum = 0.217 (at node 10)
Accepted flit rate average= 0.205969
	minimum = 0.194 (at node 1)
	maximum = 0.2235 (at node 14)
Injected packet length average = 1
Accepted packet length average = 1
Total in-flight flits = 66 (66 measured)
latency change    = 0.00412998
throughput change = 0.0116826
Class 0:
Packet latency average = 23.3957
	minimum = 7
	maximum = 137
Network latency average = 23.371
	minimum = 7
	maximum = 137
Slowest packet = 51131
Flit latency average = 23.4484
	minimum = 7
	maximum = 137
Slowest flit = 51131
Fragmentation average = 0
	minimum = 0
	maximum = 0
Injected packet rate average = 0.204167
	minimum = 0.197 (at node 2)
	maximum = 0.214333 (at node 6)
Accepted packet rate average = 0.204313
	minimum = 0.19 (at node 12)
	maximum = 0.225333 (at node 14)
Injected flit rate average = 0.204167
	minimum = 0.197 (at node 2)
	maximum = 0.214333 (at node 6)
Accepted flit rate average= 0.204313
	minimum = 0.19 (at node 12)
	maximum = 0.225333 (at node 14)
Injected packet length average = 1
Accepted packet length average = 1
Total in-flight flits = 73 (73 measured)
latency change    = 0.00243275
throughput change = 0.00810645
Class 0:
Packet latency average = 23.2978
	minimum = 7
	maximum = 137
Network latency average = 23.2741
	minimum = 7
	maximum = 137
Slowest packet = 51131
Flit latency average = 23.3334
	minimum = 7
	maximum = 137
Slowest flit = 51131
Fragmentation average = 0
	minimum = 0
	maximum = 0
Injected packet rate average = 0.201656
	minimum = 0.193 (at node 5)
	maximum = 0.21075 (at node 6)
Accepted packet rate average = 0.201813
	minimum = 0.1875 (at node 1)
	maximum = 0.214 (at node 14)
Injected flit rate average = 0.201656
	minimum = 0.193 (at node 5)
	maximum = 0.21075 (at node 6)
Accepted flit rate average= 0.201813
	minimum = 0.1875 (at node 1)
	maximum = 0.214 (at node 14)
Injected packet length average = 1
Accepted packet length average = 1
Total in-flight flits = 70 (70 measured)
latency change    = 0.00420411
throughput change = 0.0123877
Draining all recorded packets ...
Draining remaining packets ...
Time taken is 7116 cycles
Class 0:
Packet latency average = 23.028
	minimum = 7
	maximum = 145
Network latency average = 23.0062
	minimum = 7
	maximum = 145
Slowest packet = 63649
Flit latency average = 23.0062
	minimum = 7
	maximum = 145
Slowest flit = 63649
Fragmentation average = 0
	minimum = 0
	maximum = 0
Injected packet rate average = 0.197313
	minimum = 0.173 (at node 3)
	maximum = 0.223 (at node 15)
Accepted packet rate average = 0.192188
	minimum = 0.164 (at node 13)
	maximum = 0.208 (at node 4)
Injected flit rate average = 0.197313
	minimum = 0.173 (at node 3)
	maximum = 0.223 (at node 15)
Accepted flit rate average= 0.192188
	minimum = 0.164 (at node 13)
	maximum = 0.208 (at node 4)
Injected packet length average = 1
Accepted packet length average = 1
Total in-flight flits = 82 (0 measured)
latency change    = 1
throughput change = 1
Class 0:
Packet latency average = 22.9511
	minimum = 7
	maximum = 145
Network latency average = 22.933
	minimum = 7
	maximum = 145
Slowest packet = 63649
Flit latency average = 22.933
	minimum = 7
	maximum = 145
Slowest flit = 63649
Fragmentation average = 0
	minimum = 0
	maximum = 0
Injected packet rate average = 0.197531
	minimum = 0.1865 (at node 0)
	maximum = 0.2165 (at node 15)
Accepted packet rate average = 0.194906
	minimum = 0.1815 (at node 13)
	maximum = 0.212 (at node 5)
Injected flit rate average = 0.197531
	minimum = 0.1865 (at node 0)
	maximum = 0.2165 (at node 15)
Accepted flit rate average= 0.194906
	minimum = 0.1815 (at node 13)
	maximum = 0.212 (at node 5)
Injected packet length average = 1
Accepted packet length average = 1
Total in-flight flits = 84 (0 measured)
latency change    = 0.00334926
throughput change = 0.013949
Class 0:
Packet latency average = 23.6623
	minimum = 7
	maximum = 161
Network latency average = 23.6202
	minimum = 7
	maximum = 161
Slowest packet = 68338
Flit latency average = 23.6202
	minimum = 7
	maximum = 161
Slowest flit = 68338
Fragmentation average = 0
	minimum = 0
	maximum = 0
Injected packet rate average = 0.203625
	minimum = 0.174 (at node 14)
	maximum = 0.235 (at node 12)
Accepted packet rate average = 0.204875
	minimum = 0.186 (at node 13)
	maximum = 0.236 (at node 4)
Injected flit rate average = 0.203625
	minimum = 0.174 (at node 14)
	maximum = 0.235 (at node 12)
Accepted flit rate average= 0.204875
	minimum = 0.186 (at node 13)
	maximum = 0.236 (at node 4)
Injected packet length average = 1
Accepted packet length average = 1
Total in-flight flits = 64 (0 measured)
latency change    = 0.0300561
throughput change = 0.0486577
Warmed up ...Time used is 3000 cycles
Class 0:
Packet latency average = 23.0405
	minimum = 7
	maximum = 100
Network latency average = 22.9509
	minimum = 7
	maximum = 100
Slowest packet = 73672
Flit latency average = 23.1433
	minimum = 7
	maximum = 142
Slowest flit = 70674
Fragmentation average = 0
	minimum = 0
	maximum = 0
Injected packet rate average = 0.20125
	minimum = 0.174 (at node 6)
	maximum = 0.228 (at node 1)
Accepted packet rate average = 0.200187
	minimum = 0.18 (at node 2)
	maximum = 0.227 (at node 10)
Injected flit rate average = 0.20125
	minimum = 0.174 (at node 6)
	maximum = 0.228 (at node 1)
Accepted flit rate average= 0.200187
	minimum = 0.18 (at node 2)
	maximum = 0.227 (at node 10)
Injected packet length average = 1
Accepted packet length average = 1
Total in-flight flits = 81 (81 measured)
latency change    = 0.0269888
throughput change = 0.0234155
Class 0:
Packet latency average = 22.9356
	minimum = 7
	maximum = 117
Network latency average = 22.8863
	minimum = 7
	maximum = 117
Slowest packet = 76043
Flit latency average = 22.9827
	minimum = 7
	maximum = 142
Slowest flit = 70674
Fragmentation average = 0
	minimum = 0
	maximum = 0
Injected packet rate average = 0.201375
	minimum = 0.1815 (at node 6)
	maximum = 0.216 (at node 1)
Accepted packet rate average = 0.201063
	minimum = 0.187 (at node 0)
	maximum = 0.215 (at node 10)
Injected flit rate average = 0.201375
	minimum = 0.1815 (at node 6)
	maximum = 0.216 (at node 1)
Accepted flit rate average= 0.201063
	minimum = 0.187 (at node 0)
	maximum = 0.215 (at node 10)
Injected packet length average = 1
Accepted packet length average = 1
Total in-flight flits = 74 (74 measured)
latency change    = 0.00457031
throughput change = 0.00435188
Class 0:
Packet latency average = 23.0487
	minimum = 7
	maximum = 137
Network latency average = 23.005
	minimum = 7
	maximum = 137
Slowest packet = 78889
Flit latency average = 23.0688
	minimum = 7
	maximum = 142
Slowest flit = 70674
Fragmentation average = 0
	minimum = 0
	maximum = 0
Injected packet rate average = 0.200437
	minimum = 0.187333 (at node 9)
	maximum = 0.212667 (at node 14)
Accepted packet rate average = 0.200271
	minimum = 0.187667 (at node 0)
	maximum = 0.212667 (at node 10)
Injected flit rate average = 0.200437
	minimum = 0.187333 (at node 9)
	maximum = 0.212667 (at node 14)
Accepted flit rate average= 0.200271
	minimum = 0.187667 (at node 0)
	maximum = 0.212667 (at node 10)
Injected packet length average = 1
Accepted packet length average = 1
Total in-flight flits = 72 (72 measured)
latency change    = 0.00490528
throughput change = 0.00395298
Draining all recorded packets ...
Draining remaining packets ...
Time taken is 6113 cycles
Class 0:
Packet latency average = 22.505
	minimum = 7
	maximum = 150
Network latency average = 22.4733
	minimum = 7
	maximum = 150
Slowest packet = 81816
Flit latency average = 22.4733
	minimum = 7
	maximum = 150
Slowest flit = 81816
Fragmentation average = 0
	minimum = 0
	maximum = 0
Injected packet rate average = 0.19875
	minimum = 0.174 (at node 1)
	maximum = 0.223 (at node 11)
Accepted packet rate average = 0.193312
	minimum = 0.164 (at node 15)
	maximum = 0.227 (at node 5)
Injected flit rate average = 0.19875
	minimum = 0.174 (at node 1)
	maximum = 0.223 (at node 11)
Accepted flit rate average= 0.193312
	minimum = 0.164 (at node 15)
	maximum = 0.227 (at node 5)
Injected packet length average = 1
Accepted packet length average = 1
Total in-flight flits = 87 (0 measured)
latency change    = 1
throughput change = 1
Class 0:
Packet latency average = 22.718
	minimum = 7
	maximum = 150
Network latency average = 22.6901
	minimum = 7
	maximum = 150
Slowest packet = 81816
Flit latency average = 22.6901
	minimum = 7
	maximum = 150
Slowest flit = 81816
Fragmentation average = 0
	minimum = 0
	maximum = 0
Injected packet rate average = 0.198156
	minimum = 0.186 (at node 5)
	maximum = 0.213 (at node 11)
Accepted packet rate average = 0.196063
	minimum = 0.184 (at node 15)
	maximum = 0.2205 (at node 5)
Injected flit rate average = 0.198156
	minimum = 0.186 (at node 5)
	maximum = 0.213 (at node 11)
Accepted flit rate average= 0.196063
	minimum = 0.184 (at node 15)
	maximum = 0.2205 (at node 5)
Injected packet length average = 1
Accepted packet length average = 1
Total in-flight flits = 67 (0 measured)
latency change    = 0.00937719
throughput change = 0.0140261
Class 0:
Packet latency average = 23.8519
	minimum = 7
	maximum = 134
Network latency average = 23.8212
	minimum = 7
	maximum = 134
Slowest packet = 87877
Flit latency average = 23.8212
	minimum = 7
	maximum = 134
Slowest flit = 87877
Fragmentation average = 0
	minimum = 0
	maximum = 0
Injected packet rate average = 0.201875
	minimum = 0.185 (at node 9)
	maximum = 0.218 (at node 2)
Accepted packet rate average = 0.200937
	minimum = 0.173 (at node 13)
	maximum = 0.224 (at node 10)
Injected flit rate average = 0.201875
	minimum = 0.185 (at node 9)
	maximum = 0.218 (at node 2)
Accepted flit rate average= 0.200937
	minimum = 0.173 (at node 13)
	maximum = 0.224 (at node 10)
Injected packet length average = 1
Accepted packet length average = 1
Total in-flight flits = 82 (0 measured)
latency change    = 0.0475392
throughput change = 0.0242613
Warmed up ...Time used is 3000 cycles
Class 0:
Packet latency average = 23.1516
	minimum = 7
	maximum = 133
Network latency average = 23.1294
	minimum = 7
	maximum = 133
Slowest packet = 90952
Flit latency average = 23.392
	minimum = 7
	maximum = 133
Slowest flit = 90952
Fragmentation average = 0
	minimum = 0
	maximum = 0
Injected packet rate average = 0.202375
	minimum = 0.163 (at node 7)
	maximum = 0.222 (at node 2)
Accepted packet rate average = 0.202187
	minimum = 0.185 (at node 2)
	maximum = 0.219 (at node 12)
Injected flit rate average = 0.202375
	minimum = 0.163 (at node 7)
	maximum = 0.222 (at node 2)
Accepted flit rate average= 0.202187
	minimum = 0.185 (at node 2)
	maximum = 0.219 (at node 12)
Injected packet length average = 1
Accepted packet length average = 1
Total in-flight flits = 85 (85 measured)
latency change    = 0.0302503
throughput change = 0.00618238
Class 0:
Packet latency average = 23.3147
	minimum = 7
	maximum = 146
Network latency average = 23.2573
	minimum = 7
	maximum = 146
Slowest packet = 93663
Flit latency average = 23.3862
	minimum = 7
	maximum = 146
Slowest flit = 93663
Fragmentation average = 0
	minimum = 0
	maximum = 0
Injected packet rate average = 0.203437
	minimum = 0.1805 (at node 1)
	maximum = 0.2285 (at node 2)
Accepted packet rate average = 0.203531
	minimum = 0.1955 (at node 15)
	maximum = 0.2205 (at node 14)
Injected flit rate average = 0.203437
	minimum = 0.1805 (at node 1)
	maximum = 0.2285 (at node 2)
Accepted flit rate average= 0.203531
	minimum = 0.1955 (at node 15)
	maximum = 0.2205 (at node 14)
Injected packet length average = 1
Accepted packet length average = 1
Total in-flight flits = 79 (79 measured)
latency change    = 0.0069966
throughput change = 0.00660218
Class 0:
Packet latency average = 23.2399
	minimum = 7
	maximum = 146
Network latency average = 23.1953
	minimum = 7
	maximum = 146
Slowest packet = 93663
Flit latency average = 23.2826
	minimum = 7
	maximum = 146
Slowest flit = 93663
Fragmentation average = 0
	minimum = 0
	maximum = 0
Injected packet rate average = 0.201313
	minimum = 0.186 (at node 1)
	maximum = 0.213333 (at node 2)
Accepted packet rate average = 0.201583
	minimum = 0.187667 (at node 15)
	maximum = 0.216 (at node 14)
Injected flit rate average = 0.201313
	minimum = 0.186 (at node 1)
	maximum = 0.213333 (at node 2)
Accepted flit rate average= 0.201583
	minimum = 0.187667 (at node 15)
	maximum = 0.216 (at node 14)
Injected packet length average = 1
Accepted packet length average = 1
Total in-flight flits = 69 (69 measured)
latency change    = 0.0032179
throughput change = 0.00966308
Draining all recorded packets ...
Draining remaining packets ...
Time taken is 6099 cycles
Class 0:
Packet latency average = 23.0174
	minimum = 7
	maximum = 147
Network latency average = 22.9845
	minimum = 7
	maximum = 147
Slowest packet = 102275
Flit latency average = 22.9845
	minimum = 7
	maximum = 147
Slowest flit = 102275
Fragmentation average = 0
	minimum = 0
	maximum = 0
Injected packet rate average = 0.1985
	minimum = 0.181 (at node 13)
	maximum = 0.228 (at node 9)
Accepted packet rate average = 0.193875
	minimum = 0.175 (at node 3)
	maximum = 0.212 (at node 8)
Injected flit rate average = 0.1985
	minimum = 0.181 (at node 13)
	maximum = 0.228 (at node 9)
Accepted flit rate average= 0.193875
	minimum = 0.175 (at node 3)
	maximum = 0.212 (at node 8)
Injected packet length average = 1
Accepted packet length average = 1
Total in-flight flits = 74 (0 measured)
latency change    = 1
throughput change = 1
Class 0:
Packet latency average = 23.0224
	minimum = 7
	maximum = 172
Network latency average = 22.9864
	minimum = 7
	maximum = 172
Slowest packet = 106001
Flit latency average = 22.9864
	minimum = 7
	maximum = 172
Slowest flit = 106001
Fragmentation average = 0
	minimum = 0
	maximum = 0
Injected packet rate average = 0.199969
	minimum = 0.188 (at node 8)
	maximum = 0.214 (at node 10)
Accepted packet rate average = 0.197719
	minimum = 0.184 (at node 13)
	maximum = 0.206 (at node 8)
Injected flit rate average = 0.199969
	minimum = 0.188 (at node 8)
	maximum = 0.214 (at node 10)
Accepted flit rate average= 0.197719
	minimum = 0.184 (at node 13)
	maximum = 0.206 (at node 8)
Injected packet length average = 1
Accepted packet length average = 1
Total in-flight flits = 72 (0 measured)
latency change    = 0.000218716
throughput change = 0.0194405
Class 0:
Packet latency average = 23.5109
	minimum = 7
	maximum = 115
Network latency average = 23.4826
	minimum = 7
	maximum = 115
Slowest packet = 108295
Flit latency average = 23.4826
	minimum = 7
	maximum = 115
Slowest flit = 108295
Fragmentation average = 0
	minimum = 0
	maximum = 0
Injected packet rate average = 0.202875
	minimum = 0.187 (at node 8)
	maximum = 0.222 (at node 2)
Accepted packet rate average = 0.203063
	minimum = 0.172 (at node 2)
	maximum = 0.232 (at node 14)
Injected flit rate average = 0.202875
	minimum = 0.187 (at node 8)
	maximum = 0.222 (at node 2)
Accepted flit rate average= 0.203063
	minimum = 0.172 (at node 2)
	maximum = 0.232 (at node 14)
Injected packet length average = 1
Accepted packet length average = 1
Total in-flight flits = 69 (0 measured)
latency change    = 0.0207768
throughput change = 0.0263158
Warmed up ...Time used is 3000 cycles
Class 0:
Packet latency average = 22.9771
	minimum = 7
	maximum = 132
Network latency average = 22.9633
	minimum = 7
	maximum = 132
Slowest packet = 111842
Flit latency average = 23.0626
	minimum = 7
	maximum = 132
Slowest flit = 111842
Fragmentation average = 0
	minimum = 0
	maximum = 0
Injected packet rate average = 0.203813
	minimum = 0.184 (at node 9)
	maximum = 0.217 (at node 13)
Accepted packet rate average = 0.20375
	minimum = 0.188 (at node 2)
	maximum = 0.236 (at node 4)
Injected flit rate average = 0.203813
	minimum = 0.184 (at node 9)
	maximum = 0.217 (at node 13)
Accepted flit rate average= 0.20375
	minimum = 0.188 (at node 2)
	maximum = 0.236 (at node 4)
Injected packet length average = 1
Accepted packet length average = 1
Total in-flight flits = 71 (71 measured)
latency change    = 0.0232319
throughput change = 0.00337423
Class 0:
Packet latency average = 23.2548
	minimum = 7
	maximum = 136
Network latency average = 23.2243
	minimum = 7
	maximum = 136
Slowest packet = 113582
Flit latency average = 23.2716
	minimum = 7
	maximum = 136
Slowest flit = 113582
Fragmentation average = 0
	minimum = 0
	maximum = 0
Injected packet rate average = 0.202219
	minimum = 0.1855 (at node 15)
	maximum = 0.217 (at node 12)
Accepted packet rate average = 0.201844
	minimum = 0.1855 (at node 9)
	maximum = 0.2205 (at node 4)
Injected flit rate average = 0.202219
	minimum = 0.1855 (at node 15)
	maximum = 0.217 (at node 12)
Accepted flit rate average= 0.201844
	minimum = 0.1855 (at node 9)
	maximum = 0.2205 (at node 4)
Injected packet length average = 1
Accepted packet length average = 1
Total in-flight flits = 81 (81 measured)
latency change    = 0.0119395
throughput change = 0.00944419
Class 0:
Packet latency average = 23.3254
	minimum = 7
	maximum = 143
Network latency average = 23.3006
	minimum = 7
	maximum = 143
Slowest packet = 116239
Flit latency average = 23.3315
	minimum = 7
	maximum = 143
Slowest flit = 116239
Fragmentation average = 0
	minimum = 0
	maximum = 0
Injected packet rate average = 0.202813
	minimum = 0.188 (at node 9)
	maximum = 0.214333 (at node 8)
Accepted packet rate average = 0.202479
	minimum = 0.187 (at node 8)
	maximum = 0.227 (at node 4)
Injected flit rate average = 0.202813
	minimum = 0.188 (at node 9)
	maximum = 0.214333 (at node 8)
Accepted flit rate average= 0.202479
	minimum = 0.187 (at node 8)
	maximum = 0.227 (at node 4)
Injected packet length average = 1
Accepted packet length average = 1
Total in-flight flits = 85 (85 measured)
latency change    = 0.00302741
throughput change = 0.00313818
Draining all recorded packets ...
Draining remaining packets ...
Time taken is 6163 cycles
Class 0:
Packet latency average = 22.6459
	minimum = 7
	maximum = 159
Network latency average = 22.626
	minimum = 7
	maximum = 159
Slowest packet = 120578
Flit latency average = 22.626
	minimum = 7
	maximum = 159
Slowest flit = 120578
Fragmentation average = 0
	minimum = 0
	maximum = 0
Injected packet rate average = 0.203187
	minimum = 0.184 (at node 15)
	maximum = 0.219 (at node 0)
Accepted packet rate average = 0.198187
	minimum = 0.178 (at node 11)
	maximum = 0.222 (at node 2)
Injected flit rate average = 0.203187
	minimum = 0.184 (at node 15)
	maximum = 0.219 (at node 0)
Accepted flit rate average= 0.198187
	minimum = 0.178 (at node 11)
	maximum = 0.222 (at node 2)
Injected packet length average = 1
Accepted packet length average = 1
Total in-flight flits = 80 (0 measured)
latency change    = 1
throughput change = 1
Class 0:
Packet latency average = 22.9028
	minimum = 7
	maximum = 159
Network latency average = 22.8808
	minimum = 7
	maximum = 159
Slowest packet = 120578
Flit latency average = 22.8808
	minimum = 7
	maximum = 159
Slowest flit = 120578
Fragmentation average = 0
	minimum = 0
	maximum = 0
Injected packet rate average = 0.19875
	minimum = 0.1825 (at node 15)
	maximum = 0.211 (at node 0)
Accepted packet rate average = 0.196437
	minimum = 0.1825 (at node 11)
	maximum = 0.215 (at node 2)
Injected flit rate average = 0.19875
	minimum = 0.1825 (at node 15)
	maximum = 0.211 (at node 0)
Accepted flit rate average= 0.196437
	minimum = 0.1825 (at node 11)
	maximum = 0.215 (at node 2)
Injected packet length average = 1
Accepted packet length average = 1
Total in-flight flits = 74 (0 measured)
latency change    = 0.011219
throughput change = 0.00890869
Class 0:
Packet latency average = 23.2758
	minimum = 7
	maximum = 152
Network latency average = 23.2545
	minimum = 7
	maximum = 152
Slowest packet = 127748
Flit latency average = 23.2545
	minimum = 7
	maximum = 152
Slowest flit = 127748
Fragmentation average = 0
	minimum = 0
	maximum = 0
Injected packet rate average = 0.198813
	minimum = 0.186 (at node 2)
	maximum = 0.21 (at node 7)
Accepted packet rate average = 0.199437
	minimum = 0.167 (at node 7)
	maximum = 0.235 (at node 1)
Injected flit rate average = 0.198813
	minimum = 0.186 (at node 2)
	maximum = 0.21 (at node 7)
Accepted flit rate average= 0.199437
	minimum = 0.167 (at node 7)
	maximum = 0.235 (at node 1)
Injected packet length average = 1
Accepted packet length average = 1
Total in-flight flits = 64 (0 measured)
latency change    = 0.0160242
throughput change = 0.0150423
Warmed up ...Time used is 3000 cycles
Class 0:
Packet latency average = 23.1516
	minimum = 7
	maximum = 111
Network latency average = 23.1279
	minimum = 7
	maximum = 111
Slowest packet = 130583
Flit latency average = 23.3075
	minimum = 7
	maximum = 111
Slowest flit = 130583
Fragmentation average = 0
	minimum = 0
	maximum = 0
Injected packet rate average = 0.199563
	minimum = 0.185 (at node 14)
	maximum = 0.221 (at node 12)
Accepted packet rate average = 0.199
	minimum = 0.172 (at node 0)
	maximum = 0.218 (at node 6)
Injected flit rate average = 0.199563
	minimum = 0.185 (at node 14)
	maximum = 0.221 (at node 12)
Accepted flit rate average= 0.199
	minimum = 0.172 (at node 0)
	maximum = 0.218 (at node 6)
Injected packet length average = 1
Accepted packet length average = 1
Total in-flight flits = 73 (73 measured)
latency change    = 0.00536348
throughput change = 0.00219849
Class 0:
Packet latency average = 23.2796
	minimum = 7
	maximum = 122
Network latency average = 23.2508
	minimum = 7
	maximum = 122
Slowest packet = 134626
Flit latency average = 23.3391
	minimum = 7
	maximum = 122
Slowest flit = 134626
Fragmentation average = 0
	minimum = 0
	maximum = 0
Injected packet rate average = 0.199219
	minimum = 0.19 (at node 7)
	maximum = 0.217 (at node 4)
Accepted packet rate average = 0.1995
	minimum = 0.184 (at node 4)
	maximum = 0.216 (at node 10)
Injected flit rate average = 0.199219
	minimum = 0.19 (at node 7)
	maximum = 0.217 (at node 4)
Accepted flit rate average= 0.1995
	minimum = 0.184 (at node 4)
	maximum = 0.216 (at node 10)
Injected packet length average = 1
Accepted packet length average = 1
Total in-flight flits = 55 (55 measured)
latency change    = 0.00549778
throughput change = 0.00250627
Class 0:
Packet latency average = 23.0175
	minimum = 7
	maximum = 122
Network latency average = 22.9894
	minimum = 7
	maximum = 122
Slowest packet = 134626
Flit latency average = 23.0504
	minimum = 7
	maximum = 122
Slowest flit = 134626
Fragmentation average = 0
	minimum = 0
	maximum = 0
Injected packet rate average = 0.198396
	minimum = 0.187667 (at node 15)
	maximum = 0.213 (at node 4)
Accepted packet rate average = 0.198229
	minimum = 0.188 (at node 2)
	maximum = 0.211667 (at node 6)
Injected flit rate average = 0.198396
	minimum = 0.187667 (at node 15)
	maximum = 0.213 (at node 4)
Accepted flit rate average= 0.198229
	minimum = 0.188 (at node 2)
	maximum = 0.211667 (at node 6)
Injected packet length average = 1
Accepted packet length average = 1
Total in-flight flits = 72 (72 measured)
latency change    = 0.0113883
throughput change = 0.00641093
Draining all recorded packets ...
Draining remaining packets ...
Time taken is 6145 cycles
Class 0:
Packet latency average = 23.9762
	minimum = 7
	maximum = 187
Network latency average = 23.9457
	minimum = 7
	maximum = 187
Slowest packet = 141648
Flit latency average = 23.9457
	minimum = 7
	maximum = 187
Slowest flit = 141648
Fragmentation average = 0
	minimum = 0
	maximum = 0
Injected packet rate average = 0.199437
	minimum = 0.183 (at node 13)
	maximum = 0.214 (at node 2)
Accepted packet rate average = 0.194625
	minimum = 0.155 (at node 8)
	maximum = 0.235 (at node 15)
Injected flit rate average = 0.199437
	minimum = 0.183 (at node 13)
	maximum = 0.214 (at node 2)
Accepted flit rate average= 0.194625
	minimum = 0.155 (at node 8)
	maximum = 0.235 (at node 15)
Injected packet length average = 1
Accepted packet length average = 1
Total in-flight flits = 77 (0 measured)
latency change    = 1
throughput change = 1
Class 0:
Packet latency average = 23.727
	minimum = 7
	maximum = 187
Network latency average = 23.6984
	minimum = 7
	maximum = 187
Slowest packet = 141648
Flit latency average = 23.6984
	minimum = 7
	maximum = 187
Slowest flit = 141648
Fragmentation average = 0
	minimum = 0
	maximum = 0
Injected packet rate average = 0.201313
	minimum = 0.1895 (at node 1)
	maximum = 0.218 (at node 14)
Accepted packet rate average = 0.198937
	minimum = 0.174 (at node 8)
	maximum = 0.214 (at node 4)
Injected flit rate average = 0.201313
	minimum = 0.1895 (at node 1)
	maximum = 0.218 (at node 14)
Accepted flit rate average= 0.198937
	minimum = 0.174 (at node 8)
	maximum = 0.214 (at node 4)
Injected packet length average = 1
Accepted packet length average = 1
Total in-flight flits = 76 (0 measured)
latency change    = 0.0105049
throughput change = 0.0216777
Class 0:
Packet latency average = 23.442
	minimum = 7
	maximum = 160
Network latency average = 23.4141
	minimum = 7
	maximum = 160
Slowest packet = 145636
Flit latency average = 23.4141
	minimum = 7
	maximum = 160
Slowest flit = 145636
Fragmentation average = 0
	minimum = 0
	maximum = 0
Injected packet rate average = 0.199437
	minimum = 0.179 (at node 13)
	maximum = 0.212 (at node 8)
Accepted packet rate average = 0.199375
	minimum = 0.172 (at node 13)
	maximum = 0.235 (at node 0)
Injected flit rate average = 0.199437
	minimum = 0.179 (at node 13)
	maximum = 0.212 (at node 8)
Accepted flit rate average= 0.199375
	minimum = 0.172 (at node 13)
	maximum = 0.235 (at node 0)
Injected packet length average = 1
Accepted packet length average = 1
Total in-flight flits = 77 (0 measured)
latency change    = 0.0121568
throughput change = 0.00219436
Warmed up ...Time used is 3000 cycles
Class 0:
Packet latency average = 22.9305
	minimum = 7
	maximum = 124
Network latency average = 22.8922
	minimum = 7
	maximum = 124
Slowest packet = 150909
Flit latency average = 23.0367
	minimum = 7
	maximum = 124
Slowest flit = 150909
Fragmentation average = 0
	minimum = 0
	maximum = 0
Injected packet rate average = 0.204125
	minimum = 0.183 (at node 5)
	maximum = 0.221 (at node 11)
Accepted packet rate average = 0.204313
	minimum = 0.181 (at node 0)
	maximum = 0.236 (at node 3)
Injected flit rate average = 0.204125
	minimum = 0.183 (at node 5)
	maximum = 0.221 (at node 11)
Accepted flit rate average= 0.204313
	minimum = 0.181 (at node 0)
	maximum = 0.236 (at node 3)
Injected packet length average = 1
Accepted packet length average = 1
Total in-flight flits = 74 (74 measured)
latency change    = 0.022309
throughput change = 0.0241664
Class 0:
Packet latency average = 22.7551
	minimum = 7
	maximum = 124
Network latency average = 22.7166
	minimum = 7
	maximum = 124
Slowest packet = 150909
Flit latency average = 22.7926
	minimum = 7
	maximum = 124
Slowest flit = 150909
Fragmentation average = 0
	minimum = 0
	maximum = 0
Injected packet rate average = 0.199813
	minimum = 0.181 (at node 3)
	maximum = 0.2125 (at node 9)
Accepted packet rate average = 0.199813
	minimum = 0.184 (at node 0)
	maximum = 0.218 (at node 3)
Injected flit rate average = 0.199813
	minimum = 0.181 (at node 3)
	maximum = 0.2125 (at node 9)
Accepted flit rate average= 0.199813
	minimum = 0.184 (at node 0)
	maximum = 0.218 (at node 3)
Injected packet length average = 1
Accepted packet length average = 1
Total in-flight flits = 77 (77 measured)
latency change    = 0.00770578
throughput change = 0.0225211
Class 0:
Packet latency average = 22.8132
	minimum = 7
	maximum = 124
Network latency average = 22.7828
	minimum = 7
	maximum = 124
Slowest packet = 150909
Flit latency average = 22.833
	minimum = 7
	maximum = 124
Slowest flit = 150909
Fragmentation average = 0
	minimum = 0
	maximum = 0
Injected packet rate average = 0.199333
	minimum = 0.180667 (at node 3)
	maximum = 0.209333 (at node 10)
Accepted packet rate average = 0.199521
	minimum = 0.182667 (at node 0)
	maximum = 0.212667 (at node 9)
Injected flit rate average = 0.199333
	minimum = 0.180667 (at node 3)
	maximum = 0.209333 (at node 10)
Accepted flit rate average= 0.199521
	minimum = 0.182667 (at node 0)
	maximum = 0.212667 (at node 9)
Injected packet length average = 1
Accepted packet length average = 1
Total in-flight flits = 68 (68 measured)
latency change    = 0.0025447
throughput change = 0.00146184
Draining all recorded packets ...
Draining remaining packets ...
Time taken is 6105 cycles
Class 0:
Packet latency average = 22.8957
	minimum = 7
	maximum = 108
Network latency average = 22.8523
	minimum = 7
	maximum = 108
Slowest packet = 160784
Flit latency average = 22.8523
	minimum = 7
	maximum = 108
Slowest flit = 160784
Fragmentation average = 0
	minimum = 0
	maximum = 0
Injected packet rate average = 0.206313
	minimum = 0.181 (at node 5)
	maximum = 0.223 (at node 6)
Accepted packet rate average = 0.201375
	minimum = 0.173 (at node 12)
	maximum = 0.224 (at node 1)
Injected flit rate average = 0.206313
	minimum = 0.181 (at node 5)
	maximum = 0.223 (at node 6)
Accepted flit rate average= 0.201375
	minimum = 0.173 (at node 12)
	maximum = 0.224 (at node 1)
Injected packet length average = 1
Accepted packet length average = 1
Total in-flight flits = 79 (0 measured)
latency change    = 1
throughput change = 1
Class 0:
Packet latency average = 23.0143
	minimum = 7
	maximum = 120
Network latency average = 22.9618
	minimum = 7
	maximum = 120
Slowest packet = 163292
Flit latency average = 22.9618
	minimum = 7
	maximum = 120
Slowest flit = 163292
Fragmentation average = 0
	minimum = 0
	maximum = 0
Injected packet rate average = 0.202844
	minimum = 0.1875 (at node 5)
	maximum = 0.2215 (at node 1)
Accepted packet rate average = 0.200625
	minimum = 0.168 (at node 12)
	maximum = 0.214 (at node 0)
Injected flit rate average = 0.202844
	minimum = 0.1875 (at node 5)
	maximum = 0.2215 (at node 1)
Accepted flit rate average= 0.200625
	minimum = 0.168 (at node 12)
	maximum = 0.214 (at node 0)
Injected packet length average = 1
Accepted packet length average = 1
Total in-flight flits = 71 (0 measured)
latency change    = 0.00515389
throughput change = 0.00373832
Class 0:
Packet latency average = 23.1086
	minimum = 7
	maximum = 137
Network latency average = 23.0974
	minimum = 7
	maximum = 137
Slowest packet = 166581
Flit latency average = 23.0974
	minimum = 7
	maximum = 137
Slowest flit = 166581
Fragmentation average = 0
	minimum = 0
	maximum = 0
Injected packet rate average = 0.200687
	minimum = 0.182 (at node 9)
	maximum = 0.214 (at node 14)
Accepted packet rate average = 0.200875
	minimum = 0.18 (at node 8)
	maximum = 0.226 (at node 11)
Injected flit rate average = 0.200687
	minimum = 0.182 (at node 9)
	maximum = 0.214 (at node 14)
Accepted flit rate average= 0.200875
	minimum = 0.18 (at node 8)
	maximum = 0.226 (at node 11)
Injected packet length average = 1
Accepted packet length average = 1
Total in-flight flits = 68 (0 measured)
latency change    = 0.00407888
throughput change = 0.00124456
Warmed up ...Time used is 3000 cycles
Class 0:
Packet latency average = 23.0766
	minimum = 7
	maximum = 122
Network latency average = 23.0257
	minimum = 7
	maximum = 122
Slowest packet = 170250
Flit latency average = 23.2106
	minimum = 7
	maximum = 122
Slowest flit = 170250
Fragmentation average = 0
	minimum = 0
	maximum = 0
Injected packet rate average = 0.203
	minimum = 0.173 (at node 2)
	maximum = 0.225 (at node 5)
Accepted packet rate average = 0.203313
	minimum = 0.179 (at node 3)
	maximum = 0.231 (at node 12)
Injected flit rate average = 0.203
	minimum = 0.173 (at node 2)
	maximum = 0.225 (at node 5)
Accepted flit rate average= 0.203313
	minimum = 0.179 (at node 3)
	maximum = 0.231 (at node 12)
Injected packet length average = 1
Accepted packet length average = 1
Total in-flight flits = 63 (63 measured)
latency change    = 0.00138575
throughput change = 0.0119889
Class 0:
Packet latency average = 23.12
	minimum = 7
	maximum = 129
Network latency average = 23.0829
	minimum = 7
	maximum = 129
Slowest packet = 173451
Flit latency average = 23.176
	minimum = 7
	maximum = 129
Slowest flit = 173451
Fragmentation average = 0
	minimum = 0
	maximum = 0
Injected packet rate average = 0.200687
	minimum = 0.1775 (at node 2)
	maximum = 0.215 (at node 5)
Accepted packet rate average = 0.2005
	minimum = 0.1935 (at node 2)
	maximum = 0.2085 (at node 11)
Injected flit rate average = 0.200687
	minimum = 0.1775 (at node 2)
	maximum = 0.215 (at node 5)
Accepted flit rate average= 0.2005
	minimum = 0.1935 (at node 2)
	maximum = 0.2085 (at node 11)
Injected packet length average = 1
Accepted packet length average = 1
Total in-flight flits = 74 (74 measured)
latency change    = 0.0018784
throughput change = 0.0140274
Class 0:
Packet latency average = 23.1827
	minimum = 7
	maximum = 129
Network latency average = 23.1478
	minimum = 7
	maximum = 129
Slowest packet = 173451
Flit latency average = 23.2094
	minimum = 7
	maximum = 129
Slowest flit = 173451
Fragmentation average = 0
	minimum = 0
	maximum = 0
Injected packet rate average = 0.200187
	minimum = 0.177667 (at node 2)
	maximum = 0.211333 (at node 10)
Accepted packet rate average = 0.200354
	minimum = 0.191 (at node 5)
	maximum = 0.206667 (at node 8)
Injected flit rate average = 0.200187
	minimum = 0.177667 (at node 2)
	maximum = 0.211333 (at node 10)
Accepted flit rate average= 0.200354
	minimum = 0.191 (at node 5)
	maximum = 0.206667 (at node 8)
Injected packet length average = 1
Accepted packet length average = 1
Total in-flight flits = 60 (60 measured)
latency change    = 0.00270476
throughput change = 0.000727878
Draining all recorded packets ...
Draining remaining packets ...
Time taken is 6092 cycles
Class 0:
Packet latency average = 22.9946
	minimum = 7
	maximum = 126
Network latency average = 22.9811
	minimum = 7
	maximum = 126
Slowest packet = 179422
Flit latency average = 22.9811
	minimum = 7
	maximum = 126
Slowest flit = 179422
Fragmentation average = 0
	minimum = 0
	maximum = 0
Injected packet rate average = 0.200313
	minimum = 0.176 (at node 1)
	maximum = 0.232 (at node 5)
Accepted packet rate average = 0.195312
	minimum = 0.17 (at node 1)
	maximum = 0.22 (at node 9)
Injected flit rate average = 0.200313
	minimum = 0.176 (at node 1)
	maximum = 0.232 (at node 5)
Accepted flit rate average= 0.195312
	minimum = 0.17 (at node 1)
	maximum = 0.22 (at node 9)
Injected packet length average = 1
Accepted packet length average = 1
Total in-flight flits = 80 (0 measured)
latency change    = 1
throughput change = 1
Class 0:
Packet latency average = 23.6618
	minimum = 7
	maximum = 141
Network latency average = 23.6176
	minimum = 7
	maximum = 141
Slowest packet = 182973
Flit latency average = 23.6176
	minimum = 7
	maximum = 141
Slowest flit = 182973
Fragmentation average = 0
	minimum = 0
	maximum = 0
Injected packet rate average = 0.2
	minimum = 0.189 (at node 1)
	maximum = 0.2205 (at node 5)
Accepted packet rate average = 0.198031
	minimum = 0.1805 (at node 3)
	maximum = 0.216 (at node 12)
Injected flit rate average = 0.2
	minimum = 0.189 (at node 1)
	maximum = 0.2205 (at node 5)
Accepted flit rate average= 0.198031
	minimum = 0.1805 (at node 3)
	maximum = 0.216 (at node 12)
Injected packet length average = 1
Accepted packet length average = 1
Total in-flight flits = 63 (0 measured)
latency change    = 0.0282002
throughput change = 0.0137289
Class 0:
Packet latency average = 23.2634
	minimum = 7
	maximum = 117
Network latency average = 23.196
	minimum = 7
	maximum = 117
Slowest packet = 184353
Flit latency average = 23.196
	minimum = 7
	maximum = 117
Slowest flit = 184353
Fragmentation average = 0
	minimum = 0
	maximum = 0
Injected packet rate average = 0.207687
	minimum = 0.194 (at node 5)
	maximum = 0.228 (at node 10)
Accepted packet rate average = 0.206937
	minimum = 0.182 (at node 11)
	maximum = 0.237 (at node 9)
Injected flit rate average = 0.207687
	minimum = 0.194 (at node 5)
	maximum = 0.228 (at node 10)
Accepted flit rate average= 0.206937
	minimum = 0.182 (at node 11)
	maximum = 0.237 (at node 9)
Injected packet length average = 1
Accepted packet length average = 1
Total in-flight flits = 75 (0 measured)
latency change    = 0.0171283
throughput change = 0.0430384
Warmed up ...Time used is 3000 cycles
Class 0:
Packet latency average = 23.2432
	minimum = 7
	maximum = 121
Network latency average = 23.2181
	minimum = 7
	maximum = 121
Slowest packet = 190892
Flit latency average = 23.4259
	minimum = 7
	maximum = 140
Slowest flit = 187594
Fragmentation average = 0
	minimum = 0
	maximum = 0
Injected packet rate average = 0.206563
	minimum = 0.182 (at node 0)
	maximum = 0.227 (at node 4)
Accepted packet rate average = 0.206187
	minimum = 0.185 (at node 1)
	maximum = 0.232 (at node 11)
Injected flit rate average = 0.206563
	minimum = 0.182 (at node 0)
	maximum = 0.227 (at node 4)
Accepted flit rate average= 0.206187
	minimum = 0.185 (at node 1)
	maximum = 0.232 (at node 11)
Injected packet length average = 1
Accepted packet length average = 1
Total in-flight flits = 81 (81 measured)
latency change    = 0.000868572
throughput change = 0.00363747
Class 0:
Packet latency average = 23.6008
	minimum = 7
	maximum = 176
Network latency average = 23.5664
	minimum = 7
	maximum = 176
Slowest packet = 192053
Flit latency average = 23.6674
	minimum = 7
	maximum = 176
Slowest flit = 192053
Fragmentation average = 0
	minimum = 0
	maximum = 0
Injected packet rate average = 0.204125
	minimum = 0.188 (at node 8)
	maximum = 0.218 (at node 4)
Accepted packet rate average = 0.204156
	minimum = 0.1845 (at node 12)
	maximum = 0.2185 (at node 6)
Injected flit rate average = 0.204125
	minimum = 0.188 (at node 8)
	maximum = 0.218 (at node 4)
Accepted flit rate average= 0.204156
	minimum = 0.1845 (at node 12)
	maximum = 0.2185 (at node 6)
Injected packet length average = 1
Accepted packet length average = 1
Total in-flight flits = 74 (74 measured)
latency change    = 0.0151533
throughput change = 0.00994949
Class 0:
Packet latency average = 23.6822
	minimum = 7
	maximum = 176
Network latency average = 23.6395
	minimum = 7
	maximum = 176
Slowest packet = 192053
Flit latency average = 23.7063
	minimum = 7
	maximum = 176
Slowest flit = 192053
Fragmentation average = 0
	minimum = 0
	maximum = 0
Injected packet rate average = 0.204292
	minimum = 0.191667 (at node 3)
	maximum = 0.216333 (at node 1)
Accepted packet rate average = 0.204125
	minimum = 0.193 (at node 12)
	maximum = 0.217667 (at node 2)
Injected flit rate average = 0.204292
	minimum = 0.191667 (at node 3)
	maximum = 0.216333 (at node 1)
Accepted flit rate average= 0.204125
	minimum = 0.193 (at node 12)
	maximum = 0.217667 (at node 2)
Injected packet length average = 1
Accepted packet length average = 1
Total in-flight flits = 84 (84 measured)
latency change    = 0.00343683
throughput change = 0.000153092
Draining all recorded packets ...
Draining remaining packets ...
Time taken is 6126 cycles
Class 0:
Packet latency average = 23.1189
	minimum = 7
	maximum = 139
Network latency average = 23.0968
	minimum = 7
	maximum = 139
Slowest packet = 199236
Flit latency average = 23.0968
	minimum = 7
	maximum = 139
Slowest flit = 199236
Fragmentation average = 0
	minimum = 0
	maximum = 0
Injected packet rate average = 0.197437
	minimum = 0.174 (at node 15)
	maximum = 0.215 (at node 13)
Accepted packet rate average = 0.191812
	minimum = 0.167 (at node 8)
	maximum = 0.226 (at node 3)
Injected flit rate average = 0.197437
	minimum = 0.174 (at node 15)
	maximum = 0.215 (at node 13)
Accepted flit rate average= 0.191812
	minimum = 0.167 (at node 8)
	maximum = 0.226 (at node 3)
Injected packet length average = 1
Accepted packet length average = 1
Total in-flight flits = 90 (0 measured)
latency change    = 1
throughput change = 1
Class 0:
Packet latency average = 23.4444
	minimum = 7
	maximum = 139
Network latency average = 23.4179
	minimum = 7
	maximum = 139
Slowest packet = 199236
Flit latency average = 23.4179
	minimum = 7
	maximum = 139
Slowest flit = 199236
Fragmentation average = 0
	minimum = 0
	maximum = 0
Injected packet rate average = 0.199875
	minimum = 0.18 (at node 7)
	maximum = 0.217 (at node 9)
Accepted packet rate average = 0.197437
	minimum = 0.185 (at node 8)
	maximum = 0.2185 (at node 3)
Injected flit rate average = 0.199875
	minimum = 0.18 (at node 7)
	maximum = 0.217 (at node 9)
Accepted flit rate average= 0.197437
	minimum = 0.185 (at node 8)
	maximum = 0.2185 (at node 3)
Injected packet length average = 1
Accepted packet length average = 1
Total in-flight flits = 78 (0 measured)
latency change    = 0.0138844
throughput change = 0.02849
Class 0:
Packet latency average = 23.2165
	minimum = 7
	maximum = 145
Network latency average = 23.1857
	minimum = 7
	maximum = 145
Slowest packet = 204121
Flit latency average = 23.1857
	minimum = 7
	maximum = 145
Slowest flit = 204121
Fragmentation average = 0
	minimum = 0
	maximum = 0
Injected packet rate average = 0.195
	minimum = 0.176 (at node 5)
	maximum = 0.22 (at node 4)
Accepted packet rate average = 0.196563
	minimum = 0.174 (at node 13)
	maximum = 0.215 (at node 0)
Injected flit rate average = 0.195
	minimum = 0.176 (at node 5)
	maximum = 0.22 (at node 4)
Accepted flit rate average= 0.196563
	minimum = 0.174 (at node 13)
	maximum = 0.215 (at node 0)
Injected packet length average = 1
Accepted packet length average = 1
Total in-flight flits = 53 (0 measured)
latency change    = 0.00981672
throughput change = 0.00445151
Warmed up ...Time used is 3000 cycles
Class 0:
Packet latency average = 23.2323
	minimum = 7
	maximum = 137
Network latency average = 23.221
	minimum = 7
	maximum = 137
Slowest packet = 209127
Flit latency average = 23.3663
	minimum = 7
	maximum = 137
Slowest flit = 209127
Fragmentation average = 0
	minimum = 0
	maximum = 0
Injected packet rate average = 0.197625
	minimum = 0.176 (at node 13)
	maximum = 0.214 (at node 12)
Accepted packet rate average = 0.19675
	minimum = 0.184 (at node 1)
	maximum = 0.211 (at node 9)
Injected flit rate average = 0.197625
	minimum = 0.176 (at node 13)
	maximum = 0.214 (at node 12)
Accepted flit rate average= 0.19675
	minimum = 0.184 (at node 1)
	maximum = 0.211 (at node 9)
Injected packet length average = 1
Accepted packet length average = 1
Total in-flight flits = 67 (67 measured)
latency change    = 0.000679054
throughput change = 0.000952986
Class 0:
Packet latency average = 23.3969
	minimum = 7
	maximum = 137
Network latency average = 23.3746
	minimum = 7
	maximum = 137
Slowest packet = 209127
Flit latency average = 23.4461
	minimum = 7
	maximum = 137
Slowest flit = 209127
Fragmentation average = 0
	minimum = 0
	maximum = 0
Injected packet rate average = 0.196875
	minimum = 0.184 (at node 6)
	maximum = 0.22 (at node 12)
Accepted packet rate average = 0.196437
	minimum = 0.1835 (at node 2)
	maximum = 0.209 (at node 0)
Injected flit rate average = 0.196875
	minimum = 0.184 (at node 6)
	maximum = 0.22 (at node 12)
Accepted flit rate average= 0.196437
	minimum = 0.1835 (at node 2)
	maximum = 0.209 (at node 0)
Injected packet length average = 1
Accepted packet length average = 1
Total in-flight flits = 67 (67 measured)
latency change    = 0.00703552
throughput change = 0.00159084
Class 0:
Packet latency average = 23.3554
	minimum = 7
	maximum = 137
Network latency average = 23.3354
	minimum = 7
	maximum = 137
Slowest packet = 209127
Flit latency average = 23.3829
	minimum = 7
	maximum = 137
Slowest flit = 209127
Fragmentation average = 0
	minimum = 0
	maximum = 0
Injected packet rate average = 0.198458
	minimum = 0.186 (at node 6)
	maximum = 0.211 (at node 12)
Accepted packet rate average = 0.197875
	minimum = 0.187667 (at node 14)
	maximum = 0.210333 (at node 11)
Injected flit rate average = 0.198458
	minimum = 0.186 (at node 6)
	maximum = 0.211 (at node 12)
Accepted flit rate average= 0.197875
	minimum = 0.187667 (at node 14)
	maximum = 0.210333 (at node 11)
Injected packet length average = 1
Accepted packet length average = 1
Total in-flight flits = 81 (81 measured)
latency change    = 0.00177661
throughput change = 0.00726469
Draining all recorded packets ...
Draining remaining packets ...
Time taken is 6091 cycles
Class 0:
Packet latency average = 22.804
	minimum = 7
	maximum = 106
Network latency average = 22.7595
	minimum = 7
	maximum = 106
Slowest packet = 218326
Flit latency average = 22.7595
	minimum = 7
	maximum = 106
Slowest flit = 218326
Fragmentation average = 0
	minimum = 0
	maximum = 0
Injected packet rate average = 0.200687
	minimum = 0.174 (at node 6)
	maximum = 0.224 (at node 15)
Accepted packet rate average = 0.196437
	minimum = 0.177 (at node 15)
	maximum = 0.218 (at node 7)
Injected flit rate average = 0.200687
	minimum = 0.174 (at node 6)
	maximum = 0.224 (at node 15)
Accepted flit rate average= 0.196437
	minimum = 0.177 (at node 15)
	maximum = 0.218 (at node 7)
Injected packet length average = 1
Accepted packet length average = 1
Total in-flight flits = 69 (0 measured)
latency change    = 1
throughput change = 1
Class 0:
Packet latency average = 22.7323
	minimum = 7
	maximum = 106
Network latency average = 22.7052
	minimum = 7
	maximum = 106
Slowest packet = 218326
Flit latency average = 22.7052
	minimum = 7
	maximum = 106
Slowest flit = 218326
Fragmentation average = 0
	minimum = 0
	maximum = 0
Injected packet rate average = 0.199344
	minimum = 0.1775 (at node 9)
	maximum = 0.214 (at node 15)
Accepted packet rate average = 0.197156
	minimum = 0.1845 (at node 0)
	maximum = 0.212 (at node 7)
Injected flit rate average = 0.199344
	minimum = 0.1775 (at node 9)
	maximum = 0.214 (at node 15)
Accepted flit rate average= 0.197156
	minimum = 0.1845 (at node 0)
	maximum = 0.212 (at node 7)
Injected packet length average = 1
Accepted packet length average = 1
Total in-flight flits = 70 (0 measured)
latency change    = 0.00315506
throughput change = 0.00364559
Class 0:
Packet latency average = 22.9584
	minimum = 7
	maximum = 111
Network latency average = 22.942
	minimum = 7
	maximum = 111
Slowest packet = 226247
Flit latency average = 22.942
	minimum = 7
	maximum = 111
Slowest flit = 226247
Fragmentation average = 0
	minimum = 0
	maximum = 0
Injected packet rate average = 0.202875
	minimum = 0.189 (at node 3)
	maximum = 0.226 (at node 7)
Accepted packet rate average = 0.202625
	minimum = 0.172 (at node 3)
	maximum = 0.228 (at node 15)
Injected flit rate average = 0.202875
	minimum = 0.189 (at node 3)
	maximum = 0.226 (at node 7)
Accepted flit rate average= 0.202625
	minimum = 0.172 (at node 3)
	maximum = 0.228 (at node 15)
Injected packet length average = 1
Accepted packet length average = 1
Total in-flight flits = 74 (0 measured)
latency change    = 0.00984704
throughput change = 0.0269895
Warmed up ...Time used is 3000 cycles
Class 0:
Packet latency average = 22.9338
	minimum = 7
	maximum = 127
Network latency average = 22.9185
	minimum = 7
	maximum = 127
Slowest packet = 228783
Flit latency average = 23.0117
	minimum = 7
	maximum = 127
Slowest flit = 228783
Fragmentation average = 0
	minimum = 0
	maximum = 0
Injected packet rate average = 0.197937
	minimum = 0.181 (at node 13)
	maximum = 0.233 (at node 4)
Accepted packet rate average = 0.197187
	minimum = 0.179 (at node 2)
	maximum = 0.23 (at node 4)
Injected flit rate average = 0.197937
	minimum = 0.181 (at node 13)
	maximum = 0.233 (at node 4)
Accepted flit rate average= 0.197187
	minimum = 0.179 (at node 2)
	maximum = 0.23 (at node 4)
Injected packet length average = 1
Accepted packet length average = 1
Total in-flight flits = 86 (86 measured)
latency change    = 0.0010714
throughput change = 0.0275753
Class 0:
Packet latency average = 23.0694
	minimum = 7
	maximum = 155
Network latency average = 23.0424
	minimum = 7
	maximum = 155
Slowest packet = 232035
Flit latency average = 23.0865
	minimum = 7
	maximum = 155
Slowest flit = 232035
Fragmentation average = 0
	minimum = 0
	maximum = 0
Injected packet rate average = 0.201875
	minimum = 0.184 (at node 0)
	maximum = 0.2165 (at node 4)
Accepted packet rate average = 0.201844
	minimum = 0.192 (at node 14)
	maximum = 0.2255 (at node 4)
Injected flit rate average = 0.201875
	minimum = 0.184 (at node 0)
	maximum = 0.2165 (at node 4)
Accepted flit rate average= 0.201844
	minimum = 0.192 (at node 14)
	maximum = 0.2255 (at node 4)
Injected packet length average = 1
Accepted packet length average = 1
Total in-flight flits = 75 (75 measured)
latency change    = 0.00587764
throughput change = 0.0230686
Class 0:
Packet latency average = 23.2259
	minimum = 7
	maximum = 181
Network latency average = 23.1956
	minimum = 7
	maximum = 181
Slowest packet = 234787
Flit latency average = 23.224
	minimum = 7
	maximum = 181
Slowest flit = 234787
Fragmentation average = 0
	minimum = 0
	maximum = 0
Injected packet rate average = 0.2015
	minimum = 0.189667 (at node 14)
	maximum = 0.218333 (at node 4)
Accepted packet rate average = 0.201208
	minimum = 0.185667 (at node 9)
	maximum = 0.222667 (at node 4)
Injected flit rate average = 0.2015
	minimum = 0.189667 (at node 14)
	maximum = 0.218333 (at node 4)
Accepted flit rate average= 0.201208
	minimum = 0.185667 (at node 9)
	maximum = 0.222667 (at node 4)
Injected packet length average = 1
Accepted packet length average = 1
Total in-flight flits = 88 (88 measured)
latency change    = 0.00673886
throughput change = 0.003158
Draining all recorded packets ...
Draining remaining packets ...
Time taken is 6101 cycles
Class 0:
Packet latency average = 23.4406
	minimum = 7
	maximum = 117
Network latency average = 23.3982
	minimum = 7
	maximum = 117
Slowest packet = 238955
Flit latency average = 23.3982
	minimum = 7
	maximum = 117
Slowest flit = 238955
Fragmentation average = 0
	minimum = 0
	maximum = 0
Injected packet rate average = 0.198875
	minimum = 0.178 (at node 4)
	maximum = 0.224 (at node 11)
Accepted packet rate average = 0.194625
	minimum = 0.167 (at node 15)
	maximum = 0.234 (at node 11)
Injected flit rate average = 0.198875
	minimum = 0.178 (at node 4)
	maximum = 0.224 (at node 11)
Accepted flit rate average= 0.194625
	minimum = 0.167 (at node 15)
	maximum = 0.234 (at node 11)
Injected packet length average = 1
Accepted packet length average = 1
Total in-flight flits = 68 (0 measured)
latency change    = 1
throughput change = 1
Class 0:
Packet latency average = 23.7076
	minimum = 7
	maximum = 126
Network latency average = 23.6739
	minimum = 7
	maximum = 126
Slowest packet = 241942
Flit latency average = 23.6739
	minimum = 7
	maximum = 126
Slowest flit = 241942
Fragmentation average = 0
	minimum = 0
	maximum = 0
Injected packet rate average = 0.198469
	minimum = 0.1885 (at node 14)
	maximum = 0.2175 (at node 1)
Accepted packet rate average = 0.196187
	minimum = 0.1725 (at node 15)
	maximum = 0.2225 (at node 10)
Injected flit rate average = 0.198469
	minimum = 0.1885 (at node 14)
	maximum = 0.2175 (at node 1)
Accepted flit rate average= 0.196187
	minimum = 0.1725 (at node 15)
	maximum = 0.2225 (at node 10)
Injected packet length average = 1
Accepted packet length average = 1
Total in-flight flits = 73 (0 measured)
latency change    = 0.0112605
throughput change = 0.00796432
Class 0:
Packet latency average = 23.6271
	minimum = 7
	maximum = 114
Network latency average = 23.609
	minimum = 7
	maximum = 114
Slowest packet = 244840
Flit latency average = 23.609
	minimum = 7
	maximum = 114
Slowest flit = 244840
Fragmentation average = 0
	minimum = 0
	maximum = 0
Injected packet rate average = 0.20325
	minimum = 0.181 (at node 12)
	maximum = 0.228 (at node 6)
Accepted packet rate average = 0.203313
	minimum = 0.172 (at node 13)
	maximum = 0.228 (at node 4)
Injected flit rate average = 0.20325
	minimum = 0.181 (at node 12)
	maximum = 0.228 (at node 6)
Accepted flit rate average= 0.203313
	minimum = 0.172 (at node 13)
	maximum = 0.228 (at node 4)
Injected packet length average = 1
Accepted packet length average = 1
Total in-flight flits = 72 (0 measured)
latency change    = 0.00340443
throughput change = 0.0350446
Warmed up ...Time used is 3000 cycles
Class 0:
Packet latency average = 23.4662
	minimum = 7
	maximum = 180
Network latency average = 23.4497
	minimum = 7
	maximum = 180
Slowest packet = 248569
Flit latency average = 23.581
	minimum = 7
	maximum = 180
Slowest flit = 248569
Fragmentation average = 0
	minimum = 0
	maximum = 0
Injected packet rate average = 0.202813
	minimum = 0.175 (at node 6)
	maximum = 0.231 (at node 2)
Accepted packet rate average = 0.202125
	minimum = 0.178 (at node 9)
	maximum = 0.218 (at node 15)
Injected flit rate average = 0.202813
	minimum = 0.175 (at node 6)
	maximum = 0.231 (at node 2)
Accepted flit rate average= 0.202125
	minimum = 0.178 (at node 9)
	maximum = 0.218 (at node 15)
Injected packet length average = 1
Accepted packet length average = 1
Total in-flight flits = 83 (83 measured)
latency change    = 0.00685893
throughput change = 0.00587508
Class 0:
Packet latency average = 23.6459
	minimum = 7
	maximum = 180
Network latency average = 23.5733
	minimum = 7
	maximum = 180
Slowest packet = 248569
Flit latency average = 23.6371
	minimum = 7
	maximum = 180
Slowest flit = 248569
Fragmentation average = 0
	minimum = 0
	maximum = 0
Injected packet rate average = 0.20375
	minimum = 0.1835 (at node 14)
	maximum = 0.2165 (at node 5)
Accepted packet rate average = 0.203563
	minimum = 0.1805 (at node 9)
	maximum = 0.222 (at node 13)
Injected flit rate average = 0.20375
	minimum = 0.1835 (at node 14)
	maximum = 0.2165 (at node 5)
Accepted flit rate average= 0.203563
	minimum = 0.1805 (at node 9)
	maximum = 0.222 (at node 13)
Injected packet length average = 1
Accepted packet length average = 1
Total in-flight flits = 78 (78 measured)
latency change    = 0.00760202
throughput change = 0.00706171
Class 0:
Packet latency average = 23.6901
	minimum = 7
	maximum = 180
Network latency average = 23.6301
	minimum = 7
	maximum = 180
Slowest packet = 248569
Flit latency average = 23.6721
	minimum = 7
	maximum = 180
Slowest flit = 248569
Fragmentation average = 0
	minimum = 0
	maximum = 0
Injected packet rate average = 0.20375
	minimum = 0.184667 (at node 14)
	maximum = 0.219 (at node 12)
Accepted packet rate average = 0.203917
	minimum = 0.186667 (at node 9)
	maximum = 0.224667 (at node 13)
Injected flit rate average = 0.20375
	minimum = 0.184667 (at node 14)
	maximum = 0.219 (at node 12)
Accepted flit rate average= 0.203917
	minimum = 0.186667 (at node 9)
	maximum = 0.224667 (at node 13)
Injected packet length average = 1
Accepted packet length average = 1
Total in-flight flits = 64 (64 measured)
latency change    = 0.00186497
throughput change = 0.00173682
Draining all recorded packets ...
Draining remaining packets ...
Time taken is 6132 cycles
Class 0:
Packet latency average = 23.2685
	minimum = 7
	maximum = 150
Network latency average = 23.2359
	minimum = 7
	maximum = 150
Slowest packet = 258210
Flit latency average = 23.2359
	minimum = 7
	maximum = 150
Slowest flit = 258210
Fragmentation average = 0
	minimum = 0
	maximum = 0
Injected packet rate average = 0.202313
	minimum = 0.187 (at node 9)
	maximum = 0.224 (at node 15)
Accepted packet rate average = 0.197875
	minimum = 0.168 (at node 4)
	maximum = 0.222 (at node 14)
Injected flit rate average = 0.202313
	minimum = 0.187 (at node 9)
	maximum = 0.224 (at node 15)
Accepted flit rate average= 0.197875
	minimum = 0.168 (at node 4)
	maximum = 0.222 (at node 14)
Injected packet length average = 1
Accepted packet length average = 1
Total in-flight flits = 71 (0 measured)
latency change    = 1
throughput change = 1
Class 0:
Packet latency average = 23.3004
	minimum = 7
	maximum = 150
Network latency average = 23.2626
	minimum = 7
	maximum = 150
Slowest packet = 258210
Flit latency average = 23.2626
	minimum = 7
	maximum = 150
Slowest flit = 258210
Fragmentation average = 0
	minimum = 0
	maximum = 0
Injected packet rate average = 0.201344
	minimum = 0.176 (at node 9)
	maximum = 0.2155 (at node 15)
Accepted packet rate average = 0.199187
	minimum = 0.1855 (at node 13)
	maximum = 0.2165 (at node 14)
Injected flit rate average = 0.201344
	minimum = 0.176 (at node 9)
	maximum = 0.2155 (at node 15)
Accepted flit rate average= 0.199187
	minimum = 0.1855 (at node 13)
	maximum = 0.2165 (at node 14)
Injected packet length average = 1
Accepted packet length average = 1
Total in-flight flits = 69 (0 measured)
latency change    = 0.00137172
throughput change = 0.00658927
Class 0:
Packet latency average = 23.3336
	minimum = 7
	maximum = 157
Network latency average = 23.2339
	minimum = 7
	maximum = 157
Slowest packet = 263999
Flit latency average = 23.2339
	minimum = 7
	maximum = 157
Slowest flit = 263999
Fragmentation average = 0
	minimum = 0
	maximum = 0
Injected packet rate average = 0.200563
	minimum = 0.183 (at node 14)
	maximum = 0.225 (at node 9)
Accepted packet rate average = 0.201187
	minimum = 0.181 (at node 4)
	maximum = 0.223 (at node 13)
Injected flit rate average = 0.200563
	minimum = 0.183 (at node 14)
	maximum = 0.225 (at node 9)
Accepted flit rate average= 0.201187
	minimum = 0.181 (at node 4)
	maximum = 0.223 (at node 13)
Injected packet length average = 1
Accepted packet length average = 1
Total in-flight flits = 59 (0 measured)
latency change    = 0.00142304
throughput change = 0.00994098
Warmed up ...Time used is 3000 cycles
Class 0:
Packet latency average = 23.1991
	minimum = 7
	maximum = 110
Network latency average = 23.1782
	minimum = 7
	maximum = 110
Slowest packet = 266754
Flit latency average = 23.2336
	minimum = 7
	maximum = 110
Slowest flit = 266754
Fragmentation average = 0
	minimum = 0
	maximum = 0
Injected packet rate average = 0.198813
	minimum = 0.175 (at node 7)
	maximum = 0.219 (at node 15)
Accepted packet rate average = 0.198
	minimum = 0.179 (at node 2)
	maximum = 0.212 (at node 12)
Injected flit rate average = 0.198813
	minimum = 0.175 (at node 7)
	maximum = 0.219 (at node 15)
Accepted flit rate average= 0.198
	minimum = 0.179 (at node 2)
	maximum = 0.212 (at node 12)
Injected packet length average = 1
Accepted packet length average = 1
Total in-flight flits = 72 (72 measured)
latency change    = 0.00579956
throughput change = 0.0160985
Class 0:
Packet latency average = 23.239
	minimum = 7
	maximum = 117
Network latency average = 23.2192
	minimum = 7
	maximum = 117
Slowest packet = 270629
Flit latency average = 23.2466
	minimum = 7
	maximum = 117
Slowest flit = 270629
Fragmentation average = 0
	minimum = 0
	maximum = 0
Injected packet rate average = 0.198031
	minimum = 0.183 (at node 2)
	maximum = 0.2185 (at node 6)
Accepted packet rate average = 0.197437
	minimum = 0.1795 (at node 2)
	maximum = 0.2105 (at node 9)
Injected flit rate average = 0.198031
	minimum = 0.183 (at node 2)
	maximum = 0.2185 (at node 6)
Accepted flit rate average= 0.197437
	minimum = 0.1795 (at node 2)
	maximum = 0.2105 (at node 9)
Injected packet length average = 1
Accepted packet length average = 1
Total in-flight flits = 78 (78 measured)
latency change    = 0.00171765
throughput change = 0.002849
Class 0:
Packet latency average = 23.2265
	minimum = 7
	maximum = 143
Network latency average = 23.1999
	minimum = 7
	maximum = 143
Slowest packet = 273158
Flit latency average = 23.2182
	minimum = 7
	maximum = 143
Slowest flit = 273158
Fragmentation average = 0
	minimum = 0
	maximum = 0
Injected packet rate average = 0.198833
	minimum = 0.184 (at node 7)
	maximum = 0.213 (at node 6)
Accepted packet rate average = 0.198187
	minimum = 0.185333 (at node 4)
	maximum = 0.210333 (at node 15)
Injected flit rate average = 0.198833
	minimum = 0.184 (at node 7)
	maximum = 0.213 (at node 6)
Accepted flit rate average= 0.198187
	minimum = 0.185333 (at node 4)
	maximum = 0.210333 (at node 15)
Injected packet length average = 1
Accepted packet length average = 1
Total in-flight flits = 90 (90 measured)
latency change    = 0.000540368
throughput change = 0.0037843
Draining all recorded packets ...
Draining remaining packets ...
Time taken is 6172 cycles
Class 0:
Packet latency average = 23.0569
	minimum = 7
	maximum = 143
Network latency average = 23.0504
	minimum = 7
	maximum = 143
Slowest packet = 276726
Flit latency average = 23.0504
	minimum = 7
	maximum = 143
Slowest flit = 276726
Fragmentation average = 0
	minimum = 0
	maximum = 0
Injected packet rate average = 0.200125
	minimum = 0.176 (at node 13)
	maximum = 0.226 (at node 10)
Accepted packet rate average = 0.1945
	minimum = 0.176 (at node 2)
	maximum = 0.216 (at node 14)
Injected flit rate average = 0.200125
	minimum = 0.176 (at node 13)
	maximum = 0.226 (at node 10)
Accepted flit rate average= 0.1945
	minimum = 0.176 (at node 2)
	maximum = 0.216 (at node 14)
Injected packet length average = 1
Accepted packet length average = 1
Total in-flight flits = 91 (0 measured)
latency change    = 1
throughput change = 1
Class 0:
Packet latency average = 23.4754
	minimum = 7
	maximum = 143
Network latency average = 23.4407
	minimum = 7
	maximum = 143
Slowest packet = 276726
Flit latency average = 23.4407
	minimum = 7
	maximum = 143
Slowest flit = 276726
Fragmentation average = 0
	minimum = 0
	maximum = 0
Injected packet rate average = 0.200031
	minimum = 0.1825 (at node 7)
	maximum = 0.219 (at node 0)
Accepted packet rate average = 0.197844
	minimum = 0.177 (at node 9)
	maximum = 0.211 (at node 4)
Injected flit rate average = 0.200031
	minimum = 0.1825 (at node 7)
	maximum = 0.219 (at node 0)
Accepted flit rate average= 0.197844
	minimum = 0.177 (at node 9)
	maximum = 0.211 (at node 4)
Injected packet length average = 1
Accepted packet length average = 1
Total in-flight flits = 70 (0 measured)
latency change    = 0.0178298
throughput change = 0.016901
Class 0:
Packet latency average = 23.3112
	minimum = 7
	maximum = 126
Network latency average = 23.2851
	minimum = 7
	maximum = 126
Slowest packet = 283218
Flit latency average = 23.2851
	minimum = 7
	maximum = 126
Slowest flit = 283218
Fragmentation average = 0
	minimum = 0
	maximum = 0
Injected packet rate average = 0.203563
	minimum = 0.178 (at node 8)
	maximum = 0.217 (at node 0)
Accepted packet rate average = 0.20325
	minimum = 0.177 (at node 5)
	maximum = 0.226 (at node 0)
Injected flit rate average = 0.203563
	minimum = 0.178 (at node 8)
	maximum = 0.217 (at node 0)
Accepted flit rate average= 0.20325
	minimum = 0.177 (at node 5)
	maximum = 0.226 (at node 0)
Injected packet length average = 1
Accepted packet length average = 1
Total in-flight flits = 75 (0 measured)
latency change    = 0.00704577
throughput change = 0.026599
Warmed up ...Time used is 3000 cycles
Class 0:
Packet latency average = 23.2135
	minimum = 7
	maximum = 111
Network latency average = 23.1827
	minimum = 7
	maximum = 111
Slowest packet = 287172
Flit latency average = 23.3579
	minimum = 7
	maximum = 111
Slowest flit = 287172
Fragmentation average = 0
	minimum = 0
	maximum = 0
Injected packet rate average = 0.196437
	minimum = 0.179 (at node 0)
	maximum = 0.217 (at node 4)
Accepted packet rate average = 0.197313
	minimum = 0.176 (at node 1)
	maximum = 0.217 (at node 11)
Injected flit rate average = 0.196437
	minimum = 0.179 (at node 0)
	maximum = 0.217 (at node 4)
Accepted flit rate average= 0.197313
	minimum = 0.176 (at node 1)
	maximum = 0.217 (at node 11)
Injected packet length average = 1
Accepted packet length average = 1
Total in-flight flits = 61 (61 measured)
latency change    = 0.00420856
throughput change = 0.0300919
Class 0:
Packet latency average = 23.0843
	minimum = 7
	maximum = 124
Network latency average = 23.0456
	minimum = 7
	maximum = 124
Slowest packet = 289147
Flit latency average = 23.135
	minimum = 7
	maximum = 124
Slowest flit = 289147
Fragmentation average = 0
	minimum = 0
	maximum = 0
Injected packet rate average = 0.197625
	minimum = 0.184 (at node 0)
	maximum = 0.207 (at node 14)
Accepted packet rate average = 0.197
	minimum = 0.179 (at node 3)
	maximum = 0.2205 (at node 11)
Injected flit rate average = 0.197625
	minimum = 0.184 (at node 0)
	maximum = 0.207 (at node 14)
Accepted flit rate average= 0.197
	minimum = 0.179 (at node 3)
	maximum = 0.2205 (at node 11)
Injected packet length average = 1
Accepted packet length average = 1
Total in-flight flits = 95 (95 measured)
latency change    = 0.00559751
throughput change = 0.00158629
Class 0:
Packet latency average = 23.2571
	minimum = 7
	maximum = 145
Network latency average = 23.2133
	minimum = 7
	maximum = 145
Slowest packet = 292137
Flit latency average = 23.2712
	minimum = 7
	maximum = 145
Slowest flit = 292137
Fragmentation average = 0
	minimum = 0
	maximum = 0
Injected packet rate average = 0.198083
	minimum = 0.189333 (at node 0)
	maximum = 0.206667 (at node 6)
Accepted packet rate average = 0.198354
	minimum = 0.184667 (at node 3)
	maximum = 0.222 (at node 11)
Injected flit rate average = 0.198083
	minimum = 0.189333 (at node 0)
	maximum = 0.206667 (at node 6)
Accepted flit rate average= 0.198354
	minimum = 0.184667 (at node 3)
	maximum = 0.222 (at node 11)
Injected packet length average = 1
Accepted packet length average = 1
Total in-flight flits = 62 (62 measured)
latency change    = 0.00743267
throughput change = 0.00682701
Draining all recorded packets ...
Draining remaining packets ...
Time taken is 6138 cycles
Class 0:
Packet latency average = 23.02
	minimum = 7
	maximum = 123
Network latency average = 22.9997
	minimum = 7
	maximum = 123
Slowest packet = 297836
Flit latency average = 22.9997
	minimum = 7
	maximum = 123
Slowest flit = 297836
[...]
	minimum = 0.182 (at node 2)
	maximum = 0.217 (at node 10)
Injected flit rate average = 0.20025
	minimum = 0.177 (at node 13)
	maximum = 0.225 (at node 5)
Accepted flit rate average= 0.20025
	minimum = 0.182 (at node 2)
	maximum = 0.217 (at node 10)
Injected packet length average = 1
Accepted packet length average = 1
Total in-flight flits = 73 (0 measured)
latency change    = 0.000348266
throughput change = 0.00374532
Warmed up ...Time used is 3000 cycles
Class 0:
Packet latency average = 23.6725
	minimum = 7
	maximum = 141
Network latency average = 23.6401
	minimum = 7
	maximum = 141
Slowest packet = 1887145
Flit latency average = 23.7218
	minimum = 7
	maximum = 141
Slowest flit = 1887145
Fragmentation average = 0
	minimum = 0
	maximum = 0
Injected packet rate average = 0.203187
	minimum = 0.169 (at node 9)
	maximum = 0.233 (at node 10)
Accepted packet rate average = 0.203063
	minimum = 0.185 (at node 8)
	maximum = 0.23 (at node 7)
Injected flit rate average = 0.203187
	minimum = 0.169 (at node 9)
	maximum = 0.233 (at node 10)
Accepted flit rate average= 0.203063
	minimum = 0.185 (at node 8)
	maximum = 0.23 (at node 7)
Injected packet length average = 1
Accepted packet length average = 1
Total in-flight flits = 75 (75 measured)
latency change    = 0.0145666
throughput change = 0.0138504
Class 0:
Packet latency average = 23.5002
	minimum = 7
	maximum = 153
Network latency average = 23.4706
	minimum = 7
	maximum = 153
Slowest packet = 1888288
Flit latency average = 23.5141
	minimum = 7
	maximum = 153
Slowest flit = 1888288
Fragmentation average = 0
	minimum = 0
	maximum = 0
Injected packet rate average = 0.199437
	minimum = 0.1745 (at node 9)
	maximum = 0.221 (at node 4)
Accepted packet rate average = 0.199437
	minimum = 0.189 (at node 12)
	maximum = 0.2135 (at node 4)
Injected flit rate average = 0.199437
	minimum = 0.1745 (at node 9)
	maximum = 0.221 (at node 4)
Accepted flit rate average= 0.199437
	minimum = 0.189 (at node 12)
	maximum = 0.2135 (at node 4)
Injected packet length average = 1
Accepted packet length average = 1
Total in-flight flits = 73 (73 measured)
latency change    = 0.00733211
throughput change = 0.0181761
Class 0:
Packet latency average = 23.6154
	minimum = 7
	maximum = 156
Network latency average = 23.5721
	minimum = 7
	maximum = 156
Slowest packet = 1892001
Flit latency average = 23.6001
	minimum = 7
	maximum = 156
Slowest flit = 1892001
Fragmentation average = 0
	minimum = 0
	maximum = 0
Injected packet rate average = 0.200604
	minimum = 0.182667 (at node 9)
	maximum = 0.223333 (at node 4)
Accepted packet rate average = 0.200729
	minimum = 0.188667 (at node 12)
	maximum = 0.216667 (at node 7)
Injected flit rate average = 0.200604
	minimum = 0.182667 (at node 9)
	maximum = 0.223333 (at node 4)
Accepted flit rate average= 0.200729
	minimum = 0.188667 (at node 12)
	maximum = 0.216667 (at node 7)
Injected packet length average = 1
Accepted packet length average = 1
Total in-flight flits = 67 (67 measured)
latency change    = 0.00487457
throughput change = 0.00643487
Draining all recorded packets ...
Draining remaining packets ...
Time taken is 6106 cycles
Class 0:
Packet latency average = 23.1056
	minimum = 7
	maximum = 120
Network latency average = 23.0777
	minimum = 7
	maximum = 120
Slowest packet = 1894660
Flit latency average = 23.0777
	minimum = 7
	maximum = 120
Slowest flit = 1894660
Fragmentation average = 0
	minimum = 0
	maximum = 0
Injected packet rate average = 0.197375
	minimum = 0.182 (at node 7)
	maximum = 0.22 (at node 15)
Accepted packet rate average = 0.193
	minimum = 0.163 (at node 3)
	maximum = 0.221 (at node 10)
Injected flit rate average = 0.197375
	minimum = 0.182 (at node 7)
	maximum = 0.22 (at node 15)
Accepted flit rate average= 0.193
	minimum = 0.163 (at node 3)
	maximum = 0.221 (at node 10)
Injected packet length average = 1
Accepted packet length average = 1
Total in-flight flits = 70 (0 measured)
latency change    = 1
throughput change = 1
Class 0:
Packet latency average = 23.0684
	minimum = 7
	maximum = 120
Network latency average = 23.0241
	minimum = 7
	maximum = 120
Slowest packet = 1894660
Flit latency average = 23.0241
	minimum = 7
	maximum = 120
Slowest flit = 1894660
Fragmentation average = 0
	minimum = 0
	maximum = 0
Injected packet rate average = 0.196687
	minimum = 0.1855 (at node 3)
	maximum = 0.209 (at node 15)
Accepted packet rate average = 0.194625
	minimum = 0.1825 (at node 1)
	maximum = 0.2145 (at node 8)
Injected flit rate average = 0.196687
	minimum = 0.1855 (at node 3)
	maximum = 0.209 (at node 15)
Accepted flit rate average= 0.194625
	minimum = 0.1825 (at node 1)
	maximum = 0.2145 (at node 8)
Injected packet length average = 1
Accepted packet length average = 1
Total in-flight flits = 66 (0 measured)
latency change    = 0.00161126
throughput change = 0.00834939
Class 0:
Packet latency average = 23.2387
	minimum = 7
	maximum = 155
Network latency average = 23.2103
	minimum = 7
	maximum = 155
Slowest packet = 1902207
Flit latency average = 23.2103
	minimum = 7
	maximum = 155
Slowest flit = 1902207
Fragmentation average = 0
	minimum = 0
	maximum = 0
Injected packet rate average = 0.202375
	minimum = 0.18 (at node 13)
	maximum = 0.235 (at node 7)
Accepted packet rate average = 0.202437
	minimum = 0.171 (at node 15)
	maximum = 0.225 (at node 6)
Injected flit rate average = 0.202375
	minimum = 0.18 (at node 13)
	maximum = 0.235 (at node 7)
Accepted flit rate average= 0.202437
	minimum = 0.171 (at node 15)
	maximum = 0.225 (at node 6)
Injected packet length average = 1
Accepted packet length average = 1
Total in-flight flits = 65 (0 measured)
latency change    = 0.00732629
throughput change = 0.0385922
Warmed up ...Time used is 3000 cycles
Class 0:
Packet latency average = 23.1777
	minimum = 7
	maximum = 116
Network latency average = 23.1607
	minimum = 7
	maximum = 116
Slowest packet = 1904544
Flit latency average = 23.2899
	minimum = 7
	maximum = 116
Slowest flit = 1904544
Fragmentation average = 0
	minimum = 0
	maximum = 0
Injected packet rate average = 0.198375
	minimum = 0.176 (at node 3)
	maximum = 0.225 (at node 11)
Accepted packet rate average = 0.198563
	minimum = 0.177 (at node 9)
	maximum = 0.224 (at node 6)
Injected flit rate average = 0.198375
	minimum = 0.176 (at node 3)
	maximum = 0.225 (at node 11)
Accepted flit rate average= 0.198563
	minimum = 0.177 (at node 9)
	maximum = 0.224 (at node 6)
Injected packet length average = 1
Accepted packet length average = 1
Total in-flight flits = 62 (62 measured)
latency change    = 0.00262988
throughput change = 0.0195153
Class 0:
Packet latency average = 23.6962
	minimum = 7
	maximum = 142
Network latency average = 23.662
	minimum = 7
	maximum = 142
Slowest packet = 1909443
Flit latency average = 23.7207
	minimum = 7
	maximum = 142
Slowest flit = 1909443
Fragmentation average = 0
	minimum = 0
	maximum = 0
Injected packet rate average = 0.201437
	minimum = 0.186 (at node 3)
	maximum = 0.2185 (at node 9)
Accepted packet rate average = 0.20125
	minimum = 0.1885 (at node 7)
	maximum = 0.225 (at node 6)
Injected flit rate average = 0.201437
	minimum = 0.186 (at node 3)
	maximum = 0.2185 (at node 9)
Accepted flit rate average= 0.20125
	minimum = 0.1885 (at node 7)
	maximum = 0.225 (at node 6)
Injected packet length average = 1
Accepted packet length average = 1
Total in-flight flits = 71 (71 measured)
latency change    = 0.0218794
throughput change = 0.013354
Class 0:
Packet latency average = 23.6953
	minimum = 7
	maximum = 146
Network latency average = 23.6546
	minimum = 7
	maximum = 146
Slowest packet = 1910846
Flit latency average = 23.6937
	minimum = 7
	maximum = 146
Slowest flit = 1910846
Fragmentation average = 0
	minimum = 0
	maximum = 0
Injected packet rate average = 0.201708
	minimum = 0.188667 (at node 3)
	maximum = 0.214 (at node 9)
Accepted packet rate average = 0.201417
	minimum = 0.193333 (at node 9)
	maximum = 0.218333 (at node 6)
Injected flit rate average = 0.201708
	minimum = 0.188667 (at node 3)
	maximum = 0.214 (at node 9)
Accepted flit rate average= 0.201417
	minimum = 0.193333 (at node 9)
	maximum = 0.218333 (at node 6)
Injected packet length average = 1
Accepted packet length average = 1
Total in-flight flits = 80 (80 measured)
latency change    = 3.60119e-05
throughput change = 0.000827472
Draining all recorded packets ...
Draining remaining packets ...
Time taken is 6122 cycles
Class 0:
Packet latency average = 22.6609
	minimum = 7
	maximum = 142
Network latency average = 22.6384
	minimum = 7
	maximum = 142
Slowest packet = 1914323
Flit latency average = 22.6384
	minimum = 7
	maximum = 142
Slowest flit = 1914323
Fragmentation average = 0
	minimum = 0
	maximum = 0
Injected packet rate average = 0.199813
	minimum = 0.181 (at node 4)
	maximum = 0.224 (at node 10)
Accepted packet rate average = 0.194812
	minimum = 0.168 (at node 1)
	maximum = 0.216 (at node 8)
Injected flit rate average = 0.199813
	minimum = 0.181 (at node 4)
	maximum = 0.224 (at node 10)
Accepted flit rate average= 0.194812
	minimum = 0.168 (at node 1)
	maximum = 0.216 (at node 8)
Injected packet length average = 1
Accepted packet length average = 1
Total in-flight flits = 80 (0 measured)
latency change    = 1
throughput change = 1
Class 0:
Packet latency average = 23.0686
	minimum = 7
	maximum = 142
Network latency average = 23.0285
	minimum = 7
	maximum = 142
Slowest packet = 1914323
Flit latency average = 23.0285
	minimum = 7
	maximum = 142
Slowest flit = 1914323
Fragmentation average = 0
	minimum = 0
	maximum = 0
Injected packet rate average = 0.19825
	minimum = 0.187 (at node 4)
	maximum = 0.2105 (at node 8)
Accepted packet rate average = 0.195937
	minimum = 0.171 (at node 1)
	maximum = 0.2085 (at node 6)
Injected flit rate average = 0.19825
	minimum = 0.187 (at node 4)
	maximum = 0.2105 (at node 8)
Accepted flit rate average= 0.195937
	minimum = 0.171 (at node 1)
	maximum = 0.2085 (at node 6)
Injected packet length average = 1
Accepted packet length average = 1
Total in-flight flits = 74 (0 measured)
latency change    = 0.0176729
throughput change = 0.00574163
Class 0:
Packet latency average = 23.2944
	minimum = 7
	maximum = 139
Network latency average = 23.2696
	minimum = 7
	maximum = 139
Slowest packet = 1922389
Flit latency average = 23.2696
	minimum = 7
	maximum = 139
Slowest flit = 1922389
Fragmentation average = 0
	minimum = 0
	maximum = 0
Injected packet rate average = 0.19675
	minimum = 0.172 (at node 1)
	maximum = 0.221 (at node 6)
Accepted packet rate average = 0.19725
	minimum = 0.185 (at node 10)
	maximum = 0.218 (at node 8)
Injected flit rate average = 0.19675
	minimum = 0.172 (at node 1)
	maximum = 0.221 (at node 6)
Accepted flit rate average= 0.19725
	minimum = 0.185 (at node 10)
	maximum = 0.218 (at node 8)
Injected packet length average = 1
Accepted packet length average = 1
Total in-flight flits = 66 (0 measured)
latency change    = 0.00969245
throughput change = 0.00665399
Warmed up ...Time used is 3000 cycles
Class 0:
Packet latency average = 23.1931
	minimum = 7
	maximum = 151
Network latency average = 23.1616
	minimum = 7
	maximum = 151
Slowest packet = 1925451
Flit latency average = 23.4137
	minimum = 7
	maximum = 151
Slowest flit = 1925451
Fragmentation average = 0
	minimum = 0
	maximum = 0
Injected packet rate average = 0.19575
	minimum = 0.165 (at node 8)
	maximum = 0.209 (at node 3)
Accepted packet rate average = 0.196375
	minimum = 0.171 (at node 11)
	maximum = 0.223 (at node 14)
Injected flit rate average = 0.19575
	minimum = 0.165 (at node 8)
	maximum = 0.209 (at node 3)
Accepted flit rate average= 0.196375
	minimum = 0.171 (at node 11)
	maximum = 0.223 (at node 14)
Injected packet length average = 1
Accepted packet length average = 1
Total in-flight flits = 56 (56 measured)
latency change    = 0.00436561
throughput change = 0.00445576
Class 0:
Packet latency average = 23.1035
	minimum = 7
	maximum = 151
Network latency average = 23.0814
	minimum = 7
	maximum = 151
Slowest packet = 1925451
Flit latency average = 23.2062
	minimum = 7
	maximum = 151
Slowest flit = 1925451
Fragmentation average = 0
	minimum = 0
	maximum = 0
Injected packet rate average = 0.200063
	minimum = 0.184 (at node 5)
	maximum = 0.2125 (at node 3)
Accepted packet rate average = 0.19975
	minimum = 0.1865 (at node 11)
	maximum = 0.213 (at node 4)
Injected flit rate average = 0.200063
	minimum = 0.184 (at node 5)
	maximum = 0.2125 (at node 3)
Accepted flit rate average= 0.19975
	minimum = 0.1865 (at node 11)
	maximum = 0.213 (at node 4)
Injected packet length average = 1
Accepted packet length average = 1
Total in-flight flits = 76 (76 measured)
latency change    = 0.00387676
throughput change = 0.0168961
Class 0:
Packet latency average = 23.119
	minimum = 7
	maximum = 151
Network latency average = 23.0953
	minimum = 7
	maximum = 151
Slowest packet = 1925451
Flit latency average = 23.1775
	minimum = 7
	maximum = 151
Slowest flit = 1925451
Fragmentation average = 0
	minimum = 0
	maximum = 0
Injected packet rate average = 0.201771
	minimum = 0.192333 (at node 0)
	maximum = 0.216667 (at node 11)
Accepted packet rate average = 0.201708
	minimum = 0.183333 (at node 11)
	maximum = 0.217333 (at node 15)
Injected flit rate average = 0.201771
	minimum = 0.192333 (at node 0)
	maximum = 0.216667 (at node 11)
Accepted flit rate average= 0.201708
	minimum = 0.183333 (at node 11)
	maximum = 0.217333 (at node 15)
Injected packet length average = 1
Accepted packet length average = 1
Total in-flight flits = 69 (69 measured)
latency change    = 0.000667307
throughput change = 0.00970874
Draining all recorded packets ...
Draining remaining packets ...
Time taken is 6127 cycles
Class 0:
Packet latency average = 23.2769
	minimum = 7
	maximum = 114
Network latency average = 23.2584
	minimum = 7
	maximum = 114
Slowest packet = 1934967
Flit latency average = 23.2584
	minimum = 7
	maximum = 114
Slowest flit = 1934967
Fragmentation average = 0
	minimum = 0
	maximum = 0
Injected packet rate average = 0.201125
	minimum = 0.183 (at node 15)
	maximum = 0.215 (at node 9)
Accepted packet rate average = 0.196375
	minimum = 0.168 (at node 10)
	maximum = 0.213 (at node 7)
Injected flit rate average = 0.201125
	minimum = 0.183 (at node 15)
	maximum = 0.215 (at node 9)
Accepted flit rate average= 0.196375
	minimum = 0.168 (at node 10)
	maximum = 0.213 (at node 7)
Injected packet length average = 1
Accepted packet length average = 1
Total in-flight flits = 77 (0 measured)
latency change    = 1
throughput change = 1
Class 0:
Packet latency average = 23.266
	minimum = 7
	maximum = 185
Network latency average = 23.2299
	minimum = 7
	maximum = 183
Slowest packet = 1936833
Flit latency average = 23.2299
	minimum = 7
	maximum = 183
Slowest flit = 1936833
Fragmentation average = 0
	minimum = 0
	maximum = 0
Injected packet rate average = 0.199875
	minimum = 0.1855 (at node 3)
	maximum = 0.2165 (at node 1)
Accepted packet rate average = 0.197813
	minimum = 0.1765 (at node 10)
	maximum = 0.211 (at node 0)
Injected flit rate average = 0.199875
	minimum = 0.1855 (at node 3)
	maximum = 0.2165 (at node 1)
Accepted flit rate average= 0.197813
	minimum = 0.1765 (at node 10)
	maximum = 0.211 (at node 0)
Injected packet length average = 1
Accepted packet length average = 1
Total in-flight flits = 66 (0 measured)
latency change    = 0.000466729
throughput change = 0.00726698
Class 0:
Packet latency average = 22.9432
	minimum = 7
	maximum = 137
Network latency average = 22.9227
	minimum = 7
	maximum = 137
Slowest packet = 1942267
Flit latency average = 22.9227
	minimum = 7
	maximum = 137
Slowest flit = 1942267
Fragmentation average = 0
	minimum = 0
	maximum = 0
Injected packet rate average = 0.196813
	minimum = 0.176 (at node 5)
	maximum = 0.228 (at node 6)
Accepted packet rate average = 0.19575
	minimum = 0.175 (at node 14)
	maximum = 0.215 (at node 1)
Injected flit rate average = 0.196813
	minimum = 0.176 (at node 5)
	maximum = 0.228 (at node 6)
Accepted flit rate average= 0.19575
	minimum = 0.175 (at node 14)
	maximum = 0.215 (at node 1)
Injected packet length average = 1
Accepted packet length average = 1
Total in-flight flits = 83 (0 measured)
latency change    = 0.0140725
throughput change = 0.0105364
Warmed up ...Time used is 3000 cycles
Class 0:
Packet latency average = 22.9172
	minimum = 7
	maximum = 112
Network latency average = 22.86
	minimum = 7
	maximum = 112
Slowest packet = 1944699
Flit latency average = 23.0395
	minimum = 7
	maximum = 112
Slowest flit = 1944699
Fragmentation average = 0
	minimum = 0
	maximum = 0
Injected packet rate average = 0.200687
	minimum = 0.176 (at node 15)
	maximum = 0.23 (at node 8)
Accepted packet rate average = 0.20075
	minimum = 0.176 (at node 0)
	maximum = 0.234 (at node 5)
Injected flit rate average = 0.200687
	minimum = 0.176 (at node 15)
	maximum = 0.23 (at node 8)
Accepted flit rate average= 0.20075
	minimum = 0.176 (at node 0)
	maximum = 0.234 (at node 5)
Injected packet length average = 1
Accepted packet length average = 1
Total in-flight flits = 82 (82 measured)
latency change    = 0.00113196
throughput change = 0.0249066
Class 0:
Packet latency average = 23.3176
	minimum = 7
	maximum = 149
Network latency average = 23.2736
	minimum = 7
	maximum = 149
Slowest packet = 1946287
Flit latency average = 23.3575
	minimum = 7
	maximum = 149
Slowest flit = 1946287
Fragmentation average = 0
	minimum = 0
	maximum = 0
Injected packet rate average = 0.201469
	minimum = 0.185 (at node 15)
	maximum = 0.2165 (at node 11)
Accepted packet rate average = 0.202031
	minimum = 0.1815 (at node 3)
	maximum = 0.224 (at node 5)
Injected flit rate average = 0.201469
	minimum = 0.185 (at node 15)
	maximum = 0.2165 (at node 11)
Accepted flit rate average= 0.202031
	minimum = 0.1815 (at node 3)
	maximum = 0.224 (at node 5)
Injected packet length average = 1
Accepted packet length average = 1
Total in-flight flits = 65 (65 measured)
latency change    = 0.017171
throughput change = 0.00634184
Class 0:
Packet latency average = 23.3678
	minimum = 7
	maximum = 153
Network latency average = 23.3291
	minimum = 7
	maximum = 153
Slowest packet = 1951557
Flit latency average = 23.3844
	minimum = 7
	maximum = 153
Slowest flit = 1951557
Fragmentation average = 0
	minimum = 0
	maximum = 0
Injected packet rate average = 0.202417
	minimum = 0.188 (at node 12)
	maximum = 0.217333 (at node 6)
Accepted packet rate average = 0.202604
	minimum = 0.181333 (at node 3)
	maximum = 0.224333 (at node 6)
Injected flit rate average = 0.202417
	minimum = 0.188 (at node 12)
	maximum = 0.217333 (at node 6)
Accepted flit rate average= 0.202604
	minimum = 0.181333 (at node 3)
	maximum = 0.224333 (at node 6)
Injected packet length average = 1
Accepted packet length average = 1
Total in-flight flits = 74 (74 measured)
latency change    = 0.00214629
throughput change = 0.00282776
Draining all recorded packets ...
Draining remaining packets ...
Time taken is 6103 cycles
====== Overall Traffic Statistics ======
====== Traffic class 0 ======
Packet latency average = 23.3719 (100 samples)
	minimum = 7 (100 samples)
	maximum = 160.73 (100 samples)
Network latency average = 23.3372 (100 samples)
	minimum = 7 (100 samples)
	maximum = 160.67 (100 samples)
Flit latency average = 23.3836 (100 samples)
	minimum = 7 (100 samples)
	maximum = 162.49 (100 samples)
Fragmentation average = 0 (100 samples)
	minimum = 0 (100 samples)
	maximum = 0 (100 samples)
Injected packet rate average = 0.200343 (100 samples)
	minimum = 0.187238 (100 samples)
	maximum = 0.213612 (100 samples)
Accepted packet rate average = 0.200363 (100 samples)
	minimum = 0.185696 (100 samples)
	maximum = 0.215212 (100 samples)
Injected flit rate average = 0.200343 (100 samples)
	minimum = 0.187238 (100 samples)
	maximum = 0.213612 (100 samples)
Accepted flit rate average = 0.200363 (100 samples)
	minimum = 0.185696 (100 samples)
	maximum = 0.215212 (100 samples)
Injected packet size average = 1 (100 samples)
Accepted packet size average = 1 (100 samples)
Hops average = 3.50031 (100 samples)
Total run time 17.7956
