BEGIN Configuration File: /tmp/bs_1138183_283369.cfg
topology = mesh;
k = 4;
n = 2;
routing_function = adaptive_xy_yx;
num_vcs = 4;
vc_buf_size = 4;
wait_for_tail_credit = 1;
vc_allocator = islip;
sw_allocator = islip;
alloc_iters = 1;
credit_delay = 2;
routing_delay = 1;
vc_alloc_delay = 1;
sw_alloc_delay = 1;
input_speedup = 2;
output_speedup = 1;
internal_speedup = 1.0;
traffic = uniform;
packet_size = 1;
sim_type = latency;
injection_rate = 0.2;
warmup_periods = 3;
sample_period = 1000;
sim_count = 100;
seed = 3;

END Configuration File: /tmp/bs_1138183_283369.cfg
Class 0:
Packet latency average = 22.2131
	minimum = 7
	maximum = 65
Network latency average = 22.1328
	minimum = 7
	maximum = 65
Slowest packet = 1229
Flit latency average = 22.1328
	minimum = 7
	maximum = 65
Slowest flit = 1229
Fragmentation average = 0
	minimum = 0
	maximum = 0
Injected packet rate average = 0.201375
	minimum = 0.178 (at node 12)
	maximum = 0.226 (at node 8)
Accepted packet rate average = 0.197687
	minimum = 0.171 (at node 10)
	maximum = 0.228 (at node 15)
Injected flit rate average = 0.201375
	minimum = 0.178 (at node 12)
	maximum = 0.226 (at node 8)
Accepted flit rate average= 0.197687
	minimum = 0.171 (at node 10)
	maximum = 0.228 (at node 15)
Injected packet length average = 1
Accepted packet length average = 1
Total in-flight flits = 59 (0 measured)
latency change    = 1
throughput change = 1
Class 0:
Packet latency average = 22.3282
	minimum = 7
	maximum = 71
Network latency average = 22.2747
	minimum = 7
	maximum = 71
Slowest packet = 3903
Flit latency average = 22.2747
	minimum = 7
	maximum = 71
Slowest flit = 3903
Fragmentation average = 0
	minimum = 0
	maximum = 0
Injected packet rate average = 0.199594
	minimum = 0.1865 (at node 6)
	maximum = 0.213 (at node 14)
Accepted packet rate average = 0.197406
	minimum = 0.175 (at node 10)
	maximum = 0.2155 (at node 15)
Injected flit rate average = 0.199594
	minimum = 0.1865 (at node 6)
	maximum = 0.213 (at node 14)
Accepted flit rate average= 0.197406
	minimum = 0.175 (at node 10)
	maximum = 0.2155 (at node 15)
Injected packet length average = 1
Accepted packet length average = 1
Total in-flight flits = 70 (0 measured)
latency change    = 0.00515373
throughput change = 0.00142473
Class 0:
Packet latency average = 22.1117
	minimum = 7
	maximum = 89
Network latency average = 22.038
	minimum = 7
	maximum = 89
Slowest packet = 8437
Flit latency average = 22.038
	minimum = 7
	maximum = 89
Slowest flit = 8437
Fragmentation average = 0
	minimum = 0
	maximum = 0
Injected packet rate average = 0.20075
	minimum = 0.173 (at node 9)
	maximum = 0.221 (at node 15)
Accepted packet rate average = 0.200875
	minimum = 0.177 (at node 2)
	maximum = 0.225 (at node 8)
Injected flit rate average = 0.20075
	minimum = 0.173 (at node 9)
	maximum = 0.221 (at node 15)
Accepted flit rate average= 0.200875
	minimum = 0.177 (at node 2)
	maximum = 0.225 (at node 8)
Injected packet length average = 1
Accepted packet length average = 1
Total in-flight flits = 68 (0 measured)
latency change    = 0.00978954
throughput change = 0.0172682
Warmed up ...Time used is 3000 cycles
Class 0:
Packet latency average = 21.9157
	minimum = 7
	maximum = 59
Network latency average = 21.8864
	minimum = 7
	maximum = 59
Slowest packet = 9741
Flit latency average = 21.9453
	minimum = 7
	maximum = 59
Slowest flit = 9741
Fragmentation average = 0
	minimum = 0
	maximum = 0
Injected packet rate average = 0.191875
	minimum = 0.172 (at node 10)
	maximum = 0.213 (at node 5)
Accepted packet rate average = 0.191812
	minimum = 0.17 (at node 13)
	maximum = 0.218 (at node 9)
Injected flit rate average = 0.191875
	minimum = 0.172 (at node 10)
	maximum = 0.213 (at node 5)
Accepted flit rate average= 0.191812
	minimum = 0.17 (at node 13)
	maximum = 0.218 (at node 9)
Injected packet length average = 1
Accepted packet length average = 1
Total in-flight flits = 70 (70 measured)
latency change    = 0.00894355
throughput change = 0.0472467
Class 0:
Packet latency average = 22.1076
	minimum = 7
	maximum = 69
Network latency average = 22.0674
	minimum = 7
	maximum = 69
Slowest packet = 13688
Flit latency average = 22.0942
	minimum = 7
	maximum = 69
Slowest flit = 13688
Fragmentation average = 0
	minimum = 0
	maximum = 0
Injected packet rate average = 0.196594
	minimum = 0.1855 (at node 10)
	maximum = 0.2085 (at node 5)
Accepted packet rate average = 0.196781
	minimum = 0.1825 (at node 13)
	maximum = 0.215 (at node 9)
Injected flit rate average = 0.196594
	minimum = 0.1855 (at node 10)
	maximum = 0.2085 (at node 5)
Accepted flit rate average= 0.196781
	minimum = 0.1825 (at node 13)
	maximum = 0.215 (at node 9)
Injected packet length average = 1
Accepted packet length average = 1
Total in-flight flits = 62 (62 measured)
latency change    = 0.00867878
throughput change = 0.0252501
Class 0:
Packet latency average = 22.1475
	minimum = 7
	maximum = 80
Network latency average = 22.0911
	minimum = 7
	maximum = 80
Slowest packet = 17372
Flit latency average = 22.1086
	minimum = 7
	maximum = 80
Slowest flit = 17372
Fragmentation average = 0
	minimum = 0
	maximum = 0
Injected packet rate average = 0.199125
	minimum = 0.187 (at node 13)
	maximum = 0.207 (at node 6)
Accepted packet rate average = 0.199021
	minimum = 0.191667 (at node 0)
	maximum = 0.217333 (at node 1)
Injected flit rate average = 0.199125
	minimum = 0.187 (at node 13)
	maximum = 0.207 (at node 6)
Accepted flit rate average= 0.199021
	minimum = 0.191667 (at node 0)
	maximum = 0.217333 (at node 1)
Injected packet length average = 1
Accepted packet length average = 1
Total in-flight flits = 73 (73 measured)
latency change    = 0.00180312
throughput change = 0.011253
Draining all recorded packets ...
Draining remaining packets ...
Time taken is 6093 cycles
Class 0:
Packet latency average = 22.3004
	minimum = 7
	maximum = 76
Network latency average = 22.2246
	minimum = 7
	maximum = 76
Slowest packet = 19610
Flit latency average = 22.2246
	minimum = 7
	maximum = 76
Slowest flit = 19610
Fragmentation average = 0
	minimum = 0
	maximum = 0
Injected packet rate average = 0.198063
	minimum = 0.161 (at node 1)
	maximum = 0.225 (at node 4)
Accepted packet rate average = 0.193938
	minimum = 0.166 (at node 4)
	maximum = 0.216 (at node 15)
Injected flit rate average = 0.198063
	minimum = 0.161 (at node 1)
	maximum = 0.225 (at node 4)
Accepted flit rate average= 0.193938
	minimum = 0.166 (at node 4)
	maximum = 0.216 (at node 15)
Injected packet length average = 1
Accepted packet length average = 1
Total in-flight flits = 66 (0 measured)
latency change    = 1
throughput change = 1
Class 0:
Packet latency average = 22.0455
	minimum = 7
	maximum = 76
Network latency average = 21.9891
	minimum = 7
	maximum = 76
Slowest packet = 19610
Flit latency average = 21.9891
	minimum = 7
	maximum = 76
Slowest flit = 19610
Fragmentation average = 0
	minimum = 0
	maximum = 0
Injected packet rate average = 0.197937
	minimum = 0.1775 (at node 1)
	maximum = 0.217 (at node 0)
Accepted packet rate average = 0.195531
	minimum = 0.181 (at node 4)
	maximum = 0.216 (at node 15)
Injected flit rate average = 0.197937
	minimum = 0.1775 (at node 1)
	maximum = 0.217 (at node 0)
Accepted flit rate average= 0.195531
	minimum = 0.181 (at node 4)
	maximum = 0.216 (at node 15)
Injected packet length average = 1
Accepted packet length average = 1
Total in-flight flits = 77 (0 measured)
latency change    = 0.0115581
throughput change = 0.00815087
Class 0:
Packet latency average = 22.4887
	minimum = 7
	maximum = 81
Network latency average = 22.4216
	minimum = 7
	maximum = 80
Slowest packet = 28166
Flit latency average = 22.4216
	minimum = 7
	maximum = 80
Slowest flit = 28166
Fragmentation average = 0
	minimum = 0
	maximum = 0
Injected packet rate average = 0.204437
	minimum = 0.181 (at node 3)
	maximum = 0.233 (at node 7)
Accepted packet rate average = 0.204125
	minimum = 0.177 (at node 15)
	maximum = 0.23 (at node 11)
Injected flit rate average = 0.204437
	minimum = 0.181 (at node 3)
	maximum = 0.233 (at node 7)
Accepted flit rate average= 0.204125
	minimum = 0.177 (at node 15)
	maximum = 0.23 (at node 11)
Injected packet length average = 1
Accepted packet length average = 1
Total in-flight flits = 82 (0 measured)
latency change    = 0.0197042
throughput change = 0.0421004
Warmed up ...Time used is 3000 cycles
Class 0:
Packet latency average = 22.3022
	minimum = 7
	maximum = 67
Network latency average = 22.2534
	minimum = 7
	maximum = 67
Slowest packet = 29860
Flit latency average = 22.3397
	minimum = 7
	maximum = 67
Slowest flit = 29860
Fragmentation average = 0
	minimum = 0
	maximum = 0
Injected packet rate average = 0.197625
	minimum = 0.181 (at node 15)
	maximum = 0.223 (at node 9)
Accepted packet rate average = 0.1985
	minimum = 0.177 (at node 13)
	maximum = 0.224 (at node 9)
Injected flit rate average = 0.197625
	minimum = 0.181 (at node 15)
	maximum = 0.223 (at node 9)
Accepted flit rate average= 0.1985
	minimum = 0.177 (at node 13)
	maximum = 0.224 (at node 9)
Injected packet length average = 1
Accepted packet length average = 1
Total in-flight flits = 68 (68 measured)
latency change    = 0.00836121
throughput change = 0.0283375
Class 0:
Packet latency average = 22.3028
	minimum = 7
	maximum = 67
Network latency average = 22.2495
	minimum = 7
	maximum = 67
Slowest packet = 29860
Flit latency average = 22.2926
	minimum = 7
	maximum = 67
Slowest flit = 29860
Fragmentation average = 0
	minimum = 0
	maximum = 0
Injected packet rate average = 0.198969
	minimum = 0.1905 (at node 0)
	maximum = 0.2155 (at node 9)
Accepted packet rate average = 0.199094
	minimum = 0.187 (at node 13)
	maximum = 0.2145 (at node 5)
Injected flit rate average = 0.198969
	minimum = 0.1905 (at node 0)
	maximum = 0.2155 (at node 9)
Accepted flit rate average= 0.199094
	minimum = 0.187 (at node 13)
	maximum = 0.2145 (at node 5)
Injected packet length average = 1
Accepted packet length average = 1
Total in-flight flits = 78 (78 measured)
latency change    = 2.47966e-05
throughput change = 0.00298226
Class 0:
Packet latency average = 22.4339
	minimum = 7
	maximum = 97
Network latency average = 22.3689
	minimum = 7
	maximum = 93
Slowest packet = 37185
Flit latency average = 22.3964
	minimum = 7
	maximum = 93
Slowest flit = 37185
Fragmentation average = 0
	minimum = 0
	maximum = 0
Injected packet rate average = 0.200292
	minimum = 0.192333 (at node 1)
	maximum = 0.220667 (at node 9)
Accepted packet rate average = 0.200563
	minimum = 0.19 (at node 10)
	maximum = 0.213 (at node 5)
Injected flit rate average = 0.200292
	minimum = 0.192333 (at node 1)
	maximum = 0.220667 (at node 9)
Accepted flit rate average= 0.200563
	minimum = 0.19 (at node 10)
	maximum = 0.213 (at node 5)
Injected packet length average = 1
Accepted packet length average = 1
Total in-flight flits = 69 (69 measured)
latency change    = 0.005848
throughput change = 0.00732315
Draining all recorded packets ...
Draining remaining packets ...
Time taken is 6076 cycles
Class 0:
Packet latency average = 22.1494
	minimum = 7
	maximum = 75
Network latency average = 22.115
	minimum = 7
	maximum = 75
Slowest packet = 40322
Flit latency average = 22.115
	minimum = 7
	maximum = 75
Slowest flit = 40322
Fragmentation average = 0
	minimum = 0
	maximum = 0
Injected packet rate average = 0.201625
	minimum = 0.176 (at node 10)
	maximum = 0.233 (at node 13)
Accepted packet rate average = 0.197813
	minimum = 0.163 (at node 8)
	maximum = 0.237 (at node 3)
Injected flit rate average = 0.201625
	minimum = 0.176 (at node 10)
	maximum = 0.233 (at node 13)
Accepted flit rate average= 0.197813
	minimum = 0.163 (at node 8)
	maximum = 0.237 (at node 3)
Injected packet length average = 1
Accepted packet length average = 1
Total in-flight flits = 61 (0 measured)
latency change    = 1
throughput change = 1
Class 0:
Packet latency average = 22.3563
	minimum = 7
	maximum = 89
Network latency average = 22.2825
	minimum = 7
	maximum = 89
Slowest packet = 43063
Flit latency average = 22.2825
	minimum = 7
	maximum = 89
Slowest flit = 43063
Fragmentation average = 0
	minimum = 0
	maximum = 0
Injected packet rate average = 0.202406
	minimum = 0.1925 (at node 4)
	maximum = 0.214 (at node 11)
Accepted packet rate average = 0.20025
	minimum = 0.18 (at node 8)
	maximum = 0.2195 (at node 3)
Injected flit rate average = 0.202406
	minimum = 0.1925 (at node 4)
	maximum = 0.214 (at node 11)
Accepted flit rate average= 0.20025
	minimum = 0.18 (at node 8)
	maximum = 0.2195 (at node 3)
Injected packet length average = 1
Accepted packet length average = 1
Total in-flight flits = 70 (0 measured)
latency change    = 0.00925138
throughput change = 0.0121723
Class 0:
Packet latency average = 21.8611
	minimum = 7
	maximum = 66
Network latency average = 21.7818
	minimum = 7
	maximum = 66
Slowest packet = 45878
Flit latency average = 21.7818
	minimum = 7
	maximum = 66
Slowest flit = 45878
Fragmentation average = 0
	minimum = 0
	maximum = 0
Injected packet rate average = 0.19925
	minimum = 0.172 (at node 6)
	maximum = 0.218 (at node 5)
Accepted packet rate average = 0.199375
	minimum = 0.17 (at node 10)
	maximum = 0.225 (at node 8)
Injected flit rate average = 0.19925
	minimum = 0.172 (at node 6)
	maximum = 0.218 (at node 5)
Accepted flit rate average= 0.199375
	minimum = 0.17 (at node 10)
	maximum = 0.225 (at node 8)
Injected packet length average = 1
Accepted packet length average = 1
Total in-flight flits = 67 (0 measured)
latency change    = 0.0226496
throughput change = 0.00438871
Warmed up ...Time used is 3000 cycles
Class 0:
Packet latency average = 22.5337
	minimum = 7
	maximum = 91
Network latency average = 22.4507
	minimum = 7
	maximum = 91
Slowest packet = 50503
Flit latency average = 22.5712
	minimum = 7
	maximum = 91
Slowest flit = 50503
Fragmentation average = 0
	minimum = 0
	maximum = 0
Injected packet rate average = 0.200875
	minimum = 0.176 (at node 9)
	maximum = 0.221 (at node 12)
Accepted packet rate average = 0.200125
	minimum = 0.168 (at node 3)
	maximum = 0.223 (at node 8)
Injected flit rate average = 0.200875
	minimum = 0.176 (at node 9)
	maximum = 0.221 (at node 12)
Accepted flit rate average= 0.200125
	minimum = 0.168 (at node 3)
	maximum = 0.223 (at node 8)
Injected packet length average = 1
Accepted packet length average = 1
Total in-flight flits = 79 (79 measured)
latency change    = 0.0298453
throughput change = 0.00374766
Class 0:
Packet latency average = 22.6338
	minimum = 7
	maximum = 91
Network latency average = 22.5617
	minimum = 7
	maximum = 91
Slowest packet = 50503
Flit latency average = 22.6197
	minimum = 7
	maximum = 91
Slowest flit = 50503
Fragmentation average = 0
	minimum = 0
	maximum = 0
Injected packet rate average = 0.204156
	minimum = 0.1845 (at node 5)
	maximum = 0.219 (at node 10)
Accepted packet rate average = 0.203719
	minimum = 0.187 (at node 6)
	maximum = 0.2175 (at node 0)
Injected flit rate average = 0.204156
	minimum = 0.1845 (at node 5)
	maximum = 0.219 (at node 10)
Accepted flit rate average= 0.203719
	minimum = 0.187 (at node 6)
	maximum = 0.2175 (at node 0)
Injected packet length average = 1
Accepted packet length average = 1
Total in-flight flits = 81 (81 measured)
latency change    = 0.0044228
throughput change = 0.0176407
Class 0:
Packet latency average = 22.3953
	minimum = 7
	maximum = 91
Network latency average = 22.3354
	minimum = 7
	maximum = 91
Slowest packet = 50503
Flit latency average = 22.3762
	minimum = 7
	maximum = 91
Slowest flit = 50503
Fragmentation average = 0
	minimum = 0
	maximum = 0
Injected packet rate average = 0.201313
	minimum = 0.191 (at node 5)
	maximum = 0.215667 (at node 10)
Accepted packet rate average = 0.201042
	minimum = 0.186 (at node 9)
	maximum = 0.212 (at node 8)
Injected flit rate average = 0.201313
	minimum = 0.191 (at node 5)
	maximum = 0.215667 (at node 10)
Accepted flit rate average= 0.201042
	minimum = 0.186 (at node 9)
	maximum = 0.212 (at node 8)
Injected packet length average = 1
Accepted packet length average = 1
Total in-flight flits = 80 (80 measured)
latency change    = 0.0106484
throughput change = 0.0133161
Draining all recorded packets ...
Draining remaining packets ...
Time taken is 6088 cycles
Class 0:
Packet latency average = 22.0501
	minimum = 7
	maximum = 73
Network latency average = 21.9832
	minimum = 7
	maximum = 73
Slowest packet = 60773
Flit latency average = 21.9832
	minimum = 7
	maximum = 73
Slowest flit = 60773
Fragmentation average = 0
	minimum = 0
	maximum = 0
Injected packet rate average = 0.201313
	minimum = 0.19 (at node 2)
	maximum = 0.223 (at node 11)
Accepted packet rate average = 0.196937
	minimum = 0.179 (at node 2)
	maximum = 0.232 (at node 6)
Injected flit rate average = 0.201313
	minimum = 0.19 (at node 2)
	maximum = 0.223 (at node 11)
Accepted flit rate average= 0.196937
	minimum = 0.179 (at node 2)
	maximum = 0.232 (at node 6)
Injected packet length average = 1
Accepted packet length average = 1
Total in-flight flits = 70 (0 measured)
latency change    = 1
throughput change = 1
Class 0:
Packet latency average = 22.1305
	minimum = 7
	maximum = 77
Network latency average = 22.0781
	minimum = 7
	maximum = 77
Slowest packet = 63532
Flit latency average = 22.0781
	minimum = 7
	maximum = 77
Slowest flit = 63532
Fragmentation average = 0
	minimum = 0
	maximum = 0
Injected packet rate average = 0.200469
	minimum = 0.1885 (at node 4)
	maximum = 0.212 (at node 1)
Accepted packet rate average = 0.198094
	minimum = 0.185 (at node 9)
	maximum = 0.212 (at node 12)
Injected flit rate average = 0.200469
	minimum = 0.1885 (at node 4)
	maximum = 0.212 (at node 1)
Accepted flit rate average= 0.198094
	minimum = 0.185 (at node 9)
	maximum = 0.212 (at node 12)
Injected packet length average = 1
Accepted packet length average = 1
Total in-flight flits = 76 (0 measured)
latency change    = 0.00362936
throughput change = 0.00583688
Class 0:
Packet latency average = 22.0881
	minimum = 7
	maximum = 75
Network latency average = 22.0395
	minimum = 7
	maximum = 75
Slowest packet = 67248
Flit latency average = 22.0395
	minimum = 7
	maximum = 75
Slowest flit = 67248
Fragmentation average = 0
	minimum = 0
	maximum = 0
Injected packet rate average = 0.1985
	minimum = 0.171 (at node 7)
	maximum = 0.219 (at node 12)
Accepted packet rate average = 0.199437
	minimum = 0.179 (at node 5)
	maximum = 0.227 (at node 13)
Injected flit rate average = 0.1985
	minimum = 0.171 (at node 7)
	maximum = 0.219 (at node 12)
Accepted flit rate average= 0.199437
	minimum = 0.179 (at node 5)
	maximum = 0.227 (at node 13)
Injected packet length average = 1
Accepted packet length average = 1
Total in-flight flits = 61 (0 measured)
latency change    = 0.00191968
throughput change = 0.0067377
Warmed up ...Time used is 3000 cycles
Class 0:
Packet latency average = 22.9088
	minimum = 7
	maximum = 90
Network latency average = 22.7978
	minimum = 7
	maximum = 87
Slowest packet = 68482
Flit latency average = 22.8522
	minimum = 7
	maximum = 87
Slowest flit = 68482
Fragmentation average = 0
	minimum = 0
	maximum = 0
Injected packet rate average = 0.208563
	minimum = 0.191 (at node 8)
	maximum = 0.227 (at node 12)
Accepted packet rate average = 0.20725
	minimum = 0.183 (at node 5)
	maximum = 0.233 (at node 0)
Injected flit rate average = 0.208563
	minimum = 0.191 (at node 8)
	maximum = 0.227 (at node 12)
Accepted flit rate average= 0.20725
	minimum = 0.183 (at node 5)
	maximum = 0.233 (at node 0)
Injected packet length average = 1
Accepted packet length average = 1
Total in-flight flits = 82 (82 measured)
latency change    = 0.0358245
throughput change = 0.037696
Class 0:
Packet latency average = 22.4635
	minimum = 7
	maximum = 90
Network latency average = 22.368
	minimum = 7
	maximum = 87
Slowest packet = 68482
Flit latency average = 22.3996
	minimum = 7
	maximum = 87
Slowest flit = 68482
Fragmentation average = 0
	minimum = 0
	maximum = 0
Injected packet rate average = 0.204375
	minimum = 0.1975 (at node 15)
	maximum = 0.2105 (at node 7)
Accepted packet rate average = 0.204031
	minimum = 0.179 (at node 9)
	maximum = 0.218 (at node 6)
Injected flit rate average = 0.204375
	minimum = 0.1975 (at node 15)
	maximum = 0.2105 (at node 7)
Accepted flit rate average= 0.204031
	minimum = 0.179 (at node 9)
	maximum = 0.218 (at node 6)
Injected packet length average = 1
Accepted packet length average = 1
Total in-flight flits = 72 (72 measured)
latency change    = 0.0198207
throughput change = 0.0157758
Class 0:
Packet latency average = 22.4282
	minimum = 7
	maximum = 94
Network latency average = 22.3502
	minimum = 7
	maximum = 94
Slowest packet = 75516
Flit latency average = 22.3714
	minimum = 7
	maximum = 94
Slowest flit = 75516
Fragmentation average = 0
	minimum = 0
	maximum = 0
Injected packet rate average = 0.20425
	minimum = 0.194667 (at node 5)
	maximum = 0.209333 (at node 4)
Accepted packet rate average = 0.204167
	minimum = 0.192 (at node 9)
	maximum = 0.214 (at node 6)
Injected flit rate average = 0.20425
	minimum = 0.194667 (at node 5)
	maximum = 0.209333 (at node 4)
Accepted flit rate average= 0.204167
	minimum = 0.192 (at node 9)
	maximum = 0.214 (at node 6)
Injected packet length average = 1
Accepted packet length average = 1
Total in-flight flits = 65 (65 measured)
latency change    = 0.00157558
throughput change = 0.000663265
Draining all recorded packets ...
Draining remaining packets ...
Time taken is 6073 cycles
Class 0:
Packet latency average = 22.1072
	minimum = 7
	maximum = 71
Network latency average = 22.0595
	minimum = 7
	maximum = 71
Slowest packet = 78346
Flit latency average = 22.0595
	minimum = 7
	maximum = 71
Slowest flit = 78346
Fragmentation average = 0
	minimum = 0
	maximum = 0
Injected packet rate average = 0.195625
	minimum = 0.167 (at node 10)
	maximum = 0.217 (at node 15)
Accepted packet rate average = 0.191312
	minimum = 0.167 (at node 13)
	maximum = 0.21 (at node 7)
Injected flit rate average = 0.195625
	minimum = 0.167 (at node 10)
	maximum = 0.217 (at node 15)
Accepted flit rate average= 0.191312
	minimum = 0.167 (at node 13)
	maximum = 0.21 (at node 7)
Injected packet length average = 1
Accepted packet length average = 1
Total in-flight flits = 69 (0 measured)
latency change    = 1
throughput change = 1
Class 0:
Packet latency average = 22.1847
	minimum = 7
	maximum = 73
Network latency average = 22.1049
	minimum = 7
	maximum = 73
Slowest packet = 80990
Flit latency average = 22.1049
	minimum = 7
	maximum = 73
Slowest flit = 80990
Fragmentation average = 0
	minimum = 0
	maximum = 0
Injected packet rate average = 0.197406
	minimum = 0.181 (at node 10)
	maximum = 0.2205 (at node 15)
Accepted packet rate average = 0.195062
	minimum = 0.1615 (at node 13)
	maximum = 0.2125 (at node 14)
Injected flit rate average = 0.197406
	minimum = 0.181 (at node 10)
	maximum = 0.2205 (at node 15)
Accepted flit rate average= 0.195062
	minimum = 0.1615 (at node 13)
	maximum = 0.2125 (at node 14)
Injected packet length average = 1
Accepted packet length average = 1
Total in-flight flits = 75 (0 measured)
latency change    = 0.00349619
throughput change = 0.0192246
Class 0:
Packet latency average = 22.1176
	minimum = 7
	maximum = 77
Network latency average = 22.0661
	minimum = 7
	maximum = 77
Slowest packet = 84203
Flit latency average = 22.0661
	minimum = 7
	maximum = 77
Slowest flit = 84203
Fragmentation average = 0
	minimum = 0
	maximum = 0
Injected packet rate average = 0.200437
	minimum = 0.182 (at node 13)
	maximum = 0.239 (at node 8)
Accepted packet rate average = 0.200313
	minimum = 0.181 (at node 6)
	maximum = 0.227 (at node 11)
Injected flit rate average = 0.200437
	minimum = 0.182 (at node 13)
	maximum = 0.239 (at node 8)
Accepted flit rate average= 0.200313
	minimum = 0.181 (at node 6)
	maximum = 0.227 (at node 11)
Injected packet length average = 1
Accepted packet length average = 1
Total in-flight flits = 79 (0 measured)
latency change    = 0.00303322
throughput change = 0.026209
Warmed up ...Time used is 3000 cycles
Class 0:
Packet latency average = 22.4218
	minimum = 7
	maximum = 105
Network latency average = 22.3191
	minimum = 7
	maximum = 105
Slowest packet = 87826
Flit latency average = 22.3544
	minimum = 7
	maximum = 105
Slowest flit = 87826
Fragmentation average = 0
	minimum = 0
	maximum = 0
Injected packet rate average = 0.206
	minimum = 0.185 (at node 11)
	maximum = 0.234 (at node 2)
Accepted packet rate average = 0.206313
	minimum = 0.16 (at node 1)
	maximum = 0.231 (at node 9)
Injected flit rate average = 0.206
	minimum = 0.185 (at node 11)
	maximum = 0.234 (at node 2)
Accepted flit rate average= 0.206313
	minimum = 0.16 (at node 1)
	maximum = 0.231 (at node 9)
Injected packet length average = 1
Accepted packet length average = 1
Total in-flight flits = 72 (72 measured)
latency change    = 0.0135653
throughput change = 0.0290821
Class 0:
Packet latency average = 22.5162
	minimum = 7
	maximum = 105
Network latency average = 22.4206
	minimum = 7
	maximum = 105
Slowest packet = 87826
Flit latency average = 22.4375
	minimum = 7
	maximum = 105
Slowest flit = 87826
Fragmentation average = 0
	minimum = 0
	maximum = 0
Injected packet rate average = 0.201063
	minimum = 0.1875 (at node 7)
	maximum = 0.2175 (at node 2)
Accepted packet rate average = 0.201594
	minimum = 0.1785 (at node 1)
	maximum = 0.219 (at node 9)
Injected flit rate average = 0.201063
	minimum = 0.1875 (at node 7)
	maximum = 0.2175 (at node 2)
Accepted flit rate average= 0.201594
	minimum = 0.1785 (at node 1)
	maximum = 0.219 (at node 9)
Injected packet length average = 1
Accepted packet length average = 1
Total in-flight flits = 60 (60 measured)
latency change    = 0.00419151
throughput change = 0.0234072
Class 0:
Packet latency average = 22.3538
	minimum = 7
	maximum = 105
Network latency average = 22.239
	minimum = 7
	maximum = 105
Slowest packet = 87826
Flit latency average = 22.2518
	minimum = 7
	maximum = 105
Slowest flit = 87826
Fragmentation average = 0
	minimum = 0
	maximum = 0
Injected packet rate average = 0.201229
	minimum = 0.186333 (at node 5)
	maximum = 0.217667 (at node 2)
Accepted packet rate average = 0.201167
	minimum = 0.184333 (at node 1)
	maximum = 0.215 (at node 12)
Injected flit rate average = 0.201229
	minimum = 0.186333 (at node 5)
	maximum = 0.217667 (at node 2)
Accepted flit rate average= 0.201167
	minimum = 0.184333 (at node 1)
	maximum = 0.215 (at node 12)
Injected packet length average = 1
Accepted packet length average = 1
Total in-flight flits = 80 (80 measured)
latency change    = 0.00726501
throughput change = 0.00212303
Draining all recorded packets ...
Draining remaining packets ...
Time taken is 6082 cycles
Class 0:
Packet latency average = 22.1855
	minimum = 7
	maximum = 73
Network latency average = 22.1223
	minimum = 7
	maximum = 73
Slowest packet = 99840
Flit latency average = 22.1223
	minimum = 7
	maximum = 73
Slowest flit = 99840
Fragmentation average = 0
	minimum = 0
	maximum = 0
Injected packet rate average = 0.20325
	minimum = 0.187 (at node 5)
	maximum = 0.222 (at node 12)
Accepted packet rate average = 0.19775
	minimum = 0.162 (at node 15)
	maximum = 0.225 (at node 13)
Injected flit rate average = 0.20325
	minimum = 0.187 (at node 5)
	maximum = 0.222 (at node 12)
Accepted flit rate average= 0.19775
	minimum = 0.162 (at node 15)
	maximum = 0.225 (at node 13)
Injected packet length average = 1
Accepted packet length average = 1
Total in-flight flits = 88 (0 measured)
latency change    = 1
throughput change = 1
Class 0:
Packet latency average = 22.288
	minimum = 7
	maximum = 84
Network latency average = 22.2218
	minimum = 7
	maximum = 84
Slowest packet = 102696
Flit latency average = 22.2218
	minimum = 7
	maximum = 84
Slowest flit = 102696
Fragmentation average = 0
	minimum = 0
	maximum = 0
Injected packet rate average = 0.199656
	minimum = 0.1775 (at node 7)
	maximum = 0.2185 (at node 15)
Accepted packet rate average = 0.197406
	minimum = 0.1695 (at node 15)
	maximum = 0.219 (at node 13)
Injected flit rate average = 0.199656
	minimum = 0.1775 (at node 7)
	maximum = 0.2185 (at node 15)
Accepted flit rate average= 0.197406
	minimum = 0.1695 (at node 15)
	maximum = 0.219 (at node 13)
Injected packet length average = 1
Accepted packet length average = 1
Total in-flight flits = 72 (0 measured)
latency change    = 0.00459569
throughput change = 0.00174133
Class 0:
Packet latency average = 22.8545
	minimum = 7
	maximum = 73
Network latency average = 22.748
	minimum = 7
	maximum = 73
Slowest packet = 104370
Flit latency average = 22.748
	minimum = 7
	maximum = 73
Slowest flit = 104370
Fragmentation average = 0
	minimum = 0
	maximum = 0
Injected packet rate average = 0.198375
	minimum = 0.173 (at node 13)
	maximum = 0.235 (at node 1)
Accepted packet rate average = 0.199375
	minimum = 0.159 (at node 7)
	maximum = 0.223 (at node 14)
Injected flit rate average = 0.198375
	minimum = 0.173 (at node 13)
	maximum = 0.235 (at node 1)
Accepted flit rate average= 0.199375
	minimum = 0.159 (at node 7)
	maximum = 0.223 (at node 14)
Injected packet length average = 1
Accepted packet length average = 1
Total in-flight flits = 56 (0 measured)
latency change    = 0.0247912
throughput change = 0.00987461
Warmed up ...Time used is 3000 cycles
Class 0:
Packet latency average = 21.6422
	minimum = 7
	maximum = 63
Network latency average = 21.5914
	minimum = 7
	maximum = 63
Slowest packet = 108320
Flit latency average = 21.6327
	minimum = 7
	maximum = 63
Slowest flit = 108320
Fragmentation average = 0
	minimum = 0
	maximum = 0
Injected packet rate average = 0.199625
	minimum = 0.174 (at node 11)
	maximum = 0.231 (at node 15)
Accepted packet rate average = 0.19775
	minimum = 0.166 (at node 12)
	maximum = 0.22 (at node 8)
Injected flit rate average = 0.199625
	minimum = 0.174 (at node 11)
	maximum = 0.231 (at node 15)
Accepted flit rate average= 0.19775
	minimum = 0.166 (at node 12)
	maximum = 0.22 (at node 8)
Injected packet length average = 1
Accepted packet length average = 1
Total in-flight flits = 86 (86 measured)
latency change    = 0.056017
throughput change = 0.00821745
Class 0:
Packet latency average = 21.7456
	minimum = 7
	maximum = 98
Network latency average = 21.6955
	minimum = 7
	maximum = 94
Slowest packet = 109866
Flit latency average = 21.7154
	minimum = 7
	maximum = 94
Slowest flit = 109866
Fragmentation average = 0
	minimum = 0
	maximum = 0
Injected packet rate average = 0.197375
	minimum = 0.181 (at node 5)
	maximum = 0.2195 (at node 15)
Accepted packet rate average = 0.196844
	minimum = 0.179 (at node 5)
	maximum = 0.215 (at node 2)
Injected flit rate average = 0.197375
	minimum = 0.181 (at node 5)
	maximum = 0.2195 (at node 15)
Accepted flit rate average= 0.196844
	minimum = 0.179 (at node 5)
	maximum = 0.215 (at node 2)
Injected packet length average = 1
Accepted packet length average = 1
Total in-flight flits = 73 (73 measured)
latency change    = 0.00475596
throughput change = 0.00460391
Class 0:
Packet latency average = 21.8053
	minimum = 7
	maximum = 98
Network latency average = 21.7524
	minimum = 7
	maximum = 94
Slowest packet = 109866
Flit latency average = 21.7652
	minimum = 7
	maximum = 94
Slowest flit = 109866
Fragmentation average = 0
	minimum = 0
	maximum = 0
Injected packet rate average = 0.198833
	minimum = 0.186 (at node 4)
	maximum = 0.218667 (at node 15)
Accepted packet rate average = 0.198646
	minimum = 0.185 (at node 15)
	maximum = 0.207 (at node 6)
Injected flit rate average = 0.198833
	minimum = 0.186 (at node 4)
	maximum = 0.218667 (at node 15)
Accepted flit rate average= 0.198646
	minimum = 0.185 (at node 15)
	maximum = 0.207 (at node 6)
Injected packet length average = 1
Accepted packet length average = 1
Total in-flight flits = 65 (65 measured)
latency change    = 0.00273414
throughput change = 0.00907184
Class 0:
Packet latency average = 21.799
	minimum = 7
	maximum = 98
Network latency average = 21.7512
	minimum = 7
	maximum = 94
Slowest packet = 109866
Flit latency average = 21.7608
	minimum = 7
	maximum = 94
Slowest flit = 109866
Fragmentation average = 0
	minimum = 0
	maximum = 0
Injected packet rate average = 0.198813
	minimum = 0.18725 (at node 2)
	maximum = 0.216 (at node 15)
Accepted packet rate average = 0.198547
	minimum = 0.18925 (at node 12)
	maximum = 0.20625 (at node 10)
Injected flit rate average = 0.198813
	minimum = 0.18725 (at node 2)
	maximum = 0.216 (at node 15)
Accepted flit rate average= 0.198547
	minimum = 0.18925 (at node 12)
	maximum = 0.20625 (at node 10)
Injected packet length average = 1
Accepted packet length average = 1
Total in-flight flits = 73 (73 measured)
latency change    = 0.000287421
throughput change = 0.000498413
Draining all recorded packets ...
Draining remaining packets ...
Time taken is 7076 cycles
Class 0:
Packet latency average = 21.5905
	minimum = 7
	maximum = 63
Network latency average = 21.5395
	minimum = 7
	maximum = 63
Slowest packet = 119900
Flit latency average = 21.5395
	minimum = 7
	maximum = 63
Slowest flit = 119900
Fragmentation average = 0
	minimum = 0
	maximum = 0
Injected packet rate average = 0.197313
	minimum = 0.178 (at node 11)
	maximum = 0.222 (at node 6)
Accepted packet rate average = 0.193688
	minimum = 0.175 (at node 7)
	maximum = 0.237 (at node 13)
Injected flit rate average = 0.197313
	minimum = 0.178 (at node 11)
	maximum = 0.222 (at node 6)
Accepted flit rate average= 0.193688
	minimum = 0.175 (at node 7)
	maximum = 0.237 (at node 13)
Injected packet length average = 1
Accepted packet length average = 1
Total in-flight flits = 58 (0 measured)
latency change    = 1
throughput change = 1
Class 0:
Packet latency average = 21.9345
	minimum = 7
	maximum = 67
Network latency average = 21.8547
	minimum = 7
	maximum = 67
Slowest packet = 123734
Flit latency average = 21.8547
	minimum = 7
	maximum = 67
Slowest flit = 123734
Fragmentation average = 0
	minimum = 0
	maximum = 0
Injected packet rate average = 0.200437
	minimum = 0.1865 (at node 3)
	maximum = 0.218 (at node 10)
Accepted packet rate average = 0.197906
	minimum = 0.177 (at node 7)
	maximum = 0.2225 (at node 13)
Injected flit rate average = 0.200437
	minimum = 0.1865 (at node 3)
	maximum = 0.218 (at node 10)
Accepted flit rate average= 0.197906
	minimum = 0.177 (at node 7)
	maximum = 0.2225 (at node 13)
Injected packet length average = 1
Accepted packet length average = 1
Total in-flight flits = 81 (0 measured)
latency change    = 0.0156811
throughput change = 0.0213169
Class 0:
Packet latency average = 22.1902
	minimum = 7
	maximum = 75
Network latency average = 22.1544
	minimum = 7
	maximum = 75
Slowest packet = 125825
Flit latency average = 22.1544
	minimum = 7
	maximum = 75
Slowest flit = 125825
Fragmentation average = 0
	minimum = 0
	maximum = 0
Injected packet rate average = 0.194688
	minimum = 0.17 (at node 13)
	maximum = 0.232 (at node 15)
Accepted packet rate average = 0.1955
	minimum = 0.155 (at node 2)
	maximum = 0.226 (at node 3)
Injected flit rate average = 0.194688
	minimum = 0.17 (at node 13)
	maximum = 0.232 (at node 15)
Accepted flit rate average= 0.1955
	minimum = 0.155 (at node 2)
	maximum = 0.226 (at node 3)
Injected packet length average = 1
Accepted packet length average = 1
Total in-flight flits = 68 (0 measured)
latency change    = 0.0115252
throughput change = 0.0123082
Warmed up ...Time used is 3000 cycles
Class 0:
Packet latency average = 22.1761
	minimum = 7
	maximum = 73
Network latency average = 22.1101
	minimum = 7
	maximum = 73
Slowest packet = 130488
Flit latency average = 22.2265
	minimum = 7
	maximum = 73
Slowest flit = 130488
Fragmentation average = 0
	minimum = 0
	maximum = 0
Injected packet rate average = 0.197375
	minimum = 0.173 (at node 2)
	maximum = 0.226 (at node 15)
Accepted packet rate average = 0.197313
	minimum = 0.178 (at node 2)
	maximum = 0.215 (at node 1)
Injected flit rate average = 0.197375
	minimum = 0.173 (at node 2)
	maximum = 0.226 (at node 15)
Accepted flit rate average= 0.197313
	minimum = 0.178 (at node 2)
	maximum = 0.215 (at node 1)
Injected packet length average = 1
Accepted packet length average = 1
Total in-flight flits = 69 (69 measured)
latency change    = 0.000636208
throughput change = 0.00918594
Class 0:
Packet latency average = 22.351
	minimum = 7
	maximum = 73
Network latency average = 22.2862
	minimum = 7
	maximum = 73
Slowest packet = 130488
Flit latency average = 22.3414
	minimum = 7
	maximum = 73
Slowest flit = 130488
Fragmentation average = 0
	minimum = 0
	maximum = 0
Injected packet rate average = 0.201469
	minimum = 0.189 (at node 1)
	maximum = 0.222 (at node 15)
Accepted packet rate average = 0.201281
	minimum = 0.1875 (at node 3)
	maximum = 0.216 (at node 8)
Injected flit rate average = 0.201469
	minimum = 0.189 (at node 1)
	maximum = 0.222 (at node 15)
Accepted flit rate average= 0.201281
	minimum = 0.1875 (at node 3)
	maximum = 0.216 (at node 8)
Injected packet length average = 1
Accepted packet length average = 1
Total in-flight flits = 74 (74 measured)
latency change    = 0.0078253
throughput change = 0.0197174
Class 0:
Packet latency average = 22.2275
	minimum = 7
	maximum = 73
Network latency average = 22.1665
	minimum = 7
	maximum = 73
Slowest packet = 130488
Flit latency average = 22.2041
	minimum = 7
	maximum = 73
Slowest flit = 130488
Fragmentation average = 0
	minimum = 0
	maximum = 0
Injected packet rate average = 0.201417
	minimum = 0.186333 (at node 0)
	maximum = 0.217 (at node 15)
Accepted packet rate average = 0.201396
	minimum = 0.188 (at node 3)
	maximum = 0.212333 (at node 8)
Injected flit rate average = 0.201417
	minimum = 0.186333 (at node 0)
	maximum = 0.217 (at node 15)
Accepted flit rate average= 0.201396
	minimum = 0.188 (at node 3)
	maximum = 0.212333 (at node 8)
Injected packet length average = 1
Accepted packet length average = 1
Total in-flight flits = 69 (69 measured)
latency change    = 0.00555565
throughput change = 0.000568946
Draining all recorded packets ...
Draining remaining packets ...
Time taken is 6089 cycles
Class 0:
Packet latency average = 22.3521
	minimum = 7
	maximum = 93
Network latency average = 22.2923
	minimum = 7
	maximum = 93
Slowest packet = 141693
Flit latency average = 22.2923
	minimum = 7
	maximum = 93
Slowest flit = 141693
Fragmentation average = 0
	minimum = 0
	maximum = 0
Injected packet rate average = 0.20525
	minimum = 0.187 (at node 2)
	maximum = 0.227 (at node 11)
Accepted packet rate average = 0.200563
	minimum = 0.177 (at node 7)
	maximum = 0.232 (at node 10)
Injected flit rate average = 0.20525
	minimum = 0.187 (at node 2)
	maximum = 0.227 (at node 11)
Accepted flit rate average= 0.200563
	minimum = 0.177 (at node 7)
	maximum = 0.232 (at node 10)
Injected packet length average = 1
Accepted packet length average = 1
Total in-flight flits = 75 (0 measured)
latency change    = 1
throughput change = 1
Class 0:
Packet latency average = 22.4124
	minimum = 7
	maximum = 93
Network latency average = 22.3285
	minimum = 7
	maximum = 93
Slowest packet = 141693
Flit latency average = 22.3285
	minimum = 7
	maximum = 93
Slowest flit = 141693
Fragmentation average = 0
	minimum = 0
	maximum = 0
Injected packet rate average = 0.203281
	minimum = 0.1825 (at node 2)
	maximum = 0.224 (at node 11)
Accepted packet rate average = 0.20075
	minimum = 0.1855 (at node 4)
	maximum = 0.2225 (at node 10)
Injected flit rate average = 0.203281
	minimum = 0.1825 (at node 2)
	maximum = 0.224 (at node 11)
Accepted flit rate average= 0.20075
	minimum = 0.1855 (at node 4)
	maximum = 0.2225 (at node 10)
Injected packet length average = 1
Accepted packet length average = 1
Total in-flight flits = 81 (0 measured)
latency change    = 0.00268715
throughput change = 0.000933998
Class 0:
Packet latency average = 21.6169
	minimum = 7
	maximum = 65
Network latency average = 21.5835
	minimum = 7
	maximum = 65
Slowest packet = 147400
Flit latency average = 21.5835
	minimum = 7
	maximum = 65
Slowest flit = 147400
Fragmentation average = 0
	minimum = 0
	maximum = 0
Injected packet rate average = 0.194875
	minimum = 0.173 (at node 2)
	maximum = 0.211 (at node 10)
Accepted packet rate average = 0.194938
	minimum = 0.187 (at node 15)
	maximum = 0.208 (at node 8)
Injected flit rate average = 0.194875
	minimum = 0.173 (at node 2)
	maximum = 0.211 (at node 10)
Accepted flit rate average= 0.194938
	minimum = 0.187 (at node 15)
	maximum = 0.208 (at node 8)
Injected packet length average = 1
Accepted packet length average = 1
Total in-flight flits = 81 (0 measured)
latency change    = 0.0367998
throughput change = 0.0298172
Warmed up ...Time used is 3000 cycles
Class 0:
Packet latency average = 22.0693
	minimum = 7
	maximum = 79
Network latency average = 22.0219
	minimum = 7
	maximum = 79
Slowest packet = 150121
Flit latency average = 22.0641
	minimum = 7
	maximum = 79
Slowest flit = 150121
Fragmentation average = 0
	minimum = 0
	maximum = 0
Injected packet rate average = 0.198375
	minimum = 0.174 (at node 8)
	maximum = 0.218 (at node 7)
Accepted packet rate average = 0.198937
	minimum = 0.168 (at node 15)
	maximum = 0.223 (at node 2)
Injected flit rate average = 0.198375
	minimum = 0.174 (at node 8)
	maximum = 0.218 (at node 7)
Accepted flit rate average= 0.198937
	minimum = 0.168 (at node 15)
	maximum = 0.223 (at node 2)
Injected packet length average = 1
Accepted packet length average = 1
Total in-flight flits = 71 (71 measured)
latency change    = 0.0205011
throughput change = 0.0201068
Class 0:
Packet latency average = 22.0466
	minimum = 7
	maximum = 104
Network latency average = 21.9719
	minimum = 7
	maximum = 104
Slowest packet = 153440
Flit latency average = 21.9931
	minimum = 7
	maximum = 104
Slowest flit = 153440
Fragmentation average = 0
	minimum = 0
	maximum = 0
Injected packet rate average = 0.203437
	minimum = 0.183 (at node 4)
	maximum = 0.219 (at node 9)
Accepted packet rate average = 0.203875
	minimum = 0.1835 (at node 10)
	maximum = 0.2165 (at node 5)
Injected flit rate average = 0.203437
	minimum = 0.183 (at node 4)
	maximum = 0.219 (at node 9)
Accepted flit rate average= 0.203875
	minimum = 0.1835 (at node 10)
	maximum = 0.2165 (at node 5)
Injected packet length average = 1
Accepted packet length average = 1
Total in-flight flits = 66 (66 measured)
latency change    = 0.00103181
throughput change = 0.0242183
Class 0:
Packet latency average = 22.1955
	minimum = 7
	maximum = 104
Network latency average = 22.1221
	minimum = 7
	maximum = 104
Slowest packet = 153440
Flit latency average = 22.135
	minimum = 7
	maximum = 104
Slowest flit = 153440
Fragmentation average = 0
	minimum = 0
	maximum = 0
Injected packet rate average = 0.2035
	minimum = 0.191667 (at node 4)
	maximum = 0.216 (at node 7)
Accepted packet rate average = 0.203729
	minimum = 0.193 (at node 15)
	maximum = 0.22 (at node 5)
Injected flit rate average = 0.2035
	minimum = 0.191667 (at node 4)
	maximum = 0.216 (at node 7)
Accepted flit rate average= 0.203729
	minimum = 0.193 (at node 15)
	maximum = 0.22 (at node 5)
Injected packet length average = 1
Accepted packet length average = 1
Total in-flight flits = 69 (69 measured)
latency change    = 0.00671046
throughput change = 0.00071582
Draining all recorded packets ...
Draining remaining packets ...
Time taken is 6080 cycles
Class 0:
Packet latency average = 22.0481
	minimum = 7
	maximum = 81
Network latency average = 21.9562
	minimum = 7
	maximum = 81
Slowest packet = 159857
Flit latency average = 21.9562
	minimum = 7
	maximum = 81
Slowest flit = 159857
Fragmentation average = 0
	minimum = 0
	maximum = 0
Injected packet rate average = 0.1955
	minimum = 0.181 (at node 15)
	maximum = 0.21 (at node 4)
Accepted packet rate average = 0.189875
	minimum = 0.177 (at node 9)
	maximum = 0.205 (at node 0)
Injected flit rate average = 0.1955
	minimum = 0.181 (at node 15)
	maximum = 0.21 (at node 4)
Accepted flit rate average= 0.189875
	minimum = 0.177 (at node 9)
	maximum = 0.205 (at node 0)
Injected packet length average = 1
Accepted packet length average = 1
Total in-flight flits = 91 (0 measured)
latency change    = 1
throughput change = 1
Class 0:
Packet latency average = 22.3881
	minimum = 7
	maximum = 81
Network latency average = 22.295
	minimum = 7
	maximum = 81
Slowest packet = 159857
Flit latency average = 22.295
	minimum = 7
	maximum = 81
Slowest flit = 159857
Fragmentation average = 0
	minimum = 0
	maximum = 0
Injected packet rate average = 0.195625
	minimum = 0.185 (at node 1)
	maximum = 0.2055 (at node 5)
Accepted packet rate average = 0.193562
	minimum = 0.178 (at node 10)
	maximum = 0.206 (at node 4)
Injected flit rate average = 0.195625
	minimum = 0.185 (at node 1)
	maximum = 0.2055 (at node 5)
Accepted flit rate average= 0.193562
	minimum = 0.178 (at node 10)
	maximum = 0.206 (at node 4)
Injected packet length average = 1
Accepted packet length average = 1
Total in-flight flits = 66 (0 measured)
latency change    = 0.0151893
throughput change = 0.0190507
Class 0:
Packet latency average = 22.0255
	minimum = 7
	maximum = 70
Network latency average = 21.9098
	minimum = 7
	maximum = 70
Slowest packet = 166659
Flit latency average = 21.9098
	minimum = 7
	maximum = 70
Slowest flit = 166659
Fragmentation average = 0
	minimum = 0
	maximum = 0
Injected packet rate average = 0.196375
	minimum = 0.167 (at node 9)
	maximum = 0.215 (at node 10)
Accepted packet rate average = 0.196125
	minimum = 0.175 (at node 1)
	maximum = 0.218 (at node 15)
Injected flit rate average = 0.196375
	minimum = 0.167 (at node 9)
	maximum = 0.215 (at node 10)
Accepted flit rate average= 0.196125
	minimum = 0.175 (at node 1)
	maximum = 0.218 (at node 15)
Injected packet length average = 1
Accepted packet length average = 1
Total in-flight flits = 70 (0 measured)
latency change    = 0.0164638
throughput change = 0.0130656
Warmed up ...Time used is 3000 cycles
Class 0:
Packet latency average = 22.7194
	minimum = 7
	maximum = 99
Network latency average = 22.5574
	minimum = 7
	maximum = 99
Slowest packet = 169865
Flit latency average = 22.6143
	minimum = 7
	maximum = 99
Slowest flit = 169865
Fragmentation average = 0
	minimum = 0
	maximum = 0
Injected packet rate average = 0.19825
	minimum = 0.18 (at node 13)
	maximum = 0.22 (at node 15)
Accepted packet rate average = 0.198813
	minimum = 0.176 (at node 1)
	maximum = 0.233 (at node 8)
Injected flit rate average = 0.19825
	minimum = 0.18 (at node 13)
	maximum = 0.22 (at node 15)
Accepted flit rate average= 0.198813
	minimum = 0.176 (at node 1)
	maximum = 0.233 (at node 8)
Injected packet length average = 1
Accepted packet length average = 1
Total in-flight flits = 61 (61 measured)
latency change    = 0.0305417
throughput change = 0.0135178
Class 0:
Packet latency average = 22.621
	minimum = 7
	maximum = 99
Network latency average = 22.5243
	minimum = 7
	maximum = 99
Slowest packet = 169865
Flit latency average = 22.5533
	minimum = 7
	maximum = 99
Slowest flit = 169865
Fragmentation average = 0
	minimum = 0
	maximum = 0
Injected packet rate average = 0.19775
	minimum = 0.1815 (at node 13)
	maximum = 0.2085 (at node 10)
Accepted packet rate average = 0.197687
	minimum = 0.176 (at node 1)
	maximum = 0.2155 (at node 8)
Injected flit rate average = 0.19775
	minimum = 0.1815 (at node 13)
	maximum = 0.2085 (at node 10)
Accepted flit rate average= 0.197687
	minimum = 0.176 (at node 1)
	maximum = 0.2155 (at node 8)
Injected packet length average = 1
Accepted packet length average = 1
Total in-flight flits = 72 (72 measured)
latency change    = 0.00434901
throughput change = 0.0056908
Class 0:
Packet latency average = 22.4744
	minimum = 7
	maximum = 99
Network latency average = 22.3943
	minimum = 7
	maximum = 99
Slowest packet = 169865
Flit latency average = 22.4145
	minimum = 7
	maximum = 99
Slowest flit = 169865
Fragmentation average = 0
	minimum = 0
	maximum = 0
Injected packet rate average = 0.198771
	minimum = 0.183667 (at node 13)
	maximum = 0.205667 (at node 3)
Accepted packet rate average = 0.198583
	minimum = 0.178667 (at node 1)
	maximum = 0.214 (at node 11)
Injected flit rate average = 0.198771
	minimum = 0.183667 (at node 13)
	maximum = 0.205667 (at node 3)
Accepted flit rate average= 0.198583
	minimum = 0.178667 (at node 1)
	maximum = 0.214 (at node 11)
Injected packet length average = 1
Accepted packet length average = 1
Total in-flight flits = 79 (79 measured)
latency change    = 0.00652207
throughput change = 0.00451112
Draining all recorded packets ...
Draining remaining packets ...
Time taken is 6086 cycles
Class 0:
Packet latency average = 21.6687
	minimum = 7
	maximum = 75
Network latency average = 21.6351
	minimum = 7
	maximum = 75
Slowest packet = 180024
Flit latency average = 21.6351
	minimum = 7
	maximum = 75
Slowest flit = 180024
Fragmentation average = 0
	minimum = 0
	maximum = 0
Injected packet rate average = 0.200063
	minimum = 0.173 (at node 3)
	maximum = 0.227 (at node 2)
Accepted packet rate average = 0.19525
	minimum = 0.179 (at node 10)
	maximum = 0.233 (at node 6)
Injected flit rate average = 0.200063
	minimum = 0.173 (at node 3)
	maximum = 0.227 (at node 2)
Accepted flit rate average= 0.19525
	minimum = 0.179 (at node 10)
	maximum = 0.233 (at node 6)
Injected packet length average = 1
Accepted packet length average = 1
Total in-flight flits = 77 (0 measured)
latency change    = 1
throughput change = 1
Class 0:
Packet latency average = 22.4067
	minimum = 7
	maximum = 88
Network latency average = 22.3328
	minimum = 7
	maximum = 88
Slowest packet = 182404
Flit latency average = 22.3328
	minimum = 7
	maximum = 88
Slowest flit = 182404
Fragmentation average = 0
	minimum = 0
	maximum = 0
Injected packet rate average = 0.201063
	minimum = 0.186 (at node 13)
	maximum = 0.222 (at node 2)
Accepted packet rate average = 0.198781
	minimum = 0.1795 (at node 13)
	maximum = 0.2175 (at node 6)
Injected flit rate average = 0.201063
	minimum = 0.186 (at node 13)
	maximum = 0.222 (at node 2)
Accepted flit rate average= 0.198781
	minimum = 0.1795 (at node 13)
	maximum = 0.2175 (at node 6)
Injected packet length average = 1
Accepted packet length average = 1
Total in-flight flits = 73 (0 measured)
latency change    = 0.0329367
throughput change = 0.0177645
Class 0:
Packet latency average = 22.2655
	minimum = 7
	maximum = 63
Network latency average = 22.2271
	minimum = 7
	maximum = 63
Slowest packet = 184335
Flit latency average = 22.2271
	minimum = 7
	maximum = 63
Slowest flit = 184335
Fragmentation average = 0
	minimum = 0
	maximum = 0
Injected packet rate average = 0.196875
	minimum = 0.179 (at node 2)
	maximum = 0.224 (at node 3)
Accepted packet rate average = 0.196813
	minimum = 0.174 (at node 6)
	maximum = 0.229 (at node 14)
Injected flit rate average = 0.196875
	minimum = 0.179 (at node 2)
	maximum = 0.224 (at node 3)
Accepted flit rate average= 0.196813
	minimum = 0.174 (at node 6)
	maximum = 0.229 (at node 14)
Injected packet length average = 1
Accepted packet length average = 1
Total in-flight flits = 74 (0 measured)
latency change    = 0.00634237
throughput change = 0.0100032
Warmed up ...Time used is 3000 cycles
Class 0:
Packet latency average = 21.6627
	minimum = 7
	maximum = 60
Network latency average = 21.6399
	minimum = 7
	maximum = 60
Slowest packet = 187407
Flit latency average = 21.6796
	minimum = 7
	maximum = 60
Slowest flit = 187407
Fragmentation average = 0
	minimum = 0
	maximum = 0
Injected packet rate average = 0.202687
	minimum = 0.18 (at node 10)
	maximum = 0.215 (at node 1)
Accepted packet rate average = 0.202687
	minimum = 0.185 (at node 5)
	maximum = 0.236 (at node 15)
Injected flit rate average = 0.202687
	minimum = 0.18 (at node 10)
	maximum = 0.215 (at node 1)
Accepted flit rate average= 0.202687
	minimum = 0.185 (at node 5)
	maximum = 0.236 (at node 15)
Injected packet length average = 1
Accepted packet length average = 1
Total in-flight flits = 74 (74 measured)
latency change    = 0.0278272
throughput change = 0.0289855
Class 0:
Packet latency average = 21.7022
	minimum = 7
	maximum = 68
Network latency average = 21.6664
	minimum = 7
	maximum = 68
Slowest packet = 192690
Flit latency average = 21.686
	minimum = 7
	maximum = 68
Slowest flit = 192690
Fragmentation average = 0
	minimum = 0
	maximum = 0
Injected packet rate average = 0.200937
	minimum = 0.19 (at node 3)
	maximum = 0.2195 (at node 6)
Accepted packet rate average = 0.201156
	minimum = 0.187 (at node 5)
	maximum = 0.2155 (at node 15)
Injected flit rate average = 0.200937
	minimum = 0.19 (at node 3)
	maximum = 0.2195 (at node 6)
Accepted flit rate average= 0.201156
	minimum = 0.187 (at node 5)
	maximum = 0.2155 (at node 15)
Injected packet length average = 1
Accepted packet length average = 1
Total in-flight flits = 67 (67 measured)
latency change    = 0.00182078
throughput change = 0.00761224
Class 0:
Packet latency average = 21.9517
	minimum = 7
	maximum = 78
Network latency average = 21.9096
	minimum = 7
	maximum = 78
Slowest packet = 194308
Flit latency average = 21.9209
	minimum = 7
	maximum = 78
Slowest flit = 194308
Fragmentation average = 0
	minimum = 0
	maximum = 0
Injected packet rate average = 0.198937
	minimum = 0.187333 (at node 11)
	maximum = 0.209 (at node 1)
Accepted packet rate average = 0.199167
	minimum = 0.188 (at node 9)
	maximum = 0.217667 (at node 8)
Injected flit rate average = 0.198937
	minimum = 0.187333 (at node 11)
	maximum = 0.209 (at node 1)
Accepted flit rate average= 0.199167
	minimum = 0.188 (at node 9)
	maximum = 0.217667 (at node 8)
Injected packet length average = 1
Accepted packet length average = 1
Total in-flight flits = 63 (63 measured)
latency change    = 0.0113674
throughput change = 0.00998954
Draining all recorded packets ...
Draining remaining packets ...
Time taken is 6082 cycles
Class 0:
Packet latency average = 21.7741
	minimum = 7
	maximum = 66
Network latency average = 21.7444
	minimum = 7
	maximum = 66
Slowest packet = 197090
Flit latency average = 21.7444
	minimum = 7
	maximum = 66
Slowest flit = 197090
Fragmentation average = 0
	minimum = 0
	maximum = 0
Injected packet rate average = 0.193438
	minimum = 0.174 (at node 5)
	maximum = 0.211 (at node 1)
Accepted packet rate average = 0.18925
	minimum = 0.169 (at node 10)
	maximum = 0.208 (at node 14)
Injected flit rate average = 0.193438
	minimum = 0.174 (at node 5)
	maximum = 0.211 (at node 1)
Accepted flit rate average= 0.18925
	minimum = 0.169 (at node 10)
	maximum = 0.208 (at node 14)
Injected packet length average = 1
Accepted packet length average = 1
Total in-flight flits = 67 (0 measured)
latency change    = 1
throughput change = 1
Class 0:
Packet latency average = 22.3087
	minimum = 7
	maximum = 71
Network latency average = 22.2472
	minimum = 7
	maximum = 71
Slowest packet = 199829
Flit latency average = 22.2472
	minimum = 7
	maximum = 71
Slowest flit = 199829
Fragmentation average = 0
	minimum = 0
	maximum = 0
Injected packet rate average = 0.196969
	minimum = 0.164 (at node 5)
	maximum = 0.216 (at node 1)
Accepted packet rate average = 0.195188
	minimum = 0.173 (at node 13)
	maximum = 0.21 (at node 15)
Injected flit rate average = 0.196969
	minimum = 0.164 (at node 5)
	maximum = 0.216 (at node 1)
Accepted flit rate average= 0.195188
	minimum = 0.173 (at node 13)
	maximum = 0.21 (at node 15)
Injected packet length average = 1
Accepted packet length average = 1
Total in-flight flits = 57 (0 measured)
latency change    = 0.0239624
throughput change = 0.0304195
Class 0:
Packet latency average = 22.3803
	minimum = 7
	maximum = 83
Network latency average = 22.288
	minimum = 7
	maximum = 83
Slowest packet = 204282
Flit latency average = 22.288
	minimum = 7
	maximum = 83
Slowest flit = 204282
Fragmentation average = 0
	minimum = 0
	maximum = 0
Injected packet rate average = 0.200875
	minimum = 0.174 (at node 5)
	maximum = 0.221 (at node 3)
Accepted packet rate average = 0.2005
	minimum = 0.177 (at node 15)
	maximum = 0.219 (at node 4)
Injected flit rate average = 0.200875
	minimum = 0.174 (at node 5)
	maximum = 0.221 (at node 3)
Accepted flit rate average= 0.2005
	minimum = 0.177 (at node 15)
	maximum = 0.219 (at node 4)
Injected packet length average = 1
Accepted packet length average = 1
Total in-flight flits = 63 (0 measured)
latency change    = 0.00320021
throughput change = 0.0264963
Warmed up ...Time used is 3000 cycles
Class 0:
Packet latency average = 21.6296
	minimum = 7
	maximum = 66
Network latency average = 21.5888
	minimum = 7
	maximum = 66
Slowest packet = 208551
Flit latency average = 21.6938
	minimum = 7
	maximum = 85
Slowest flit = 206003
Fragmentation average = 0
	minimum = 0
	maximum = 0
Injected packet rate average = 0.199187
	minimum = 0.185 (at node 13)
	maximum = 0.219 (at node 2)
Accepted packet rate average = 0.198813
	minimum = 0.172 (at node 8)
	maximum = 0.223 (at node 4)
Injected flit rate average = 0.199187
	minimum = 0.185 (at node 13)
	maximum = 0.219 (at node 2)
Accepted flit rate average= 0.198813
	minimum = 0.172 (at node 8)
	maximum = 0.223 (at node 4)
Injected packet length average = 1
Accepted packet length average = 1
Total in-flight flits = 69 (69 measured)
latency change    = 0.0347085
throughput change = 0.0084879
Class 0:
Packet latency average = 22.1633
	minimum = 7
	maximum = 92
Network latency average = 22.1142
	minimum = 7
	maximum = 92
Slowest packet = 209839
Flit latency average = 22.1614
	minimum = 7
	maximum = 92
Slowest flit = 209839
Fragmentation average = 0
	minimum = 0
	maximum = 0
Injected packet rate average = 0.199437
	minimum = 0.1895 (at node 15)
	maximum = 0.216 (at node 7)
Accepted packet rate average = 0.199219
	minimum = 0.185 (at node 8)
	maximum = 0.223 (at node 4)
Injected flit rate average = 0.199437
	minimum = 0.1895 (at node 15)
	maximum = 0.216 (at node 7)
Accepted flit rate average= 0.199219
	minimum = 0.185 (at node 8)
	maximum = 0.223 (at node 4)
Injected packet length average = 1
Accepted packet length average = 1
Total in-flight flits = 70 (70 measured)
latency change    = 0.0240834
throughput change = 0.00203922
Class 0:
Packet latency average = 22.3541
	minimum = 7
	maximum = 92
Network latency average = 22.2971
	minimum = 7
	maximum = 92
Slowest packet = 209839
Flit latency average = 22.3273
	minimum = 7
	maximum = 92
Slowest flit = 209839
Fragmentation average = 0
	minimum = 0
	maximum = 0
Injected packet rate average = 0.199979
	minimum = 0.193 (at node 2)
	maximum = 0.211 (at node 0)
Accepted packet rate average = 0.199667
	minimum = 0.189333 (at node 1)
	maximum = 0.211333 (at node 4)
Injected flit rate average = 0.199979
	minimum = 0.193 (at node 2)
	maximum = 0.211 (at node 0)
Accepted flit rate average= 0.199667
	minimum = 0.189333 (at node 1)
	maximum = 0.211333 (at node 4)
Injected packet length average = 1
Accepted packet length average = 1
Total in-flight flits = 78 (78 measured)
latency change    = 0.00853177
throughput change = 0.00224332
Draining all recorded packets ...
Draining remaining packets ...
Time taken is 6097 cycles
Class 0:
Packet latency average = 22.287
	minimum = 7
	maximum = 92
Network latency average = 22.2458
	minimum = 7
	maximum = 92
Slowest packet = 218374
Flit latency average = 22.2458
	minimum = 7
	maximum = 92
Slowest flit = 218374
Fragmentation average = 0
	minimum = 0
	maximum = 0
Injected packet rate average = 0.199937
	minimum = 0.177 (at node 10)
	maximum = 0.22 (at node 11)
Accepted packet rate average = 0.19575
	minimum = 0.172 (at node 6)
	maximum = 0.216 (at node 9)
Injected flit rate average = 0.199937
	minimum = 0.177 (at node 10)
	maximum = 0.22 (at node 11)
Accepted flit rate average= 0.19575
	minimum = 0.172 (at node 6)
	maximum = 0.216 (at node 9)
Injected packet length average = 1
Accepted packet length average = 1
Total in-flight flits = 67 (0 measured)
latency change    = 1
throughput change = 1
Class 0:
Packet latency average = 22.0396
	minimum = 7
	maximum = 92
Network latency average = 22.0005
	minimum = 7
	maximum = 92
Slowest packet = 218374
Flit latency average = 22.0005
	minimum = 7
	maximum = 92
Slowest flit = 218374
Fragmentation average = 0
	minimum = 0
	maximum = 0
Injected packet rate average = 0.198156
	minimum = 0.1835 (at node 10)
	maximum = 0.2185 (at node 11)
Accepted packet rate average = 0.195719
	minimum = 0.1795 (at node 6)
	maximum = 0.206 (at node 4)
Injected flit rate average = 0.198156
	minimum = 0.1835 (at node 10)
	maximum = 0.2185 (at node 11)
Accepted flit rate average= 0.195719
	minimum = 0.1795 (at node 6)
	maximum = 0.206 (at node 4)
Injected packet length average = 1
Accepted packet length average = 1
Total in-flight flits = 78 (0 measured)
latency change    = 0.011227
throughput change = 0.000159668
Class 0:
Packet latency average = 22.3673
	minimum = 7
	maximum = 76
Network latency average = 22.2898
	minimum = 7
	maximum = 76
Slowest packet = 223606
Flit latency average = 22.2898
	minimum = 7
	maximum = 76
Slowest flit = 223606
Fragmentation average = 0
	minimum = 0
	maximum = 0
Injected packet rate average = 0.201875
	minimum = 0.188 (at node 2)
	maximum = 0.218 (at node 11)
Accepted packet rate average = 0.201625
	minimum = 0.176 (at node 14)
	maximum = 0.24 (at node 9)
Injected flit rate average = 0.201875
	minimum = 0.188 (at node 2)
	maximum = 0.218 (at node 11)
Accepted flit rate average= 0.201625
	minimum = 0.176 (at node 14)
	maximum = 0.24 (at node 9)
Injected packet length average = 1
Accepted packet length average = 1
Total in-flight flits = 83 (0 measured)
latency change    = 0.0146522
throughput change = 0.0292932
Warmed up ...Time used is 3000 cycles
Class 0:
Packet latency average = 22.0016
	minimum = 7
	maximum = 80
Network latency average = 21.8598
	minimum = 7
	maximum = 80
Slowest packet = 226552
Flit latency average = 22.0028
	minimum = 7
	maximum = 80
Slowest flit = 226552
Fragmentation average = 0
	minimum = 0
	maximum = 0
Injected packet rate average = 0.1995
	minimum = 0.174 (at node 8)
	maximum = 0.238 (at node 3)
Accepted packet rate average = 0.199937
	minimum = 0.179 (at node 10)
	maximum = 0.233 (at node 9)
Injected flit rate average = 0.1995
	minimum = 0.174 (at node 8)
	maximum = 0.238 (at node 3)
Accepted flit rate average= 0.199937
	minimum = 0.179 (at node 10)
	maximum = 0.233 (at node 9)
Injected packet length average = 1
Accepted packet length average = 1
Total in-flight flits = 75 (75 measured)
latency change    = 0.0166226
throughput change = 0.00844014
Class 0:
Packet latency average = 22.3959
	minimum = 7
	maximum = 80
Network latency average = 22.2844
	minimum = 7
	maximum = 80
Slowest packet = 226552
Flit latency average = 22.3505
	minimum = 7
	maximum = 80
Slowest flit = 226552
Fragmentation average = 0
	minimum = 0
	maximum = 0
Injected packet rate average = 0.199563
	minimum = 0.1785 (at node 8)
	maximum = 0.2165 (at node 3)
Accepted packet rate average = 0.199906
	minimum = 0.184 (at node 2)
	maximum = 0.228 (at node 4)
Injected flit rate average = 0.199563
	minimum = 0.1785 (at node 8)
	maximum = 0.2165 (at node 3)
Accepted flit rate average= 0.199906
	minimum = 0.184 (at node 2)
	maximum = 0.228 (at node 4)
Injected packet length average = 1
Accepted packet length average = 1
Total in-flight flits = 71 (71 measured)
latency change    = 0.0176077
throughput change = 0.000156323
Class 0:
Packet latency average = 22.3833
	minimum = 7
	maximum = 84
Network latency average = 22.2771
	minimum = 7
	maximum = 83
Slowest packet = 234291
Flit latency average = 22.3208
	minimum = 7
	maximum = 83
Slowest flit = 234291
Fragmentation average = 0
	minimum = 0
	maximum = 0
Injected packet rate average = 0.200896
	minimum = 0.188 (at node 9)
	maximum = 0.212667 (at node 7)
Accepted packet rate average = 0.201375
	minimum = 0.193333 (at node 8)
	maximum = 0.214 (at node 4)
Injected flit rate average = 0.200896
	minimum = 0.188 (at node 9)
	maximum = 0.212667 (at node 7)
Accepted flit rate average= 0.201375
	minimum = 0.193333 (at node 8)
	maximum = 0.214 (at node 4)
Injected packet length average = 1
Accepted packet length average = 1
Total in-flight flits = 59 (59 measured)
latency change    = 0.000565718
throughput change = 0.00729361
Draining all recorded packets ...
Draining remaining packets ...
Time taken is 6071 cycles
Class 0:
Packet latency average = 21.6682
	minimum = 7
	maximum = 77
Network latency average = 21.6345
	minimum = 7
	maximum = 74
Slowest packet = 237903
Flit latency average = 21.6345
	minimum = 7
	maximum = 74
Slowest flit = 237903
Fragmentation average = 0
	minimum = 0
	maximum = 0
Injected packet rate average = 0.191312
	minimum = 0.171 (at node 13)
	maximum = 0.222 (at node 9)
Accepted packet rate average = 0.18725
	minimum = 0.167 (at node 0)
	maximum = 0.198 (at node 1)
Injected flit rate average = 0.191312
	minimum = 0.171 (at node 13)
	maximum = 0.222 (at node 9)
Accepted flit rate average= 0.18725
	minimum = 0.167 (at node 0)
	maximum = 0.198 (at node 1)
Injected packet length average = 1
Accepted packet length average = 1
Total in-flight flits = 65 (0 measured)
latency change    = 1
throughput change = 1
Class 0:
Packet latency average = 22.0509
	minimum = 7
	maximum = 78
Network latency average = 22.0103
	minimum = 7
	maximum = 78
Slowest packet = 239702
Flit latency average = 22.0103
	minimum = 7
	maximum = 78
Slowest flit = 239702
Fragmentation average = 0
	minimum = 0
	maximum = 0
Injected packet rate average = 0.196531
	minimum = 0.186 (at node 12)
	maximum = 0.2115 (at node 10)
Accepted packet rate average = 0.194438
	minimum = 0.1755 (at node 0)
	maximum = 0.2075 (at node 15)
Injected flit rate average = 0.196531
	minimum = 0.186 (at node 12)
	maximum = 0.2115 (at node 10)
Accepted flit rate average= 0.194438
	minimum = 0.1755 (at node 0)
	maximum = 0.2075 (at node 15)
Injected packet length average = 1
Accepted packet length average = 1
Total in-flight flits = 67 (0 measured)
latency change    = 0.0173563
throughput change = 0.0369656
Class 0:
Packet latency average = 22.4538
	minimum = 7
	maximum = 92
Network latency average = 22.3268
	minimum = 7
	maximum = 92
Slowest packet = 244162
Flit latency average = 22.3268
	minimum = 7
	maximum = 92
Slowest flit = 244162
Fragmentation average = 0
	minimum = 0
	maximum = 0
Injected packet rate average = 0.198187
	minimum = 0.167 (at node 7)
	maximum = 0.225 (at node 14)
Accepted packet rate average = 0.198875
	minimum = 0.184 (at node 7)
	maximum = 0.228 (at node 12)
Injected flit rate average = 0.198187
	minimum = 0.167 (at node 7)
	maximum = 0.225 (at node 14)
Accepted flit rate average= 0.198875
	minimum = 0.184 (at node 7)
	maximum = 0.228 (at node 12)
Injected packet length average = 1
Accepted packet length average = 1
Total in-flight flits = 56 (0 measured)
latency change    = 0.0179415
throughput change = 0.022313
Warmed up ...Time used is 3000 cycles
Class 0:
Packet latency average = 22.0959
	minimum = 7
	maximum = 63
Network latency average = 22.0388
	minimum = 7
	maximum = 63
Slowest packet = 246132
Flit latency average = 22.0885
	minimum = 7
	maximum = 63
Slowest flit = 246132
Fragmentation average = 0
	minimum = 0
	maximum = 0
Injected packet rate average = 0.199813
	minimum = 0.184 (at node 9)
	maximum = 0.216 (at node 7)
Accepted packet rate average = 0.198437
	minimum = 0.177 (at node 10)
	maximum = 0.229 (at node 4)
Injected flit rate average = 0.199813
	minimum = 0.184 (at node 9)
	maximum = 0.216 (at node 7)
Accepted flit rate average= 0.198437
	minimum = 0.177 (at node 10)
	maximum = 0.229 (at node 4)
Injected packet length average = 1
Accepted packet length average = 1
Total in-flight flits = 78 (78 measured)
latency change    = 0.0161993
throughput change = 0.00220472
Class 0:
Packet latency average = 22.0773
	minimum = 7
	maximum = 66
Network latency average = 22.0238
	minimum = 7
	maximum = 66
Slowest packet = 250655
Flit latency average = 22.0485
	minimum = 7
	maximum = 66
Slowest flit = 250655
Fragmentation average = 0
	minimum = 0
	maximum = 0
Injected packet rate average = 0.200344
	minimum = 0.1825 (at node 9)
	maximum = 0.211 (at node 0)
Accepted packet rate average = 0.200313
	minimum = 0.181 (at node 10)
	maximum = 0.2145 (at node 4)
Injected flit rate average = 0.200344
	minimum = 0.1825 (at node 9)
	maximum = 0.211 (at node 0)
Accepted flit rate average= 0.200313
	minimum = 0.181 (at node 10)
	maximum = 0.2145 (at node 4)
Injected packet length average = 1
Accepted packet length average = 1
Total in-flight flits = 58 (58 measured)
latency change    = 0.000842038
throughput change = 0.00936037
Class 0:
Packet latency average = 22.1038
	minimum = 7
	maximum = 79
Network latency average = 22.0444
	minimum = 7
	maximum = 79
Slowest packet = 253405
Flit latency average = 22.0608
	minimum = 7
	maximum = 79
Slowest flit = 253405
Fragmentation average = 0
	minimum = 0
	maximum = 0
Injected packet rate average = 0.199187
	minimum = 0.189667 (at node 9)
	maximum = 0.211333 (at node 12)
Accepted packet rate average = 0.199313
	minimum = 0.181667 (at node 14)
	maximum = 0.212 (at node 9)
Injected flit rate average = 0.199187
	minimum = 0.189667 (at node 9)
	maximum = 0.211333 (at node 12)
Accepted flit rate average= 0.199313
	minimum = 0.181667 (at node 14)
	maximum = 0.212 (at node 9)
Injected packet length average = 1
Accepted packet length average = 1
Total in-flight flits = 50 (50 measured)
latency change    = 0.00119891
throughput change = 0.00501725
Draining all recorded packets ...
Draining remaining packets ...
Time taken is 6088 cycles
Class 0:
Packet latency average = 21.5136
	minimum = 7
	maximum = 65
Network latency average = 21.4682
	minimum = 7
	maximum = 65
Slowest packet = 254725
Flit latency average = 21.4682
	minimum = 7
	maximum = 65
Slowest flit = 254725
Fragmentation average = 0
	minimum = 0
	maximum = 0
Injected packet rate average = 0.196187
	minimum = 0.179 (at node 0)
	maximum = 0.221 (at node 5)
Accepted packet rate average = 0.1925
	minimum = 0.162 (at node 4)
	maximum = 0.214 (at node 9)
Injected flit rate average = 0.196187
	minimum = 0.179 (at node 0)
	maximum = 0.221 (at node 5)
Accepted flit rate average= 0.1925
	minimum = 0.162 (at node 4)
	maximum = 0.214 (at node 9)
Injected packet length average = 1
Accepted packet length average = 1
Total in-flight flits = 59 (0 measured)
latency change    = 1
throughput change = 1
Class 0:
Packet latency average = 21.8559
	minimum = 7
	maximum = 77
Network latency average = 21.8104
	minimum = 7
	maximum = 77
Slowest packet = 259770
Flit latency average = 21.8104
	minimum = 7
	maximum = 77
Slowest flit = 259770
Fragmentation average = 0
	minimum = 0
	maximum = 0
Injected packet rate average = 0.197625
	minimum = 0.187 (at node 12)
	maximum = 0.21 (at node 5)
Accepted packet rate average = 0.195781
	minimum = 0.1745 (at node 4)
	maximum = 0.217 (at node 13)
Injected flit rate average = 0.197625
	minimum = 0.187 (at node 12)
	maximum = 0.21 (at node 5)
Accepted flit rate average= 0.195781
	minimum = 0.1745 (at node 4)
	maximum = 0.217 (at node 13)
Injected packet length average = 1
Accepted packet length average = 1
Total in-flight flits = 59 (0 measured)
latency change    = 0.0156585
throughput change = 0.0167598
Class 0:
Packet latency average = 22.2132
	minimum = 7
	maximum = 73
Network latency average = 22.1651
	minimum = 7
	maximum = 73
Slowest packet = 263108
Flit latency average = 22.1651
	minimum = 7
	maximum = 73
Slowest flit = 263108
Fragmentation average = 0
	minimum = 0
	maximum = 0
Injected packet rate average = 0.20075
	minimum = 0.184 (at node 5)
	maximum = 0.215 (at node 11)
Accepted packet rate average = 0.199937
	minimum = 0.168 (at node 9)
	maximum = 0.227 (at node 15)
Injected flit rate average = 0.20075
	minimum = 0.184 (at node 5)
	maximum = 0.215 (at node 11)
Accepted flit rate average= 0.199937
	minimum = 0.168 (at node 9)
	maximum = 0.227 (at node 15)
Injected packet length average = 1
Accepted packet length average = 1
Total in-flight flits = 72 (0 measured)
latency change    = 0.0160862
throughput change = 0.0207877
Warmed up ...Time used is 3000 cycles
Class 0:
Packet latency average = 21.943
	minimum = 7
	maximum = 84
Network latency average = 21.8788
	minimum = 7
	maximum = 84
Slowest packet = 264566
Flit latency average = 22.0013
	minimum = 7
	maximum = 84
Slowest flit = 264566
Fragmentation average = 0
	minimum = 0
	maximum = 0
Injected packet rate average = 0.198063
	minimum = 0.169 (at node 1)
	maximum = 0.211 (at node 5)
Accepted packet rate average = 0.198437
	minimum = 0.175 (at node 2)
	maximum = 0.217 (at node 13)
Injected flit rate average = 0.198063
	minimum = 0.169 (at node 1)
	maximum = 0.211 (at node 5)
Accepted flit rate average= 0.198437
	minimum = 0.175 (at node 2)
	maximum = 0.217 (at node 13)
Injected packet length average = 1
Accepted packet length average = 1
Total in-flight flits = 66 (66 measured)
latency change    = 0.0123153
throughput change = 0.00755906
Class 0:
Packet latency average = 22.3501
	minimum = 7
	maximum = 100
Network latency average = 22.2892
	minimum = 7
	maximum = 100
Slowest packet = 269110
Flit latency average = 22.3458
	minimum = 7
	maximum = 100
Slowest flit = 269110
Fragmentation average = 0
	minimum = 0
	maximum = 0
Injected packet rate average = 0.199094
	minimum = 0.1815 (at node 1)
	maximum = 0.211 (at node 0)
Accepted packet rate average = 0.198469
	minimum = 0.167 (at node 12)
	maximum = 0.216 (at node 8)
Injected flit rate average = 0.199094
	minimum = 0.1815 (at node 1)
	maximum = 0.211 (at node 0)
Accepted flit rate average= 0.198469
	minimum = 0.167 (at node 12)
	maximum = 0.216 (at node 8)
Injected packet length average = 1
Accepted packet length average = 1
Total in-flight flits = 92 (92 measured)
latency change    = 0.0182146
throughput change = 0.000157456
Class 0:
Packet latency average = 22.5617
	minimum = 7
	maximum = 119
Network latency average = 22.4876
	minimum = 7
	maximum = 119
Slowest packet = 270234
Flit latency average = 22.5234
	minimum = 7
	maximum = 119
Slowest flit = 270234
Fragmentation average = 0
	minimum = 0
	maximum = 0
Injected packet rate average = 0.200604
	minimum = 0.183667 (at node 1)
	maximum = 0.215333 (at node 0)
Accepted packet rate average = 0.200521
	minimum = 0.179333 (at node 12)
	maximum = 0.215 (at node 13)
Injected flit rate average = 0.200604
	minimum = 0.183667 (at node 1)
	maximum = 0.215333 (at node 0)
Accepted flit rate average= 0.200521
	minimum = 0.179333 (at node 12)
	maximum = 0.215 (at node 13)
Injected packet length average = 1
Accepted packet length average = 1
Total in-flight flits = 76 (76 measured)
latency change    = 0.00938105
throughput change = 0.0102338
Draining all recorded packets ...
Draining remaining packets ...
Time taken is 6098 cycles
Class 0:
Packet latency average = 22.3014
	minimum = 7
	maximum = 72
Network latency average = 22.2349
	minimum = 7
	maximum = 72
Slowest packet = 276234
Flit latency average = 22.2349
	minimum = 7
	maximum = 72
Slowest flit = 276234
Fragmentation average = 0
	minimum = 0
	maximum = 0
Injected packet rate average = 0.199625
	minimum = 0.173 (at node 10)
	maximum = 0.221 (at node 5)
Accepted packet rate average = 0.195312
	minimum = 0.151 (at node 8)
	maximum = 0.226 (at node 9)
Injected flit rate average = 0.199625
	minimum = 0.173 (at node 10)
	maximum = 0.221 (at node 5)
Accepted flit rate average= 0.195312
	minimum = 0.151 (at node 8)
	maximum = 0.226 (at node 9)
Injected packet length average = 1
Accepted packet length average = 1
Total in-flight flits = 69 (0 measured)
latency change    = 1
throughput change = 1
Class 0:
Packet latency average = 22.2389
	minimum = 7
	maximum = 72
Network latency average = 22.1807
	minimum = 7
	maximum = 72
Slowest packet = 276234
Flit latency average = 22.1807
	minimum = 7
	maximum = 72
Slowest flit = 276234
Fragmentation average = 0
	minimum = 0
	maximum = 0
Injected packet rate average = 0.197781
	minimum = 0.177 (at node 10)
	maximum = 0.2105 (at node 6)
Accepted packet rate average = 0.195062
	minimum = 0.177 (at node 6)
	maximum = 0.216 (at node 9)
Injected flit rate average = 0.197781
	minimum = 0.177 (at node 10)
	maximum = 0.2105 (at node 6)
Accepted flit rate average= 0.195062
	minimum = 0.177 (at node 6)
	maximum = 0.216 (at node 9)
Injected packet length average = 1
Accepted packet length average = 1
Total in-flight flits = 87 (0 measured)
latency change    = 0.00281373
throughput change = 0.00128164
Class 0:
Packet latency average = 22.1157
	minimum = 7
	maximum = 67
Network latency average = 22.0366
	minimum = 7
	maximum = 66
Slowest packet = 281187
Flit latency average = 22.0366
	minimum = 7
	maximum = 66
Slowest flit = 281516
Fragmentation average = 0
	minimum = 0
	maximum = 0
Injected packet rate average = 0.20125
	minimum = 0.184 (at node 0)
	maximum = 0.218 (at node 1)
Accepted packet rate average = 0.2015
	minimum = 0.175 (at node 4)
	maximum = 0.224 (at node 14)
Injected flit rate average = 0.20125
	minimum = 0.184 (at node 0)
	maximum = 0.218 (at node 1)
Accepted flit rate average= 0.2015
	minimum = 0.175 (at node 4)
	maximum = 0.224 (at node 14)
Injected packet length average = 1
Accepted packet length average = 1
Total in-flight flits = 83 (0 measured)
latency change    = 0.00556939
throughput change = 0.0319479
Warmed up ...Time used is 3000 cycles
Class 0:
Packet latency average = 22.4534
	minimum = 7
	maximum = 78
Network latency average = 22.3483
	minimum = 7
	maximum = 78
Slowest packet = 284905
Flit latency average = 22.4817
	minimum = 7
	maximum = 78
Slowest flit = 284905
Fragmentation average = 0
	minimum = 0
	maximum = 0
Injected packet rate average = 0.200125
	minimum = 0.184 (at node 11)
	maximum = 0.222 (at node 6)
Accepted packet rate average = 0.2015
	minimum = 0.182 (at node 0)
	maximum = 0.214 (at node 10)
Injected flit rate average = 0.200125
	minimum = 0.184 (at node 11)
	maximum = 0.222 (at node 6)
Accepted flit rate average= 0.2015
	minimum = 0.182 (at node 0)
	maximum = 0.214 (at node 10)
Injected packet length average = 1
Accepted packet length average = 1
Total in-flight flits = 61 (61 measured)
latency change    = 0.0150385
throughput change = 0
Class 0:
Packet latency average = 22.1561
	minimum = 7
	maximum = 78
Network latency average = 22.0841
	minimum = 7
	maximum = 78
Slowest packet = 284905
Flit latency average = 22.1552
	minimum = 7
	maximum = 78
Slowest flit = 284905
Fragmentation average = 0
	minimum = 0
	maximum = 0
Injected packet rate average = 0.198531
	minimum = 0.181 (at node 12)
	maximum = 0.2155 (at node 6)
Accepted packet rate average = 0.19875
	minimum = 0.186 (at node 7)
	maximum = 0.2085 (at node 15)
Injected flit rate average = 0.198531
	minimum = 0.181 (at node 12)
	maximum = 0.2155 (at node 6)
Accepted flit rate average= 0.19875
	minimum = 0.186 (at node 7)
	maximum = 0.2085 (at node 15)
Injected packet length average = 1
Accepted packet length average = 1
Total in-flight flits = 76 (76 measured)
latency change    = 0.0134154
throughput change = 0.0138365
Class 0:
Packet latency average = 22.2809
	minimum = 7
	maximum = 78
Network latency average = 22.209
	minimum = 7
	maximum = 78
Slowest packet = 284905
Flit latency average = 22.2549
	minimum = 7
	maximum = 78
Slowest flit = 284905
Fragmentation average = 0
	minimum = 0
	maximum = 0
Injected packet rate average = 0.200146
	minimum = 0.191667 (at node 7)
	maximum = 0.21 (at node 6)
Accepted packet rate average = 0.200375
	minimum = 0.188667 (at node 7)
	maximum = 0.212 (at node 6)
Injected flit rate average = 0.200146
	minimum = 0.191667 (at node 7)
	maximum = 0.21 (at node 6)
Accepted flit rate average= 0.200375
	minimum = 0.188667 (at node 7)
	maximum = 0.212 (at node 6)
Injected packet length average = 1
Accepted packet length average = 1
Total in-flight flits = 72 (72 measured)
latency change    = 0.00559828
throughput change = 0.00810979
Draining all recorded packets ...
Draining remaining packets ...
Time taken is 6105 cycles
Class 0:
Packet latency average = 22.1641
	minimum = 7
	maximum = 68
Network latency average = 22.1089
	minimum = 7
	maximum = 68
Slowest packet = 295857
Flit latency average = 22.1089
	minimum = 7
	maximum = 68
Slowest flit = 295857
Fragmentation average = 0
	minimum = 0
	maximum = 0
Injected packet rate average = 0.198375
	minimum = 0.178 (at node 11)
	maximum = 0.222 (at node 8)
Accepted packet rate average = 0.1935
	minimum = 0.172 (at node 8)
	maximum = 0.224 (at node 12)
[...]
	minimum = 0.192 (at node 15)
	maximum = 0.218 (at node 10)
Accepted packet rate average = 0.20225
	minimum = 0.1875 (at node 15)
	maximum = 0.2255 (at node 13)
Injected flit rate average = 0.201281
	minimum = 0.192 (at node 15)
	maximum = 0.218 (at node 10)
Accepted flit rate average= 0.20225
	minimum = 0.1875 (at node 15)
	maximum = 0.2255 (at node 13)
Injected packet length average = 1
Accepted packet length average = 1
Total in-flight flits = 46 (46 measured)
latency change    = 0.000881552
throughput change = 0.0188504
Class 0:
Packet latency average = 22.1517
	minimum = 7
	maximum = 98
Network latency average = 22.0887
	minimum = 7
	maximum = 98
Slowest packet = 1874490
Flit latency average = 22.1188
	minimum = 7
	maximum = 98
Slowest flit = 1874490
Fragmentation average = 0
	minimum = 0
	maximum = 0
Injected packet rate average = 0.199563
	minimum = 0.189667 (at node 9)
	maximum = 0.210333 (at node 7)
Accepted packet rate average = 0.199792
	minimum = 0.187333 (at node 9)
	maximum = 0.213 (at node 10)
Injected flit rate average = 0.199563
	minimum = 0.189667 (at node 9)
	maximum = 0.210333 (at node 7)
Accepted flit rate average= 0.199792
	minimum = 0.187333 (at node 9)
	maximum = 0.213 (at node 10)
Injected packet length average = 1
Accepted packet length average = 1
Total in-flight flits = 66 (66 measured)
latency change    = 0.00681181
throughput change = 0.0123045
Class 0:
Packet latency average = 22.1203
	minimum = 7
	maximum = 98
Network latency average = 22.0593
	minimum = 7
	maximum = 98
Slowest packet = 1874490
Flit latency average = 22.082
	minimum = 7
	maximum = 98
Slowest flit = 1874490
Fragmentation average = 0
	minimum = 0
	maximum = 0
Injected packet rate average = 0.200219
	minimum = 0.1895 (at node 13)
	maximum = 0.211 (at node 1)
Accepted packet rate average = 0.200266
	minimum = 0.1885 (at node 9)
	maximum = 0.21025 (at node 13)
Injected flit rate average = 0.200219
	minimum = 0.1895 (at node 13)
	maximum = 0.211 (at node 1)
Accepted flit rate average= 0.200266
	minimum = 0.1885 (at node 9)
	maximum = 0.21025 (at node 13)
Injected packet length average = 1
Accepted packet length average = 1
Total in-flight flits = 74 (74 measured)
latency change    = 0.00141759
throughput change = 0.00236665
Draining all recorded packets ...
Draining remaining packets ...
Time taken is 7084 cycles
Class 0:
Packet latency average = 22.2089
	minimum = 7
	maximum = 87
Network latency average = 22.1242
	minimum = 7
	maximum = 87
Slowest packet = 1887360
Flit latency average = 22.1242
	minimum = 7
	maximum = 87
Slowest flit = 1887360
Fragmentation average = 0
	minimum = 0
	maximum = 0
Injected packet rate average = 0.202125
	minimum = 0.19 (at node 12)
	maximum = 0.214 (at node 1)
Accepted packet rate average = 0.19775
	minimum = 0.166 (at node 10)
	maximum = 0.228 (at node 2)
Injected flit rate average = 0.202125
	minimum = 0.19 (at node 12)
	maximum = 0.214 (at node 1)
Accepted flit rate average= 0.19775
	minimum = 0.166 (at node 10)
	maximum = 0.228 (at node 2)
Injected packet length average = 1
Accepted packet length average = 1
Total in-flight flits = 70 (0 measured)
latency change    = 1
throughput change = 1
Class 0:
Packet latency average = 22.3
	minimum = 7
	maximum = 91
Network latency average = 22.1418
	minimum = 7
	maximum = 87
Slowest packet = 1887360
Flit latency average = 22.1418
	minimum = 7
	maximum = 87
Slowest flit = 1887360
Fragmentation average = 0
	minimum = 0
	maximum = 0
Injected packet rate average = 0.20175
	minimum = 0.1885 (at node 11)
	maximum = 0.214 (at node 12)
Accepted packet rate average = 0.199719
	minimum = 0.1785 (at node 10)
	maximum = 0.223 (at node 7)
Injected flit rate average = 0.20175
	minimum = 0.1885 (at node 11)
	maximum = 0.214 (at node 12)
Accepted flit rate average= 0.199719
	minimum = 0.1785 (at node 10)
	maximum = 0.223 (at node 7)
Injected packet length average = 1
Accepted packet length average = 1
Total in-flight flits = 65 (0 measured)
latency change    = 0.00408253
throughput change = 0.00985761
Class 0:
Packet latency average = 23.0352
	minimum = 7
	maximum = 84
Network latency average = 22.9635
	minimum = 7
	maximum = 84
Slowest packet = 1893417
Flit latency average = 22.9635
	minimum = 7
	maximum = 84
Slowest flit = 1893417
Fragmentation average = 0
	minimum = 0
	maximum = 0
Injected packet rate average = 0.199625
	minimum = 0.174 (at node 6)
	maximum = 0.231 (at node 14)
Accepted packet rate average = 0.198875
	minimum = 0.173 (at node 2)
	maximum = 0.216 (at node 0)
Injected flit rate average = 0.199625
	minimum = 0.174 (at node 6)
	maximum = 0.231 (at node 14)
Accepted flit rate average= 0.198875
	minimum = 0.173 (at node 2)
	maximum = 0.216 (at node 0)
Injected packet length average = 1
Accepted packet length average = 1
Total in-flight flits = 77 (0 measured)
latency change    = 0.0319183
throughput change = 0.00424261
Warmed up ...Time used is 3000 cycles
Class 0:
Packet latency average = 21.9735
	minimum = 7
	maximum = 74
Network latency average = 21.9186
	minimum = 7
	maximum = 74
Slowest packet = 1897898
Flit latency average = 22.0377
	minimum = 7
	maximum = 74
Slowest flit = 1897898
Fragmentation average = 0
	minimum = 0
	maximum = 0
Injected packet rate average = 0.201187
	minimum = 0.182 (at node 11)
	maximum = 0.23 (at node 14)
Accepted packet rate average = 0.200563
	minimum = 0.183 (at node 10)
	maximum = 0.217 (at node 9)
Injected flit rate average = 0.201187
	minimum = 0.182 (at node 11)
	maximum = 0.23 (at node 14)
Accepted flit rate average= 0.200563
	minimum = 0.183 (at node 10)
	maximum = 0.217 (at node 9)
Injected packet length average = 1
Accepted packet length average = 1
Total in-flight flits = 87 (87 measured)
latency change    = 0.0483172
throughput change = 0.00841384
Class 0:
Packet latency average = 21.8456
	minimum = 7
	maximum = 74
Network latency average = 21.7802
	minimum = 7
	maximum = 74
Slowest packet = 1897898
Flit latency average = 21.8414
	minimum = 7
	maximum = 74
Slowest flit = 1897898
Fragmentation average = 0
	minimum = 0
	maximum = 0
Injected packet rate average = 0.201031
	minimum = 0.183 (at node 7)
	maximum = 0.227 (at node 6)
Accepted packet rate average = 0.200781
	minimum = 0.1795 (at node 4)
	maximum = 0.2215 (at node 5)
Injected flit rate average = 0.201031
	minimum = 0.183 (at node 7)
	maximum = 0.227 (at node 6)
Accepted flit rate average= 0.200781
	minimum = 0.1795 (at node 4)
	maximum = 0.2215 (at node 5)
Injected packet length average = 1
Accepted packet length average = 1
Total in-flight flits = 86 (86 measured)
latency change    = 0.00585375
throughput change = 0.00108949
Class 0:
Packet latency average = 21.826
	minimum = 7
	maximum = 75
Network latency average = 21.7633
	minimum = 7
	maximum = 75
Slowest packet = 1903854
Flit latency average = 21.8042
	minimum = 7
	maximum = 75
Slowest flit = 1903854
Fragmentation average = 0
	minimum = 0
	maximum = 0
Injected packet rate average = 0.200729
	minimum = 0.191333 (at node 15)
	maximum = 0.227 (at node 6)
Accepted packet rate average = 0.200604
	minimum = 0.181 (at node 4)
	maximum = 0.217333 (at node 5)
Injected flit rate average = 0.200729
	minimum = 0.191333 (at node 15)
	maximum = 0.227 (at node 6)
Accepted flit rate average= 0.200604
	minimum = 0.181 (at node 4)
	maximum = 0.217333 (at node 5)
Injected packet length average = 1
Accepted packet length average = 1
Total in-flight flits = 83 (83 measured)
latency change    = 0.000898728
throughput change = 0.00088275
Draining all recorded packets ...
Draining remaining packets ...
Time taken is 6110 cycles
Class 0:
Packet latency average = 21.9997
	minimum = 7
	maximum = 75
Network latency average = 21.9553
	minimum = 7
	maximum = 75
Slowest packet = 1906903
Flit latency average = 21.9553
	minimum = 7
	maximum = 75
Slowest flit = 1906903
Fragmentation average = 0
	minimum = 0
	maximum = 0
Injected packet rate average = 0.198875
	minimum = 0.169 (at node 2)
	maximum = 0.227 (at node 11)
Accepted packet rate average = 0.1945
	minimum = 0.172 (at node 5)
	maximum = 0.215 (at node 13)
Injected flit rate average = 0.198875
	minimum = 0.169 (at node 2)
	maximum = 0.227 (at node 11)
Accepted flit rate average= 0.1945
	minimum = 0.172 (at node 5)
	maximum = 0.215 (at node 13)
Injected packet length average = 1
Accepted packet length average = 1
Total in-flight flits = 70 (0 measured)
latency change    = 1
throughput change = 1
Class 0:
Packet latency average = 22.4879
	minimum = 7
	maximum = 93
Network latency average = 22.4145
	minimum = 7
	maximum = 93
Slowest packet = 1909596
Flit latency average = 22.4145
	minimum = 7
	maximum = 93
Slowest flit = 1909596
Fragmentation average = 0
	minimum = 0
	maximum = 0
Injected packet rate average = 0.200687
	minimum = 0.1835 (at node 2)
	maximum = 0.2135 (at node 7)
Accepted packet rate average = 0.198344
	minimum = 0.1845 (at node 5)
	maximum = 0.2265 (at node 2)
Injected flit rate average = 0.200687
	minimum = 0.1835 (at node 2)
	maximum = 0.2135 (at node 7)
Accepted flit rate average= 0.198344
	minimum = 0.1845 (at node 5)
	maximum = 0.2265 (at node 2)
Injected packet length average = 1
Accepted packet length average = 1
Total in-flight flits = 75 (0 measured)
latency change    = 0.0217124
throughput change = 0.0193792
Class 0:
Packet latency average = 21.733
	minimum = 7
	maximum = 70
Network latency average = 21.7113
	minimum = 7
	maximum = 70
Slowest packet = 1914288
Flit latency average = 21.7113
	minimum = 7
	maximum = 70
Slowest flit = 1914288
Fragmentation average = 0
	minimum = 0
	maximum = 0
Injected packet rate average = 0.189812
	minimum = 0.17 (at node 12)
	maximum = 0.214 (at node 5)
Accepted packet rate average = 0.19075
	minimum = 0.166 (at node 4)
	maximum = 0.22 (at node 8)
Injected flit rate average = 0.189812
	minimum = 0.17 (at node 12)
	maximum = 0.214 (at node 5)
Accepted flit rate average= 0.19075
	minimum = 0.166 (at node 4)
	maximum = 0.22 (at node 8)
Injected packet length average = 1
Accepted packet length average = 1
Total in-flight flits = 60 (0 measured)
latency change    = 0.0347392
throughput change = 0.03981
Warmed up ...Time used is 3000 cycles
Class 0:
Packet latency average = 22.3529
	minimum = 7
	maximum = 72
Network latency average = 22.1645
	minimum = 7
	maximum = 65
Slowest packet = 1915976
Flit latency average = 22.2269
	minimum = 7
	maximum = 65
Slowest flit = 1915976
Fragmentation average = 0
	minimum = 0
	maximum = 0
Injected packet rate average = 0.202813
	minimum = 0.185 (at node 4)
	maximum = 0.23 (at node 3)
Accepted packet rate average = 0.201375
	minimum = 0.168 (at node 4)
	maximum = 0.221 (at node 6)
Injected flit rate average = 0.202813
	minimum = 0.185 (at node 4)
	maximum = 0.23 (at node 3)
Accepted flit rate average= 0.201375
	minimum = 0.168 (at node 4)
	maximum = 0.221 (at node 6)
Injected packet length average = 1
Accepted packet length average = 1
Total in-flight flits = 83 (83 measured)
latency change    = 0.0277359
throughput change = 0.0527623
Class 0:
Packet latency average = 22.2948
	minimum = 7
	maximum = 81
Network latency average = 22.1844
	minimum = 7
	maximum = 81
Slowest packet = 1919468
Flit latency average = 22.2153
	minimum = 7
	maximum = 81
Slowest flit = 1919468
Fragmentation average = 0
	minimum = 0
	maximum = 0
Injected packet rate average = 0.202875
	minimum = 0.1895 (at node 15)
	maximum = 0.2275 (at node 3)
Accepted packet rate average = 0.202656
	minimum = 0.182 (at node 13)
	maximum = 0.218 (at node 11)
Injected flit rate average = 0.202875
	minimum = 0.1895 (at node 15)
	maximum = 0.2275 (at node 3)
Accepted flit rate average= 0.202656
	minimum = 0.182 (at node 13)
	maximum = 0.218 (at node 11)
Injected packet length average = 1
Accepted packet length average = 1
Total in-flight flits = 67 (67 measured)
latency change    = 0.00260847
throughput change = 0.00632228
Class 0:
Packet latency average = 22.298
	minimum = 7
	maximum = 81
Network latency average = 22.2084
	minimum = 7
	maximum = 81
Slowest packet = 1919468
Flit latency average = 22.2288
	minimum = 7
	maximum = 81
Slowest flit = 1919468
Fragmentation average = 0
	minimum = 0
	maximum = 0
Injected packet rate average = 0.202771
	minimum = 0.192 (at node 1)
	maximum = 0.214333 (at node 3)
Accepted packet rate average = 0.202563
	minimum = 0.188333 (at node 13)
	maximum = 0.216667 (at node 11)
Injected flit rate average = 0.202771
	minimum = 0.192 (at node 1)
	maximum = 0.214333 (at node 3)
Accepted flit rate average= 0.202563
	minimum = 0.188333 (at node 13)
	maximum = 0.216667 (at node 11)
Injected packet length average = 1
Accepted packet length average = 1
Total in-flight flits = 70 (70 measured)
latency change    = 0.000146116
throughput change = 0.00046282
Class 0:
Packet latency average = 22.2499
	minimum = 7
	maximum = 81
Network latency average = 22.1731
	minimum = 7
	maximum = 81
Slowest packet = 1919468
Flit latency average = 22.1886
	minimum = 7
	maximum = 81
Slowest flit = 1919468
Fragmentation average = 0
	minimum = 0
	maximum = 0
Injected packet rate average = 0.201687
	minimum = 0.192 (at node 1)
	maximum = 0.2135 (at node 11)
Accepted packet rate average = 0.201609
	minimum = 0.19075 (at node 3)
	maximum = 0.21 (at node 11)
Injected flit rate average = 0.201687
	minimum = 0.192 (at node 1)
	maximum = 0.2135 (at node 11)
Accepted flit rate average= 0.201609
	minimum = 0.19075 (at node 3)
	maximum = 0.21 (at node 11)
Injected packet length average = 1
Accepted packet length average = 1
Total in-flight flits = 65 (65 measured)
latency change    = 0.00216542
throughput change = 0.00472758
Draining all recorded packets ...
Draining remaining packets ...
Time taken is 7094 cycles
Class 0:
Packet latency average = 21.9034
	minimum = 7
	maximum = 74
Network latency average = 21.8601
	minimum = 7
	maximum = 74
Slowest packet = 1931042
Flit latency average = 21.8601
	minimum = 7
	maximum = 74
Slowest flit = 1931042
Fragmentation average = 0
	minimum = 0
	maximum = 0
Injected packet rate average = 0.200563
	minimum = 0.183 (at node 1)
	maximum = 0.215 (at node 6)
Accepted packet rate average = 0.196625
	minimum = 0.172 (at node 8)
	maximum = 0.215 (at node 9)
Injected flit rate average = 0.200563
	minimum = 0.183 (at node 1)
	maximum = 0.215 (at node 6)
Accepted flit rate average= 0.196625
	minimum = 0.172 (at node 8)
	maximum = 0.215 (at node 9)
Injected packet length average = 1
Accepted packet length average = 1
Total in-flight flits = 63 (0 measured)
latency change    = 1
throughput change = 1
Class 0:
Packet latency average = 22.0897
	minimum = 7
	maximum = 74
Network latency average = 22.0137
	minimum = 7
	maximum = 74
Slowest packet = 1931042
Flit latency average = 22.0137
	minimum = 7
	maximum = 74
Slowest flit = 1931042
Fragmentation average = 0
	minimum = 0
	maximum = 0
Injected packet rate average = 0.199781
	minimum = 0.1915 (at node 1)
	maximum = 0.219 (at node 11)
Accepted packet rate average = 0.197781
	minimum = 0.181 (at node 8)
	maximum = 0.2115 (at node 0)
Injected flit rate average = 0.199781
	minimum = 0.1915 (at node 1)
	maximum = 0.219 (at node 11)
Accepted flit rate average= 0.197781
	minimum = 0.181 (at node 8)
	maximum = 0.2115 (at node 0)
Injected packet length average = 1
Accepted packet length average = 1
Total in-flight flits = 64 (0 measured)
latency change    = 0.00843723
throughput change = 0.00584611
Class 0:
Packet latency average = 22.0197
	minimum = 7
	maximum = 62
Network latency average = 21.9466
	minimum = 7
	maximum = 62
Slowest packet = 1937212
Flit latency average = 21.9466
	minimum = 7
	maximum = 62
Slowest flit = 1937212
Fragmentation average = 0
	minimum = 0
	maximum = 0
Injected packet rate average = 0.197125
	minimum = 0.168 (at node 10)
	maximum = 0.227 (at node 6)
Accepted packet rate average = 0.1965
	minimum = 0.169 (at node 4)
	maximum = 0.224 (at node 9)
Injected flit rate average = 0.197125
	minimum = 0.168 (at node 10)
	maximum = 0.227 (at node 6)
Accepted flit rate average= 0.1965
	minimum = 0.169 (at node 4)
	maximum = 0.224 (at node 9)
Injected packet length average = 1
Accepted packet length average = 1
Total in-flight flits = 75 (0 measured)
latency change    = 0.00318013
throughput change = 0.00652036
Warmed up ...Time used is 3000 cycles
Class 0:
Packet latency average = 21.8322
	minimum = 7
	maximum = 64
Network latency average = 21.7688
	minimum = 7
	maximum = 64
Slowest packet = 1940604
Flit latency average = 21.8588
	minimum = 7
	maximum = 64
Slowest flit = 1940604
Fragmentation average = 0
	minimum = 0
	maximum = 0
Injected packet rate average = 0.198125
	minimum = 0.176 (at node 4)
	maximum = 0.239 (at node 13)
Accepted packet rate average = 0.19875
	minimum = 0.171 (at node 7)
	maximum = 0.225 (at node 9)
Injected flit rate average = 0.198125
	minimum = 0.176 (at node 4)
	maximum = 0.239 (at node 13)
Accepted flit rate average= 0.19875
	minimum = 0.171 (at node 7)
	maximum = 0.225 (at node 9)
Injected packet length average = 1
Accepted packet length average = 1
Total in-flight flits = 64 (64 measured)
latency change    = 0.00858887
throughput change = 0.0113208
Class 0:
Packet latency average = 22.2499
	minimum = 7
	maximum = 73
Network latency average = 22.1819
	minimum = 7
	maximum = 73
Slowest packet = 1941515
Flit latency average = 22.2216
	minimum = 7
	maximum = 73
Slowest flit = 1941515
Fragmentation average = 0
	minimum = 0
	maximum = 0
Injected packet rate average = 0.200406
	minimum = 0.1895 (at node 0)
	maximum = 0.226 (at node 13)
Accepted packet rate average = 0.200813
	minimum = 0.182 (at node 7)
	maximum = 0.2155 (at node 11)
Injected flit rate average = 0.200406
	minimum = 0.1895 (at node 0)
	maximum = 0.226 (at node 13)
Accepted flit rate average= 0.200813
	minimum = 0.182 (at node 7)
	maximum = 0.2155 (at node 11)
Injected packet length average = 1
Accepted packet length average = 1
Total in-flight flits = 61 (61 measured)
latency change    = 0.018772
throughput change = 0.0102708
Class 0:
Packet latency average = 22.4331
	minimum = 7
	maximum = 101
Network latency average = 22.3662
	minimum = 7
	maximum = 101
Slowest packet = 1945905
Flit latency average = 22.3914
	minimum = 7
	maximum = 101
Slowest flit = 1945905
Fragmentation average = 0
	minimum = 0
	maximum = 0
Injected packet rate average = 0.199896
	minimum = 0.189333 (at node 0)
	maximum = 0.213667 (at node 13)
Accepted packet rate average = 0.199979
	minimum = 0.185333 (at node 7)
	maximum = 0.213 (at node 11)
Injected flit rate average = 0.199896
	minimum = 0.189333 (at node 0)
	maximum = 0.213667 (at node 13)
Accepted flit rate average= 0.199979
	minimum = 0.185333 (at node 7)
	maximum = 0.213 (at node 11)
Injected packet length average = 1
Accepted packet length average = 1
Total in-flight flits = 71 (71 measured)
latency change    = 0.00816803
throughput change = 0.0041671
Draining all recorded packets ...
Draining remaining packets ...
Time taken is 6076 cycles
====== Overall Traffic Statistics ======
====== Traffic class 0 ======
Packet latency average = 22.2983 (100 samples)
	minimum = 7 (100 samples)
	maximum = 88.67 (100 samples)
Network latency average = 22.2242 (100 samples)
	minimum = 7 (100 samples)
	maximum = 88.14 (100 samples)
Flit latency average = 22.2498 (100 samples)
	minimum = 7 (100 samples)
	maximum = 88.3 (100 samples)
Fragmentation average = 0 (100 samples)
	minimum = 0 (100 samples)
	maximum = 0 (100 samples)
Injected packet rate average = 0.200336 (100 samples)
	minimum = 0.188228 (100 samples)
	maximum = 0.213042 (100 samples)
Accepted packet rate average = 0.200346 (100 samples)
	minimum = 0.185402 (100 samples)
	maximum = 0.214668 (100 samples)
Injected flit rate average = 0.200336 (100 samples)
	minimum = 0.188228 (100 samples)
	maximum = 0.213042 (100 samples)
Accepted flit rate average = 0.200346 (100 samples)
	minimum = 0.185402 (100 samples)
	maximum = 0.214668 (100 samples)
Injected packet size average = 1 (100 samples)
Accepted packet size average = 1 (100 samples)
Hops average = 3.4997 (100 samples)
Total run time 17.302
