BEGIN Configuration File: /tmp/bs_1138183_564885.cfg
topology = mesh;
k = 4;
n = 2;
routing_function = valiant;
num_vcs = 4;
vc_buf_size = 4;
wait_for_tail_credit = 1;
vc_allocator = islip;
sw_allocator = islip;
alloc_iters = 1;
credit_delay = 2;
routing_delay = 1;
vc_alloc_delay = 1;
sw_alloc_delay = 1;
input_speedup = 2;
output_speedup = 1;
internal_speedup = 1.0;
traffic = hotspot;
packet_size = 1;
sim_type = latency;
injection_rate = 0.01;
warmup_periods = 3;
sample_period = 1000;
sim_count = 100;
seed = 2;

END Configuration File: /tmp/bs_1138183_564885.cfg
Class 0:
Packet latency average = 32.3636
	minimum = 12
	maximum = 57
Network latency average = 32.3636
	minimum = 12
	maximum = 57
Slowest packet = 107
Flit latency average = 32.3636
	minimum = 12
	maximum = 57
Slowest flit = 107
Fragmentation average = 0
	minimum = 0
	maximum = 0
Injected packet rate average = 0.008625
	minimum = 0.003 (at node 2)
	maximum = 0.015 (at node 13)
Accepted packet rate average = 0.00825
	minimum = 0 (at node 0)
	maximum = 0.132 (at node 11)
Injected flit rate average = 0.008625
	minimum = 0.003 (at node 2)
	maximum = 0.015 (at node 13)
Accepted flit rate average= 0.00825
	minimum = 0 (at node 0)
	maximum = 0.132 (at node 11)
Injected packet length average = 1
Accepted packet length average = 1
Total in-flight flits = 6 (0 measured)
latency change    = 1
throughput change = 1
Class 0:
Packet latency average = 32.2881
	minimum = 7
	maximum = 62
Network latency average = 32.2881
	minimum = 7
	maximum = 62
Slowest packet = 149
Flit latency average = 32.2881
	minimum = 7
	maximum = 62
Slowest flit = 149
Fragmentation average = 0
	minimum = 0
	maximum = 0
Injected packet rate average = 0.009625
	minimum = 0.005 (at node 2)
	maximum = 0.015 (at node 13)
Accepted packet rate average = 0.0094375
	minimum = 0 (at node 0)
	maximum = 0.151 (at node 11)
Injected flit rate average = 0.009625
	minimum = 0.005 (at node 2)
	maximum = 0.015 (at node 13)
Accepted flit rate average= 0.0094375
	minimum = 0 (at node 0)
	maximum = 0.151 (at node 11)
Injected packet length average = 1
Accepted packet length average = 1
Total in-flight flits = 6 (0 measured)
latency change    = 0.00234009
throughput change = 0.125828
Class 0:
Packet latency average = 31.9067
	minimum = 7
	maximum = 58
Network latency average = 31.9067
	minimum = 7
	maximum = 58
Slowest packet = 423
Flit latency average = 31.9067
	minimum = 7
	maximum = 58
Slowest flit = 423
Fragmentation average = 0
	minimum = 0
	maximum = 0
Injected packet rate average = 0.009125
	minimum = 0.003 (at node 8)
	maximum = 0.018 (at node 3)
Accepted packet rate average = 0.009375
	minimum = 0 (at node 0)
	maximum = 0.15 (at node 11)
Injected flit rate average = 0.009125
	minimum = 0.003 (at node 8)
	maximum = 0.018 (at node 3)
Accepted flit rate average= 0.009375
	minimum = 0 (at node 0)
	maximum = 0.15 (at node 11)
Injected packet length average = 1
Accepted packet length average = 1
Total in-flight flits = 2 (0 measured)
latency change    = 0.011954
throughput change = 0.00666667
Warmed up ...Time used is 3000 cycles
Class 0:
Packet latency average = 32.8421
	minimum = 7
	maximum = 57
Network latency average = 32.8421
	minimum = 7
	maximum = 57
Slowest packet = 495
Flit latency average = 32.8324
	minimum = 7
	maximum = 57
Slowest flit = 495
Fragmentation average = 0
	minimum = 0
	maximum = 0
Injected packet rate average = 0.0109375
	minimum = 0.007 (at node 3)
	maximum = 0.017 (at node 12)
Accepted packet rate average = 0.0108125
	minimum = 0 (at node 0)
	maximum = 0.173 (at node 11)
Injected flit rate average = 0.0109375
	minimum = 0.007 (at node 3)
	maximum = 0.017 (at node 12)
Accepted flit rate average= 0.0108125
	minimum = 0 (at node 0)
	maximum = 0.173 (at node 11)
Injected packet length average = 1
Accepted packet length average = 1
Total in-flight flits = 4 (4 measured)
latency change    = 0.0284829
throughput change = 0.132948
Class 0:
Packet latency average = 32.8344
	minimum = 7
	maximum = 64
Network latency average = 32.8344
	minimum = 7
	maximum = 64
Slowest packet = 653
Flit latency average = 32.8292
	minimum = 7
	maximum = 64
Slowest flit = 653
Fragmentation average = 0
	minimum = 0
	maximum = 0
Injected packet rate average = 0.0102188
	minimum = 0.0075 (at node 15)
	maximum = 0.0125 (at node 0)
Accepted packet rate average = 0.0100625
	minimum = 0 (at node 0)
	maximum = 0.161 (at node 11)
Injected flit rate average = 0.0102188
	minimum = 0.0075 (at node 15)
	maximum = 0.0125 (at node 0)
Accepted flit rate average= 0.0100625
	minimum = 0 (at node 0)
	maximum = 0.161 (at node 11)
Injected packet length average = 1
Accepted packet length average = 1
Total in-flight flits = 7 (7 measured)
latency change    = 0.000235432
throughput change = 0.0745342
Class 0:
Packet latency average = 33.1452
	minimum = 7
	maximum = 64
Network latency average = 33.1452
	minimum = 7
	maximum = 64
Slowest packet = 653
Flit latency average = 33.1405
	minimum = 7
	maximum = 64
Slowest flit = 653
Fragmentation average = 0
	minimum = 0
	maximum = 0
Injected packet rate average = 0.0102917
	minimum = 0.00733333 (at node 2)
	maximum = 0.0126667 (at node 6)
Accepted packet rate average = 0.0102292
	minimum = 0 (at node 0)
	maximum = 0.163667 (at node 11)
Injected flit rate average = 0.0102917
	minimum = 0.00733333 (at node 2)
	maximum = 0.0126667 (at node 6)
Accepted flit rate average= 0.0102292
	minimum = 0 (at node 0)
	maximum = 0.163667 (at node 11)
Injected packet length average = 1
Accepted packet length average = 1
Total in-flight flits = 5 (5 measured)
latency change    = 0.00937751
throughput change = 0.0162933
Class 0:
Packet latency average = 33.19
	minimum = 7
	maximum = 64
Network latency average = 33.19
	minimum = 7
	maximum = 64
Slowest packet = 653
Flit latency average = 33.1864
	minimum = 7
	maximum = 64
Slowest flit = 653
Fragmentation average = 0
	minimum = 0
	maximum = 0
Injected packet rate average = 0.0104531
	minimum = 0.0075 (at node 2)
	maximum = 0.0125 (at node 5)
Accepted packet rate average = 0.0103125
	minimum = 0 (at node 0)
	maximum = 0.165 (at node 11)
Injected flit rate average = 0.0104531
	minimum = 0.0075 (at node 2)
	maximum = 0.0125 (at node 5)
Accepted flit rate average= 0.0103125
	minimum = 0 (at node 0)
	maximum = 0.165 (at node 11)
Injected packet length average = 1
Accepted packet length average = 1
Total in-flight flits = 11 (11 measured)
latency change    = 0.00134906
throughput change = 0.00808081
Class 0:
Packet latency average = 33.3398
	minimum = 7
	maximum = 70
Network latency average = 33.3398
	minimum = 7
	maximum = 70
Slowest packet = 1132
Flit latency average = 33.3366
	minimum = 7
	maximum = 70
Slowest flit = 1132
Fragmentation average = 0
	minimum = 0
	maximum = 0
Injected packet rate average = 0.0103375
	minimum = 0.0078 (at node 2)
	maximum = 0.0124 (at node 5)
Accepted packet rate average = 0.010325
	minimum = 0 (at node 0)
	maximum = 0.1652 (at node 11)
Injected flit rate average = 0.0103375
	minimum = 0.0078 (at node 2)
	maximum = 0.0124 (at node 5)
Accepted flit rate average= 0.010325
	minimum = 0 (at node 0)
	maximum = 0.1652 (at node 11)
Injected packet length average = 1
Accepted packet length average = 1
Total in-flight flits = 3 (3 measured)
latency change    = 0.00449421
throughput change = 0.00121065
Draining all recorded packets ...
Draining remaining packets ...
Time taken is 8056 cycles
Class 0:
Packet latency average = 31.6149
	minimum = 12
	maximum = 57
Network latency average = 31.6149
	minimum = 12
	maximum = 57
Slowest packet = 1296
Flit latency average = 31.6149
	minimum = 12
	maximum = 57
Slowest flit = 1296
Fragmentation average = 0
	minimum = 0
	maximum = 0
Injected packet rate average = 0.0105625
	minimum = 0.006 (at node 5)
	maximum = 0.015 (at node 15)
Accepted packet rate average = 0.0100625
	minimum = 0 (at node 0)
	maximum = 0.161 (at node 11)
Injected flit rate average = 0.0105625
	minimum = 0.006 (at node 5)
	maximum = 0.015 (at node 15)
Accepted flit rate average= 0.0100625
	minimum = 0 (at node 0)
	maximum = 0.161 (at node 11)
Injected packet length average = 1
Accepted packet length average = 1
Total in-flight flits = 8 (0 measured)
latency change    = 1
throughput change = 1
Class 0:
Packet latency average = 32.5042
	minimum = 7
	maximum = 72
Network latency average = 32.5042
	minimum = 7
	maximum = 72
Slowest packet = 1484
Flit latency average = 32.5042
	minimum = 7
	maximum = 72
Slowest flit = 1484
Fragmentation average = 0
	minimum = 0
	maximum = 0
Injected packet rate average = 0.011125
	minimum = 0.0075 (at node 9)
	maximum = 0.017 (at node 8)
Accepted packet rate average = 0.0110312
	minimum = 0 (at node 0)
	maximum = 0.1765 (at node 11)
Injected flit rate average = 0.011125
	minimum = 0.0075 (at node 9)
	maximum = 0.017 (at node 8)
Accepted flit rate average= 0.0110312
	minimum = 0 (at node 0)
	maximum = 0.1765 (at node 11)
Injected packet length average = 1
Accepted packet length average = 1
Total in-flight flits = 3 (0 measured)
latency change    = 0.0273608
throughput change = 0.0878187
Class 0:
Packet latency average = 34.0862
	minimum = 12
	maximum = 62
Network latency average = 34.0862
	minimum = 12
	maximum = 62
Slowest packet = 1744
Flit latency average = 34.0862
	minimum = 12
	maximum = 62
Slowest flit = 1744
Fragmentation average = 0
	minimum = 0
	maximum = 0
Injected packet rate average = 0.011125
	minimum = 0.005 (at node 1)
	maximum = 0.018 (at node 12)
Accepted packet rate average = 0.010875
	minimum = 0 (at node 0)
	maximum = 0.174 (at node 11)
Injected flit rate average = 0.011125
	minimum = 0.005 (at node 1)
	maximum = 0.018 (at node 12)
Accepted flit rate average= 0.010875
	minimum = 0 (at node 0)
	maximum = 0.174 (at node 11)
Injected packet length average = 1
Accepted packet length average = 1
Total in-flight flits = 7 (0 measured)
latency change    = 0.0464105
throughput change = 0.0143678
Warmed up ...Time used is 3000 cycles
Class 0:
Packet latency average = 31.9586
	minimum = 12
	maximum = 62
Network latency average = 31.9586
	minimum = 12
	maximum = 62
Slowest packet = 1948
Flit latency average = 32.1705
	minimum = 12
	maximum = 62
Slowest flit = 1948
Fragmentation average = 0
	minimum = 0
	maximum = 0
Injected packet rate average = 0.0106875
	minimum = 0.005 (at node 9)
	maximum = 0.017 (at node 1)
Accepted packet rate average = 0.011
	minimum = 0 (at node 0)
	maximum = 0.176 (at node 11)
Injected flit rate average = 0.0106875
	minimum = 0.005 (at node 9)
	maximum = 0.017 (at node 1)
Accepted flit rate average= 0.011
	minimum = 0 (at node 0)
	maximum = 0.176 (at node 11)
Injected packet length average = 1
Accepted packet length average = 1
Total in-flight flits = 2 (2 measured)
latency change    = 0.0665745
throughput change = 0.0113636
Class 0:
Packet latency average = 31.6141
	minimum = 12
	maximum = 62
Network latency average = 31.6141
	minimum = 12
	maximum = 62
Slowest packet = 1948
Flit latency average = 31.739
	minimum = 12
	maximum = 62
Slowest flit = 1948
Fragmentation average = 0
	minimum = 0
	maximum = 0
Injected packet rate average = 0.009875
	minimum = 0.006 (at node 9)
	maximum = 0.0145 (at node 0)
Accepted packet rate average = 0.0099375
	minimum = 0 (at node 0)
	maximum = 0.159 (at node 11)
Injected flit rate average = 0.009875
	minimum = 0.006 (at node 9)
	maximum = 0.0145 (at node 0)
Accepted flit rate average= 0.0099375
	minimum = 0 (at node 0)
	maximum = 0.159 (at node 11)
Injected packet length average = 1
Accepted packet length average = 1
Total in-flight flits = 5 (5 measured)
latency change    = 0.0108949
throughput change = 0.106918
Class 0:
Packet latency average = 32.8792
	minimum = 7
	maximum = 68
Network latency average = 32.8792
	minimum = 7
	maximum = 68
Slowest packet = 2249
Flit latency average = 32.9425
	minimum = 7
	maximum = 68
Slowest flit = 2249
Fragmentation average = 0
	minimum = 0
	maximum = 0
Injected packet rate average = 0.0101042
	minimum = 0.00733333 (at node 10)
	maximum = 0.0133333 (at node 0)
Accepted packet rate average = 0.0101458
	minimum = 0 (at node 0)
	maximum = 0.162333 (at node 11)
Injected flit rate average = 0.0101042
	minimum = 0.00733333 (at node 10)
	maximum = 0.0133333 (at node 0)
Accepted flit rate average= 0.0101458
	minimum = 0 (at node 0)
	maximum = 0.162333 (at node 11)
Injected packet length average = 1
Accepted packet length average = 1
Total in-flight flits = 5 (5 measured)
latency change    = 0.0384748
throughput change = 0.0205339
Class 0:
Packet latency average = 32.9164
	minimum = 7
	maximum = 68
Network latency average = 32.9164
	minimum = 7
	maximum = 68
Slowest packet = 2249
Flit latency average = 32.9641
	minimum = 7
	maximum = 68
Slowest flit = 2249
Fragmentation average = 0
	minimum = 0
	maximum = 0
Injected packet rate average = 0.0100156
	minimum = 0.00725 (at node 10)
	maximum = 0.012 (at node 1)
Accepted packet rate average = 0.0100156
	minimum = 0 (at node 0)
	maximum = 0.16025 (at node 11)
Injected flit rate average = 0.0100156
	minimum = 0.00725 (at node 10)
	maximum = 0.012 (at node 1)
Accepted flit rate average= 0.0100156
	minimum = 0 (at node 0)
	maximum = 0.16025 (at node 11)
Injected packet length average = 1
Accepted packet length average = 1
Total in-flight flits = 7 (7 measured)
latency change    = 0.00113126
throughput change = 0.0130005
Class 0:
Packet latency average = 32.9076
	minimum = 7
	maximum = 68
Network latency average = 32.9076
	minimum = 7
	maximum = 68
Slowest packet = 2249
Flit latency average = 32.9451
	minimum = 7
	maximum = 68
Slowest flit = 2249
Fragmentation average = 0
	minimum = 0
	maximum = 0
Injected packet rate average = 0.0102625
	minimum = 0.008 (at node 10)
	maximum = 0.0128 (at node 1)
Accepted packet rate average = 0.0102375
	minimum = 0 (at node 0)
	maximum = 0.1638 (at node 11)
Injected flit rate average = 0.0102625
	minimum = 0.008 (at node 10)
	maximum = 0.0128 (at node 1)
Accepted flit rate average= 0.0102375
	minimum = 0 (at node 0)
	maximum = 0.1638 (at node 11)
Injected packet length average = 1
Accepted packet length average = 1
Total in-flight flits = 9 (9 measured)
latency change    = 0.000266452
throughput change = 0.0216728
Draining all recorded packets ...
Draining remaining packets ...
Time taken is 8035 cycles
Class 0:
Packet latency average = 32.4366
	minimum = 12
	maximum = 57
Network latency average = 32.4366
	minimum = 12
	maximum = 57
Slowest packet = 2706
Flit latency average = 32.4366
	minimum = 12
	maximum = 57
Slowest flit = 2706
Fragmentation average = 0
	minimum = 0
	maximum = 0
Injected packet rate average = 0.00925
	minimum = 0.002 (at node 7)
	maximum = 0.015 (at node 6)
Accepted packet rate average = 0.008875
	minimum = 0 (at node 0)
	maximum = 0.142 (at node 11)
Injected flit rate average = 0.00925
	minimum = 0.002 (at node 7)
	maximum = 0.015 (at node 6)
Accepted flit rate average= 0.008875
	minimum = 0 (at node 0)
	maximum = 0.142 (at node 11)
Injected packet length average = 1
Accepted packet length average = 1
Total in-flight flits = 6 (0 measured)
latency change    = 1
throughput change = 1
Class 0:
Packet latency average = 32.526
	minimum = 7
	maximum = 63
Network latency average = 32.526
	minimum = 7
	maximum = 63
Slowest packet = 2807
Flit latency average = 32.526
	minimum = 7
	maximum = 63
Slowest flit = 2807
Fragmentation average = 0
	minimum = 0
	maximum = 0
Injected packet rate average = 0.00928125
	minimum = 0.0065 (at node 3)
	maximum = 0.0135 (at node 6)
Accepted packet rate average = 0.00903125
	minimum = 0 (at node 0)
	maximum = 0.1445 (at node 11)
Injected flit rate average = 0.00928125
	minimum = 0.0065 (at node 3)
	maximum = 0.0135 (at node 6)
Accepted flit rate average= 0.00903125
	minimum = 0 (at node 0)
	maximum = 0.1445 (at node 11)
Injected packet length average = 1
Accepted packet length average = 1
Total in-flight flits = 8 (0 measured)
latency change    = 0.00274648
throughput change = 0.017301
Class 0:
Packet latency average = 32.8222
	minimum = 12
	maximum = 58
Network latency average = 32.8222
	minimum = 12
	maximum = 58
Slowest packet = 2976
Flit latency average = 32.8222
	minimum = 12
	maximum = 58
Slowest flit = 2976
Fragmentation average = 0
	minimum = 0
	maximum = 0
Injected packet rate average = 0.00825
	minimum = 0.005 (at node 10)
	maximum = 0.014 (at node 12)
Accepted packet rate average = 0.0084375
	minimum = 0 (at node 0)
	maximum = 0.135 (at node 11)
Injected flit rate average = 0.00825
	minimum = 0.005 (at node 10)
	maximum = 0.014 (at node 12)
Accepted flit rate average= 0.0084375
	minimum = 0 (at node 0)
	maximum = 0.135 (at node 11)
Injected packet length average = 1
Accepted packet length average = 1
Total in-flight flits = 5 (0 measured)
latency change    = 0.00902653
throughput change = 0.0703704
Warmed up ...Time used is 3000 cycles
Class 0:
Packet latency average = 33.3312
	minimum = 7
	maximum = 61
Network latency average = 33.3312
	minimum = 7
	maximum = 61
Slowest packet = 3078
Flit latency average = 33.4151
	minimum = 7
	maximum = 61
Slowest flit = 3078
Fragmentation average = 0
	minimum = 0
	maximum = 0
Injected packet rate average = 0.01
	minimum = 0.005 (at node 4)
	maximum = 0.018 (at node 12)
Accepted packet rate average = 0.0099375
	minimum = 0 (at node 0)
	maximum = 0.159 (at node 11)
Injected flit rate average = 0.01
	minimum = 0.005 (at node 4)
	maximum = 0.018 (at node 12)
Accepted flit rate average= 0.0099375
	minimum = 0 (at node 0)
	maximum = 0.159 (at node 11)
Injected packet length average = 1
Accepted packet length average = 1
Total in-flight flits = 6 (6 measured)
latency change    = 0.0152694
throughput change = 0.150943
Class 0:
Packet latency average = 33.8006
	minimum = 7
	maximum = 62
Network latency average = 33.8006
	minimum = 7
	maximum = 62
Slowest packet = 3306
Flit latency average = 33.8328
	minimum = 7
	maximum = 62
Slowest flit = 3306
Fragmentation average = 0
	minimum = 0
	maximum = 0
Injected packet rate average = 0.01075
	minimum = 0.008 (at node 4)
	maximum = 0.015 (at node 12)
Accepted packet rate average = 0.0106563
	minimum = 0 (at node 0)
	maximum = 0.1705 (at node 11)
Injected flit rate average = 0.01075
	minimum = 0.008 (at node 4)
	maximum = 0.015 (at node 12)
Accepted flit rate average= 0.0106563
	minimum = 0 (at node 0)
	maximum = 0.1705 (at node 11)
Injected packet length average = 1
Accepted packet length average = 1
Total in-flight flits = 8 (8 measured)
latency change    = 0.0138881
throughput change = 0.0674487
Class 0:
Packet latency average = 33.5219
	minimum = 7
	maximum = 62
Network latency average = 33.5219
	minimum = 7
	maximum = 62
Slowest packet = 3306
Flit latency average = 33.5464
	minimum = 7
	maximum = 62
Slowest flit = 3306
Fragmentation average = 0
	minimum = 0
	maximum = 0
Injected packet rate average = 0.0105417
	minimum = 0.00733333 (at node 9)
	maximum = 0.013 (at node 11)
Accepted packet rate average = 0.0105625
	minimum = 0 (at node 0)
	maximum = 0.169 (at node 11)
Injected flit rate average = 0.0105417
	minimum = 0.00733333 (at node 9)
	maximum = 0.013 (at node 11)
Accepted flit rate average= 0.0105625
	minimum = 0 (at node 0)
	maximum = 0.169 (at node 11)
Injected packet length average = 1
Accepted packet length average = 1
Total in-flight flits = 4 (4 measured)
latency change    = 0.00831345
throughput change = 0.00887574
Class 0:
Packet latency average = 33.2973
	minimum = 7
	maximum = 63
Network latency average = 33.2973
	minimum = 7
	maximum = 63
Slowest packet = 3561
Flit latency average = 33.3174
	minimum = 7
	maximum = 63
Slowest flit = 3561
Fragmentation average = 0
	minimum = 0
	maximum = 0
Injected packet rate average = 0.0105156
	minimum = 0.008 (at node 2)
	maximum = 0.013 (at node 7)
Accepted packet rate average = 0.0104844
	minimum = 0 (at node 0)
	maximum = 0.16775 (at node 11)
Injected flit rate average = 0.0105156
	minimum = 0.008 (at node 2)
	maximum = 0.013 (at node 7)
Accepted flit rate average= 0.0104844
	minimum = 0 (at node 0)
	maximum = 0.16775 (at node 11)
Injected packet length average = 1
Accepted packet length average = 1
Total in-flight flits = 7 (7 measured)
latency change    = 0.00674574
throughput change = 0.00745156
Class 0:
Packet latency average = 33.3176
	minimum = 7
	maximum = 66
Network latency average = 33.3176
	minimum = 7
	maximum = 66
Slowest packet = 3761
Flit latency average = 33.3342
	minimum = 7
	maximum = 66
Slowest flit = 3761
Fragmentation average = 0
	minimum = 0
	maximum = 0
Injected packet rate average = 0.0101375
	minimum = 0.0076 (at node 2)
	maximum = 0.0122 (at node 7)
Accepted packet rate average = 0.0101375
	minimum = 0 (at node 0)
	maximum = 0.1622 (at node 11)
Injected flit rate average = 0.0101375
	minimum = 0.0076 (at node 2)
	maximum = 0.0122 (at node 7)
Accepted flit rate average= 0.0101375
	minimum = 0 (at node 0)
	maximum = 0.1622 (at node 11)
Injected packet length average = 1
Accepted packet length average = 1
Total in-flight flits = 5 (5 measured)
latency change    = 0.000609905
throughput change = 0.034217
Draining all recorded packets ...
Draining remaining packets ...
Time taken is 8055 cycles
Class 0:
Packet latency average = 31.7465
	minimum = 7
	maximum = 60
Network latency average = 31.7465
	minimum = 7
	maximum = 60
Slowest packet = 3905
Flit latency average = 31.7465
	minimum = 7
	maximum = 60
Slowest flit = 3905
Fragmentation average = 0
	minimum = 0
	maximum = 0
Injected packet rate average = 0.0091875
	minimum = 0.005 (at node 5)
	maximum = 0.015 (at node 15)
Accepted packet rate average = 0.008875
	minimum = 0 (at node 0)
	maximum = 0.142 (at node 11)
Injected flit rate average = 0.0091875
	minimum = 0.005 (at node 5)
	maximum = 0.015 (at node 15)
Accepted flit rate average= 0.008875
	minimum = 0 (at node 0)
	maximum = 0.142 (at node 11)
Injected packet length average = 1
Accepted packet length average = 1
Total in-flight flits = 5 (0 measured)
latency change    = 1
throughput change = 1
Class 0:
Packet latency average = 32.1792
	minimum = 7
	maximum = 62
Network latency average = 32.1792
	minimum = 7
	maximum = 62
Slowest packet = 4119
Flit latency average = 32.1792
	minimum = 7
	maximum = 62
Slowest flit = 4119
Fragmentation average = 0
	minimum = 0
	maximum = 0
Injected packet rate average = 0.00975
	minimum = 0.004 (at node 5)
	maximum = 0.013 (at node 15)
Accepted packet rate average = 0.00959375
	minimum = 0 (at node 0)
	maximum = 0.1535 (at node 11)
Injected flit rate average = 0.00975
	minimum = 0.004 (at node 5)
	maximum = 0.013 (at node 15)
Accepted flit rate average= 0.00959375
	minimum = 0 (at node 0)
	maximum = 0.1535 (at node 11)
Injected packet length average = 1
Accepted packet length average = 1
Total in-flight flits = 5 (0 measured)
latency change    = 0.0134458
throughput change = 0.0749186
Class 0:
Packet latency average = 33.227
	minimum = 12
	maximum = 57
Network latency average = 33.227
	minimum = 12
	maximum = 57
Slowest packet = 4203
Flit latency average = 33.227
	minimum = 12
	maximum = 57
Slowest flit = 4203
Fragmentation average = 0
	minimum = 0
	maximum = 0
Injected packet rate average = 0.0099375
	minimum = 0.004 (at node 9)
	maximum = 0.019 (at node 4)
Accepted packet rate average = 0.0101875
	minimum = 0 (at node 0)
	maximum = 0.163 (at node 11)
Injected flit rate average = 0.0099375
	minimum = 0.004 (at node 9)
	maximum = 0.019 (at node 4)
Accepted flit rate average= 0.0101875
	minimum = 0 (at node 0)
	maximum = 0.163 (at node 11)
Injected packet length average = 1
Accepted packet length average = 1
Total in-flight flits = 1 (0 measured)
latency change    = 0.0315358
throughput change = 0.0582822
Warmed up ...Time used is 3000 cycles
Class 0:
Packet latency average = 32.5932
	minimum = 12
	maximum = 66
Network latency average = 32.5932
	minimum = 12
	maximum = 66
Slowest packet = 4498
Flit latency average = 32.7022
	minimum = 12
	maximum = 66
Slowest flit = 4498
Fragmentation average = 0
	minimum = 0
	maximum = 0
Injected packet rate average = 0.01125
	minimum = 0.005 (at node 7)
	maximum = 0.016 (at node 3)
Accepted packet rate average = 0.011125
	minimum = 0 (at node 0)
	maximum = 0.178 (at node 11)
Injected flit rate average = 0.01125
	minimum = 0.005 (at node 7)
	maximum = 0.016 (at node 3)
Accepted flit rate average= 0.011125
	minimum = 0 (at node 0)
	maximum = 0.178 (at node 11)
Injected packet length average = 1
Accepted packet length average = 1
Total in-flight flits = 3 (3 measured)
latency change    = 0.0194449
throughput change = 0.0842697
Class 0:
Packet latency average = 32.0522
	minimum = 7
	maximum = 66
Network latency average = 32.0522
	minimum = 7
	maximum = 66
Slowest packet = 4498
Flit latency average = 32.1098
	minimum = 7
	maximum = 66
Slowest flit = 4498
Fragmentation average = 0
	minimum = 0
	maximum = 0
Injected packet rate average = 0.0109375
	minimum = 0.0055 (at node 7)
	maximum = 0.015 (at node 10)
Accepted packet rate average = 0.0108125
	minimum = 0 (at node 0)
	maximum = 0.173 (at node 11)
Injected flit rate average = 0.0109375
	minimum = 0.0055 (at node 7)
	maximum = 0.015 (at node 10)
Accepted flit rate average= 0.0108125
	minimum = 0 (at node 0)
	maximum = 0.173 (at node 11)
Injected packet length average = 1
Accepted packet length average = 1
Total in-flight flits = 5 (5 measured)
latency change    = 0.0168802
throughput change = 0.0289017
Class 0:
Packet latency average = 32.4766
	minimum = 7
	maximum = 66
Network latency average = 32.4766
	minimum = 7
	maximum = 66
Slowest packet = 4498
Flit latency average = 32.5146
	minimum = 7
	maximum = 66
Slowest flit = 4498
Fragmentation average = 0
	minimum = 0
	maximum = 0
Injected packet rate average = 0.01075
	minimum = 0.00633333 (at node 7)
	maximum = 0.0133333 (at node 2)
Accepted packet rate average = 0.0106875
	minimum = 0 (at node 0)
	maximum = 0.171 (at node 11)
Injected flit rate average = 0.01075
	minimum = 0.00633333 (at node 7)
	maximum = 0.0133333 (at node 2)
Accepted flit rate average= 0.0106875
	minimum = 0 (at node 0)
	maximum = 0.171 (at node 11)
Injected packet length average = 1
Accepted packet length average = 1
Total in-flight flits = 4 (4 measured)
latency change    = 0.0130675
throughput change = 0.0116959
Class 0:
Packet latency average = 32.7574
	minimum = 7
	maximum = 66
Network latency average = 32.7574
	minimum = 7
	maximum = 66
Slowest packet = 4498
Flit latency average = 32.7858
	minimum = 7
	maximum = 66
Slowest flit = 4498
Fragmentation average = 0
	minimum = 0
	maximum = 0
Injected packet rate average = 0.0106563
	minimum = 0.007 (at node 13)
	maximum = 0.01275 (at node 10)
Accepted packet rate average = 0.0105781
	minimum = 0 (at node 0)
	maximum = 0.16925 (at node 11)
Injected flit rate average = 0.0106563
	minimum = 0.007 (at node 13)
	maximum = 0.01275 (at node 10)
Accepted flit rate average= 0.0105781
	minimum = 0 (at node 0)
	maximum = 0.16925 (at node 11)
Injected packet length average = 1
Accepted packet length average = 1
Total in-flight flits = 6 (6 measured)
latency change    = 0.00857315
throughput change = 0.0103397
Draining all recorded packets ...
Draining remaining packets ...
Time taken is 7063 cycles
Class 0:
Packet latency average = 31.9793
	minimum = 7
	maximum = 57
Network latency average = 31.9793
	minimum = 7
	maximum = 57
Slowest packet = 5062
Flit latency average = 31.9793
	minimum = 7
	maximum = 57
Slowest flit = 5062
Fragmentation average = 0
	minimum = 0
	maximum = 0
Injected packet rate average = 0.0093125
	minimum = 0.002 (at node 0)
	maximum = 0.016 (at node 9)
Accepted packet rate average = 0.0090625
	minimum = 0 (at node 0)
	maximum = 0.145 (at node 11)
Injected flit rate average = 0.0093125
	minimum = 0.002 (at node 0)
	maximum = 0.016 (at node 9)
Accepted flit rate average= 0.0090625
	minimum = 0 (at node 0)
	maximum = 0.145 (at node 11)
Injected packet length average = 1
Accepted packet length average = 1
Total in-flight flits = 4 (0 measured)
latency change    = 1
throughput change = 1
Class 0:
Packet latency average = 32.0485
	minimum = 7
	maximum = 62
Network latency average = 32.0485
	minimum = 7
	maximum = 62
Slowest packet = 5223
Flit latency average = 32.0485
	minimum = 7
	maximum = 62
Slowest flit = 5223
Fragmentation average = 0
	minimum = 0
	maximum = 0
Injected packet rate average = 0.0099375
	minimum = 0.003 (at node 0)
	maximum = 0.0125 (at node 10)
Accepted packet rate average = 0.00965625
	minimum = 0 (at node 0)
	maximum = 0.1545 (at node 11)
Injected flit rate average = 0.0099375
	minimum = 0.003 (at node 0)
	maximum = 0.0125 (at node 10)
Accepted flit rate average= 0.00965625
	minimum = 0 (at node 0)
	maximum = 0.1545 (at node 11)
Injected packet length average = 1
Accepted packet length average = 1
Total in-flight flits = 9 (0 measured)
latency change    = 0.00216026
throughput change = 0.0614887
Class 0:
Packet latency average = 33.0312
	minimum = 7
	maximum = 58
Network latency average = 33.0312
	minimum = 7
	maximum = 58
Slowest packet = 5492
Flit latency average = 33.0312
	minimum = 7
	maximum = 58
Slowest flit = 5492
Fragmentation average = 0
	minimum = 0
	maximum = 0
Injected packet rate average = 0.00975
	minimum = 0.003 (at node 14)
	maximum = 0.018 (at node 11)
Accepted packet rate average = 0.01
	minimum = 0 (at node 0)
	maximum = 0.16 (at node 11)
Injected flit rate average = 0.00975
	minimum = 0.003 (at node 14)
	maximum = 0.018 (at node 11)
Accepted flit rate average= 0.01
	minimum = 0 (at node 0)
	maximum = 0.16 (at node 11)
Injected packet length average = 1
Accepted packet length average = 1
Total in-flight flits = 5 (0 measured)
latency change    = 0.0297508
throughput change = 0.034375
Warmed up ...Time used is 3000 cycles
Class 0:
Packet latency average = 32.9388
	minimum = 12
	maximum = 66
Network latency average = 32.9388
	minimum = 12
	maximum = 66
Slowest packet = 5574
Flit latency average = 33.2763
	minimum = 12
	maximum = 66
Slowest flit = 5574
Fragmentation average = 0
	minimum = 0
	maximum = 0
Injected packet rate average = 0.0095625
	minimum = 0.003 (at node 3)
	maximum = 0.018 (at node 7)
Accepted packet rate average = 0.0095
	minimum = 0 (at node 0)
	maximum = 0.152 (at node 11)
Injected flit rate average = 0.0095625
	minimum = 0.003 (at node 3)
	maximum = 0.018 (at node 7)
Accepted flit rate average= 0.0095
	minimum = 0 (at node 0)
	maximum = 0.152 (at node 11)
Injected packet length average = 1
Accepted packet length average = 1
Total in-flight flits = 6 (6 measured)
latency change    = 0.00280747
throughput change = 0.0526316
Class 0:
Packet latency average = 33.3467
	minimum = 12
	maximum = 66
Network latency average = 33.3467
	minimum = 12
	maximum = 66
Slowest packet = 5574
Flit latency average = 33.5082
	minimum = 12
	maximum = 66
Slowest flit = 5574
Fragmentation average = 0
	minimum = 0
	maximum = 0
Injected packet rate average = 0.00953125
	minimum = 0.0075 (at node 12)
	maximum = 0.0145 (at node 7)
Accepted packet rate average = 0.00953125
	minimum = 0 (at node 0)
	maximum = 0.1525 (at node 11)
Injected flit rate average = 0.00953125
	minimum = 0.0075 (at node 12)
	maximum = 0.0145 (at node 7)
Accepted flit rate average= 0.00953125
	minimum = 0 (at node 0)
	maximum = 0.1525 (at node 11)
Injected packet length average = 1
Accepted packet length average = 1
Total in-flight flits = 5 (5 measured)
latency change    = 0.0122318
throughput change = 0.00327869
Class 0:
Packet latency average = 33.0942
	minimum = 12
	maximum = 66
Network latency average = 33.0942
	minimum = 12
	maximum = 66
Slowest packet = 5574
Flit latency average = 33.2062
	minimum = 12
	maximum = 66
Slowest flit = 5574
Fragmentation average = 0
	minimum = 0
	maximum = 0
Injected packet rate average = 0.00945833
	minimum = 0.00633333 (at node 12)
	maximum = 0.0143333 (at node 7)
Accepted packet rate average = 0.00939583
	minimum = 0 (at node 0)
	maximum = 0.150333 (at node 11)
Injected flit rate average = 0.00945833
	minimum = 0.00633333 (at node 12)
	maximum = 0.0143333 (at node 7)
Accepted flit rate average= 0.00939583
	minimum = 0 (at node 0)
	maximum = 0.150333 (at node 11)
Injected packet length average = 1
Accepted packet length average = 1
Total in-flight flits = 8 (8 measured)
latency change    = 0.00762963
throughput change = 0.0144124
Class 0:
Packet latency average = 32.797
	minimum = 7
	maximum = 66
Network latency average = 32.797
	minimum = 7
	maximum = 66
Slowest packet = 5574
Flit latency average = 32.8822
	minimum = 7
	maximum = 66
Slowest flit = 5574
Fragmentation average = 0
	minimum = 0
	maximum = 0
Injected packet rate average = 0.00953125
	minimum = 0.00725 (at node 6)
	maximum = 0.014 (at node 7)
Accepted packet rate average = 0.00954687
	minimum = 0 (at node 0)
	maximum = 0.15275 (at node 11)
Injected flit rate average = 0.00953125
	minimum = 0.00725 (at node 6)
	maximum = 0.014 (at node 7)
Accepted flit rate average= 0.00954687
	minimum = 0 (at node 0)
	maximum = 0.15275 (at node 11)
Injected packet length average = 1
Accepted packet length average = 1
Total in-flight flits = 4 (4 measured)
latency change    = 0.00905999
throughput change = 0.0158211
Draining all recorded packets ...
Draining remaining packets ...
Time taken is 7064 cycles
Class 0:
Packet latency average = 34.1591
	minimum = 12
	maximum = 59
Network latency average = 34.1591
	minimum = 12
	maximum = 59
Slowest packet = 6149
Flit latency average = 34.1591
	minimum = 12
	maximum = 59
Slowest flit = 6149
Fragmentation average = 0
	minimum = 0
	maximum = 0
Injected packet rate average = 0.0085
	minimum = 0.004 (at node 15)
	maximum = 0.013 (at node 0)
Accepted packet rate average = 0.00825
	minimum = 0 (at node 0)
	maximum = 0.132 (at node 11)
Injected flit rate average = 0.0085
	minimum = 0.004 (at node 15)
	maximum = 0.013 (at node 0)
Accepted flit rate average= 0.00825
	minimum = 0 (at node 0)
	maximum = 0.132 (at node 11)
Injected packet length average = 1
Accepted packet length average = 1
Total in-flight flits = 4 (0 measured)
latency change    = 1
throughput change = 1
Class 0:
Packet latency average = 33.35
	minimum = 7
	maximum = 62
Network latency average = 33.35
	minimum = 7
	maximum = 62
Slowest packet = 6327
Flit latency average = 33.35
	minimum = 7
	maximum = 62
Slowest flit = 6327
Fragmentation average = 0
	minimum = 0
	maximum = 0
Injected packet rate average = 0.00946875
	minimum = 0.0045 (at node 13)
	maximum = 0.0135 (at node 0)
Accepted packet rate average = 0.009375
	minimum = 0 (at node 0)
	maximum = 0.15 (at node 11)
Injected flit rate average = 0.00946875
	minimum = 0.0045 (at node 13)
	maximum = 0.0135 (at node 0)
Accepted flit rate average= 0.009375
	minimum = 0 (at node 0)
	maximum = 0.15 (at node 11)
Injected packet length average = 1
Accepted packet length average = 1
Total in-flight flits = 3 (0 measured)
latency change    = 0.0242606
throughput change = 0.12
Class 0:
Packet latency average = 32.473
	minimum = 7
	maximum = 57
Network latency average = 32.473
	minimum = 7
	maximum = 57
Slowest packet = 6526
Flit latency average = 32.473
	minimum = 7
	maximum = 57
Slowest flit = 6526
Fragmentation average = 0
	minimum = 0
	maximum = 0
Injected packet rate average = 0.0094375
	minimum = 0.007 (at node 2)
	maximum = 0.013 (at node 7)
Accepted packet rate average = 0.00925
	minimum = 0 (at node 0)
	maximum = 0.148 (at node 11)
Injected flit rate average = 0.0094375
	minimum = 0.007 (at node 2)
	maximum = 0.013 (at node 7)
Accepted flit rate average= 0.00925
	minimum = 0 (at node 0)
	maximum = 0.148 (at node 11)
Injected packet length average = 1
Accepted packet length average = 1
Total in-flight flits = 6 (0 measured)
latency change    = 0.0270079
throughput change = 0.0135135
Warmed up ...Time used is 3000 cycles
Class 0:
Packet latency average = 32.4013
	minimum = 7
	maximum = 62
Network latency average = 32.4013
	minimum = 7
	maximum = 62
Slowest packet = 6604
Flit latency average = 32.6582
	minimum = 7
	maximum = 62
Slowest flit = 6604
Fragmentation average = 0
	minimum = 0
	maximum = 0
Injected packet rate average = 0.00975
	minimum = 0.006 (at node 6)
	maximum = 0.014 (at node 9)
Accepted packet rate average = 0.009875
	minimum = 0 (at node 0)
	maximum = 0.158 (at node 11)
Injected flit rate average = 0.00975
	minimum = 0.006 (at node 6)
	maximum = 0.014 (at node 9)
Accepted flit rate average= 0.009875
	minimum = 0 (at node 0)
	maximum = 0.158 (at node 11)
Injected packet length average = 1
Accepted packet length average = 1
Total in-flight flits = 4 (4 measured)
latency change    = 0.00221155
throughput change = 0.0632911
Class 0:
Packet latency average = 32.1821
	minimum = 7
	maximum = 62
Network latency average = 32.1821
	minimum = 7
	maximum = 62
Slowest packet = 6604
Flit latency average = 32.3232
	minimum = 7
	maximum = 62
Slowest flit = 6604
Fragmentation average = 0
	minimum = 0
	maximum = 0
Injected packet rate average = 0.0093125
	minimum = 0.006 (at node 7)
	maximum = 0.012 (at node 14)
Accepted packet rate average = 0.00928125
	minimum = 0 (at node 0)
	maximum = 0.1485 (at node 11)
Injected flit rate average = 0.0093125
	minimum = 0.006 (at node 7)
	maximum = 0.012 (at node 14)
Accepted flit rate average= 0.00928125
	minimum = 0 (at node 0)
	maximum = 0.1485 (at node 11)
Injected packet length average = 1
Accepted packet length average = 1
Total in-flight flits = 7 (7 measured)
latency change    = 0.00681077
throughput change = 0.0639731
Class 0:
Packet latency average = 32.8405
	minimum = 7
	maximum = 63
Network latency average = 32.8405
	minimum = 7
	maximum = 63
Slowest packet = 6869
Flit latency average = 32.9213
	minimum = 7
	maximum = 63
Slowest flit = 6869
Fragmentation average = 0
	minimum = 0
	maximum = 0
Injected packet rate average = 0.00983333
	minimum = 0.008 (at node 0)
	maximum = 0.014 (at node 4)
Accepted packet rate average = 0.00979167
	minimum = 0 (at node 0)
	maximum = 0.156667 (at node 11)
Injected flit rate average = 0.00983333
	minimum = 0.008 (at node 0)
	maximum = 0.014 (at node 4)
Accepted flit rate average= 0.00979167
	minimum = 0 (at node 0)
	maximum = 0.156667 (at node 11)
Injected packet length average = 1
Accepted packet length average = 1
Total in-flight flits = 8 (8 measured)
latency change    = 0.020048
throughput change = 0.0521277
Class 0:
Packet latency average = 33.0864
	minimum = 7
	maximum = 71
Network latency average = 33.0864
	minimum = 7
	maximum = 71
Slowest packet = 7117
Flit latency average = 33.1442
	minimum = 7
	maximum = 71
Slowest flit = 7117
Fragmentation average = 0
	minimum = 0
	maximum = 0
Injected packet rate average = 0.00982813
	minimum = 0.008 (at node 12)
	maximum = 0.012 (at node 4)
Accepted packet rate average = 0.00985938
	minimum = 0 (at node 0)
	maximum = 0.15775 (at node 11)
Injected flit rate average = 0.00982813
	minimum = 0.008 (at node 12)
	maximum = 0.012 (at node 4)
Accepted flit rate average= 0.00985938
	minimum = 0 (at node 0)
	maximum = 0.15775 (at node 11)
Injected packet length average = 1
Accepted packet length average = 1
Total in-flight flits = 4 (4 measured)
latency change    = 0.00743154
throughput change = 0.00686741
Class 0:
Packet latency average = 33
	minimum = 7
	maximum = 71
Network latency average = 33
	minimum = 7
	maximum = 71
Slowest packet = 7117
Flit latency average = 33.0472
	minimum = 7
	maximum = 71
Slowest flit = 7117
Fragmentation average = 0
	minimum = 0
	maximum = 0
Injected packet rate average = 0.0097625
	minimum = 0.008 (at node 6)
	maximum = 0.012 (at node 4)
Accepted packet rate average = 0.0098
	minimum = 0 (at node 0)
	maximum = 0.1568 (at node 11)
Injected flit rate average = 0.0097625
	minimum = 0.008 (at node 6)
	maximum = 0.012 (at node 4)
Accepted flit rate average= 0.0098
	minimum = 0 (at node 0)
	maximum = 0.1568 (at node 11)
Injected packet length average = 1
Accepted packet length average = 1
Total in-flight flits = 3 (3 measured)
latency change    = 0.00261818
throughput change = 0.00605867
Class 0:
Packet latency average = 32.9582
	minimum = 7
	maximum = 71
Network latency average = 32.9582
	minimum = 7
	maximum = 71
Slowest packet = 7117
Flit latency average = 32.9969
	minimum = 7
	maximum = 71
Slowest flit = 7117
Fragmentation average = 0
	minimum = 0
	maximum = 0
Injected packet rate average = 0.0100625
	minimum = 0.0085 (at node 2)
	maximum = 0.0126667 (at node 4)
Accepted packet rate average = 0.0100417
	minimum = 0 (at node 0)
	maximum = 0.160667 (at node 11)
Injected flit rate average = 0.0100625
	minimum = 0.0085 (at node 2)
	maximum = 0.0126667 (at node 4)
Accepted flit rate average= 0.0100417
	minimum = 0 (at node 0)
	maximum = 0.160667 (at node 11)
Injected packet length average = 1
Accepted packet length average = 1
Total in-flight flits = 8 (8 measured)
latency change    = 0.00126687
throughput change = 0.0240664
Draining all recorded packets ...
Draining remaining packets ...
Time taken is 9060 cycles
Class 0:
Packet latency average = 32.9822
	minimum = 12
	maximum = 57
Network latency average = 32.9822
	minimum = 12
	maximum = 57
Slowest packet = 7600
Flit latency average = 32.9822
	minimum = 12
	maximum = 57
Slowest flit = 7600
Fragmentation average = 0
	minimum = 0
	maximum = 0
Injected packet rate average = 0.0111875
	minimum = 0.006 (at node 13)
	maximum = 0.014 (at node 4)
Accepted packet rate average = 0.0105625
	minimum = 0 (at node 0)
	maximum = 0.169 (at node 11)
Injected flit rate average = 0.0111875
	minimum = 0.006 (at node 13)
	maximum = 0.014 (at node 4)
Accepted flit rate average= 0.0105625
	minimum = 0 (at node 0)
	maximum = 0.169 (at node 11)
Injected packet length average = 1
Accepted packet length average = 1
Total in-flight flits = 10 (0 measured)
latency change    = 1
throughput change = 1
Class 0:
Packet latency average = 33.3542
	minimum = 12
	maximum = 67
Network latency average = 33.3542
	minimum = 12
	maximum = 67
Slowest packet = 7842
Flit latency average = 33.3542
	minimum = 12
	maximum = 67
Slowest flit = 7842
Fragmentation average = 0
	minimum = 0
	maximum = 0
Injected packet rate average = 0.0107188
	minimum = 0.006 (at node 5)
	maximum = 0.014 (at node 15)
Accepted packet rate average = 0.0105
	minimum = 0 (at node 0)
	maximum = 0.168 (at node 11)
Injected flit rate average = 0.0107188
	minimum = 0.006 (at node 5)
	maximum = 0.014 (at node 15)
Accepted flit rate average= 0.0105
	minimum = 0 (at node 0)
	maximum = 0.168 (at node 11)
Injected packet length average = 1
Accepted packet length average = 1
Total in-flight flits = 7 (0 measured)
latency change    = 0.0111506
throughput change = 0.00595238
Class 0:
Packet latency average = 32.898
	minimum = 12
	maximum = 58
Network latency average = 32.898
	minimum = 12
	maximum = 58
Slowest packet = 7955
Flit latency average = 32.898
	minimum = 12
	maximum = 58
Slowest flit = 7955
Fragmentation average = 0
	minimum = 0
	maximum = 0
Injected packet rate average = 0.008875
	minimum = 0.005 (at node 9)
	maximum = 0.013 (at node 5)
Accepted packet rate average = 0.0091875
	minimum = 0 (at node 0)
	maximum = 0.147 (at node 11)
Injected flit rate average = 0.008875
	minimum = 0.005 (at node 9)
	maximum = 0.013 (at node 5)
Accepted flit rate average= 0.0091875
	minimum = 0 (at node 0)
	maximum = 0.147 (at node 11)
Injected packet length average = 1
Accepted packet length average = 1
Total in-flight flits = 2 (0 measured)
latency change    = 0.0138673
throughput change = 0.142857
Warmed up ...Time used is 3000 cycles
Class 0:
Packet latency average = 31.5671
	minimum = 12
	maximum = 57
Network latency average = 31.5671
	minimum = 12
	maximum = 57
Slowest packet = 8078
Flit latency average = 31.6627
	minimum = 12
	maximum = 57
Slowest flit = 8078
Fragmentation average = 0
	minimum = 0
	maximum = 0
Injected packet rate average = 0.0105
	minimum = 0.007 (at node 7)
	maximum = 0.014 (at node 1)
Accepted packet rate average = 0.010375
	minimum = 0 (at node 0)
	maximum = 0.166 (at node 11)
Injected flit rate average = 0.0105
	minimum = 0.007 (at node 7)
	maximum = 0.014 (at node 1)
Accepted flit rate average= 0.010375
	minimum = 0 (at node 0)
	maximum = 0.166 (at node 11)
Injected packet length average = 1
Accepted packet length average = 1
Total in-flight flits = 4 (4 measured)
latency change    = 0.0421606
throughput change = 0.114458
Class 0:
Packet latency average = 31.9009
	minimum = 7
	maximum = 58
Network latency average = 31.9009
	minimum = 7
	maximum = 58
Slowest packet = 8326
Flit latency average = 31.9463
	minimum = 7
	maximum = 58
Slowest flit = 8326
Fragmentation average = 0
	minimum = 0
	maximum = 0
Injected packet rate average = 0.0105
	minimum = 0.0065 (at node 8)
	maximum = 0.015 (at node 2)
Accepted packet rate average = 0.0104688
	minimum = 0 (at node 0)
	maximum = 0.1675 (at node 11)
Injected flit rate average = 0.0105
	minimum = 0.0065 (at node 8)
	maximum = 0.015 (at node 2)
Accepted flit rate average= 0.0104688
	minimum = 0 (at node 0)
	maximum = 0.1675 (at node 11)
Injected packet length average = 1
Accepted packet length average = 1
Total in-flight flits = 3 (3 measured)
latency change    = 0.0104645
throughput change = 0.00895522
Class 0:
Packet latency average = 31.9371
	minimum = 7
	maximum = 62
Network latency average = 31.9371
	minimum = 7
	maximum = 62
Slowest packet = 8431
Flit latency average = 31.9677
	minimum = 7
	maximum = 62
Slowest flit = 8431
Fragmentation average = 0
	minimum = 0
	maximum = 0
Injected packet rate average = 0.0104375
	minimum = 0.008 (at node 14)
	maximum = 0.0143333 (at node 2)
Accepted packet rate average = 0.0103125
	minimum = 0 (at node 0)
	maximum = 0.165 (at node 11)
Injected flit rate average = 0.0104375
	minimum = 0.008 (at node 14)
	maximum = 0.0143333 (at node 2)
Accepted flit rate average= 0.0103125
	minimum = 0 (at node 0)
	maximum = 0.165 (at node 11)
Injected packet length average = 1
Accepted packet length average = 1
Total in-flight flits = 8 (8 measured)
latency change    = 0.00113407
throughput change = 0.0151515
Class 0:
Packet latency average = 32.2578
	minimum = 7
	maximum = 62
Network latency average = 32.2578
	minimum = 7
	maximum = 62
Slowest packet = 8431
Flit latency average = 32.2804
	minimum = 7
	maximum = 62
Slowest flit = 8431
Fragmentation average = 0
	minimum = 0
	maximum = 0
Injected packet rate average = 0.0100625
	minimum = 0.00775 (at node 14)
	maximum = 0.0165 (at node 2)
Accepted packet rate average = 0.0100313
	minimum = 0 (at node 0)
	maximum = 0.1605 (at node 11)
Injected flit rate average = 0.0100625
	minimum = 0.00775 (at node 14)
	maximum = 0.0165 (at node 2)
Accepted flit rate average= 0.0100313
	minimum = 0 (at node 0)
	maximum = 0.1605 (at node 11)
Injected packet length average = 1
Accepted packet length average = 1
Total in-flight flits = 4 (4 measured)
latency change    = 0.00994156
throughput change = 0.0280374
Draining all recorded packets ...
Draining remaining packets ...
Time taken is 7064 cycles
Class 0:
Packet latency average = 32.3312
	minimum = 8
	maximum = 52
Network latency average = 32.3312
	minimum = 8
	maximum = 52
Slowest packet = 8700
Flit latency average = 32.3312
	minimum = 8
	maximum = 52
Slowest flit = 8700
Fragmentation average = 0
	minimum = 0
	maximum = 0
Injected packet rate average = 0.0100625
	minimum = 0.004 (at node 7)
	maximum = 0.012 (at node 3)
Accepted packet rate average = 0.0098125
	minimum = 0 (at node 0)
	maximum = 0.157 (at node 11)
Injected flit rate average = 0.0100625
	minimum = 0.004 (at node 7)
	maximum = 0.012 (at node 3)
Accepted flit rate average= 0.0098125
	minimum = 0 (at node 0)
	maximum = 0.157 (at node 11)
Injected packet length average = 1
Accepted packet length average = 1
Total in-flight flits = 4 (0 measured)
latency change    = 1
throughput change = 1
Class 0:
Packet latency average = 32.2469
	minimum = 7
	maximum = 77
Network latency average = 32.2469
	minimum = 7
	maximum = 77
Slowest packet = 8863
Flit latency average = 32.2469
	minimum = 7
	maximum = 77
Slowest flit = 8863
Fragmentation average = 0
	minimum = 0
	maximum = 0
Injected packet rate average = 0.0104063
	minimum = 0.004 (at node 7)
	maximum = 0.013 (at node 3)
Accepted packet rate average = 0.010125
	minimum = 0 (at node 0)
	maximum = 0.162 (at node 11)
Injected flit rate average = 0.0104063
	minimum = 0.004 (at node 7)
	maximum = 0.013 (at node 3)
Accepted flit rate average= 0.010125
	minimum = 0 (at node 0)
	maximum = 0.162 (at node 11)
Injected packet length average = 1
Accepted packet length average = 1
Total in-flight flits = 9 (0 measured)
latency change    = 0.0026141
throughput change = 0.0308642
Class 0:
Packet latency average = 33.4244
	minimum = 12
	maximum = 62
Network latency average = 33.4244
	minimum = 12
	maximum = 62
Slowest packet = 9145
Flit latency average = 33.4244
	minimum = 12
	maximum = 62
Slowest flit = 9145
Fragmentation average = 0
	minimum = 0
	maximum = 0
Injected packet rate average = 0.01025
	minimum = 0 (at node 13)
	maximum = 0.018 (at node 9)
Accepted packet rate average = 0.01075
	minimum = 0 (at node 0)
	maximum = 0.172 (at node 11)
Injected flit rate average = 0.01025
	minimum = 0 (at node 13)
	maximum = 0.018 (at node 9)
Accepted flit rate average= 0.01075
	minimum = 0 (at node 0)
	maximum = 0.172 (at node 11)
Injected packet length average = 1
Accepted packet length average = 1
Total in-flight flits = 1 (0 measured)
latency change    = 0.0352289
throughput change = 0.0581395
Warmed up ...Time used is 3000 cycles
Class 0:
Packet latency average = 31.8148
	minimum = 12
	maximum = 72
Network latency average = 31.8148
	minimum = 12
	maximum = 72
Slowest packet = 9247
Flit latency average = 31.7853
	minimum = 12
	maximum = 72
Slowest flit = 9247
Fragmentation average = 0
	minimum = 0
	maximum = 0
Injected packet rate average = 0.0104375
	minimum = 0.004 (at node 0)
	maximum = 0.018 (at node 8)
Accepted packet rate average = 0.0101875
	minimum = 0 (at node 0)
	maximum = 0.163 (at node 11)
Injected flit rate average = 0.0104375
	minimum = 0.004 (at node 0)
	maximum = 0.018 (at node 8)
Accepted flit rate average= 0.0101875
	minimum = 0 (at node 0)
	maximum = 0.163 (at node 11)
Injected packet length average = 1
Accepted packet length average = 1
Total in-flight flits = 5 (5 measured)
latency change    = 0.0505929
throughput change = 0.0552147
Class 0:
Packet latency average = 31.6382
	minimum = 12
	maximum = 72
Network latency average = 31.6382
	minimum = 12
	maximum = 72
Slowest packet = 9247
Flit latency average = 31.6246
	minimum = 12
	maximum = 72
Slowest flit = 9247
Fragmentation average = 0
	minimum = 0
	maximum = 0
Injected packet rate average = 0.0108437
	minimum = 0.006 (at node 0)
	maximum = 0.018 (at node 8)
Accepted packet rate average = 0.0106563
	minimum = 0 (at node 0)
	maximum = 0.1705 (at node 11)
Injected flit rate average = 0.0108437
	minimum = 0.006 (at node 0)
	maximum = 0.018 (at node 8)
Accepted flit rate average= 0.0106563
	minimum = 0 (at node 0)
	maximum = 0.1705 (at node 11)
Injected packet length average = 1
Accepted packet length average = 1
Total in-flight flits = 7 (7 measured)
latency change    = 0.00558121
throughput change = 0.0439883
Class 0:
Packet latency average = 31.9321
	minimum = 12
	maximum = 72
Network latency average = 31.9321
	minimum = 12
	maximum = 72
Slowest packet = 9247
Flit latency average = 31.9223
	minimum = 12
	maximum = 72
Slowest flit = 9247
Fragmentation average = 0
	minimum = 0
	maximum = 0
Injected packet rate average = 0.0104792
	minimum = 0.007 (at node 0)
	maximum = 0.0156667 (at node 8)
Accepted packet rate average = 0.0104583
	minimum = 0 (at node 0)
	maximum = 0.167333 (at node 11)
Injected flit rate average = 0.0104792
	minimum = 0.007 (at node 0)
	maximum = 0.0156667 (at node 8)
Accepted flit rate average= 0.0104583
	minimum = 0 (at node 0)
	maximum = 0.167333 (at node 11)
Injected packet length average = 1
Accepted packet length average = 1
Total in-flight flits = 2 (2 measured)
latency change    = 0.00920391
throughput change = 0.0189243
Class 0:
Packet latency average = 31.7542
	minimum = 7
	maximum = 72
Network latency average = 31.7542
	minimum = 7
	maximum = 72
Slowest packet = 9247
Flit latency average = 31.747
	minimum = 7
	maximum = 72
Slowest flit = 9247
Fragmentation average = 0
	minimum = 0
	maximum = 0
Injected packet rate average = 0.0103281
	minimum = 0.00625 (at node 12)
	maximum = 0.0145 (at node 13)
Accepted packet rate average = 0.01025
	minimum = 0 (at node 0)
	maximum = 0.164 (at node 11)
Injected flit rate average = 0.0103281
	minimum = 0.00625 (at node 12)
	maximum = 0.0145 (at node 13)
Accepted flit rate average= 0.01025
	minimum = 0 (at node 0)
	maximum = 0.164 (at node 11)
Injected packet length average = 1
Accepted packet length average = 1
Total in-flight flits = 6 (6 measured)
latency change    = 0.00560358
throughput change = 0.0203252
Draining all recorded packets ...
Draining remaining packets ...
Time taken is 7074 cycles
Class 0:
Packet latency average = 31.86
	minimum = 12
	maximum = 52
Network latency average = 31.86
	minimum = 12
	maximum = 52
Slowest packet = 9846
Flit latency average = 31.86
	minimum = 12
	maximum = 52
Slowest flit = 9846
Fragmentation average = 0
	minimum = 0
	maximum = 0
Injected packet rate average = 0.00975
	minimum = 0.007 (at node 6)
	maximum = 0.018 (at node 4)
Accepted packet rate average = 0.009375
	minimum = 0 (at node 0)
	maximum = 0.15 (at node 11)
Injected flit rate average = 0.00975
	minimum = 0.007 (at node 6)
	maximum = 0.018 (at node 4)
Accepted flit rate average= 0.009375
	minimum = 0 (at node 0)
	maximum = 0.15 (at node 11)
Injected packet length average = 1
Accepted packet length average = 1
Total in-flight flits = 6 (0 measured)
latency change    = 1
throughput change = 1
Class 0:
Packet latency average = 32.7466
	minimum = 12
	maximum = 62
Network latency average = 32.7466
	minimum = 12
	maximum = 62
Slowest packet = 10135
Flit latency average = 32.7466
	minimum = 12
	maximum = 62
Slowest flit = 10135
Fragmentation average = 0
	minimum = 0
	maximum = 0
Injected packet rate average = 0.009375
	minimum = 0.006 (at node 12)
	maximum = 0.014 (at node 15)
Accepted packet rate average = 0.00925
	minimum = 0 (at node 0)
	maximum = 0.148 (at node 11)
Injected flit rate average = 0.009375
	minimum = 0.006 (at node 12)
	maximum = 0.014 (at node 15)
Accepted flit rate average= 0.00925
	minimum = 0 (at node 0)
	maximum = 0.148 (at node 11)
Injected packet length average = 1
Accepted packet length average = 1
Total in-flight flits = 4 (0 measured)
latency change    = 0.0270752
throughput change = 0.0135135
Class 0:
Packet latency average = 32.0061
	minimum = 12
	maximum = 57
Network latency average = 32.0061
	minimum = 12
	maximum = 57
Slowest packet = 10151
Flit latency average = 32.0061
	minimum = 12
	maximum = 57
Slowest flit = 10151
Fragmentation average = 0
	minimum = 0
	maximum = 0
Injected packet rate average = 0.01025
	minimum = 0.004 (at node 12)
	maximum = 0.018 (at node 6)
Accepted packet rate average = 0.0103125
	minimum = 0 (at node 0)
	maximum = 0.165 (at node 11)
Injected flit rate average = 0.01025
	minimum = 0.004 (at node 12)
	maximum = 0.018 (at node 6)
Accepted flit rate average= 0.0103125
	minimum = 0 (at node 0)
	maximum = 0.165 (at node 11)
Injected packet length average = 1
Accepted packet length average = 1
Total in-flight flits = 3 (0 measured)
latency change    = 0.0231381
throughput change = 0.10303
Warmed up ...Time used is 3000 cycles
Class 0:
Packet latency average = 31.981
	minimum = 7
	maximum = 57
Network latency average = 31.981
	minimum = 7
	maximum = 57
Slowest packet = 10396
Flit latency average = 32.1056
	minimum = 7
	maximum = 57
Slowest flit = 10396
Fragmentation average = 0
	minimum = 0
	maximum = 0
Injected packet rate average = 0.010375
	minimum = 0.004 (at node 13)
	maximum = 0.021 (at node 11)
Accepted packet rate average = 0.0100625
	minimum = 0 (at node 0)
	maximum = 0.161 (at node 11)
Injected flit rate average = 0.010375
	minimum = 0.004 (at node 13)
	maximum = 0.021 (at node 11)
Accepted flit rate average= 0.0100625
	minimum = 0 (at node 0)
	maximum = 0.161 (at node 11)
Injected packet length average = 1
Accepted packet length average = 1
Total in-flight flits = 8 (8 measured)
latency change    = 0.000783213
throughput change = 0.0248447
Class 0:
Packet latency average = 31.9316
	minimum = 7
	maximum = 62
Network latency average = 31.9316
	minimum = 7
	maximum = 62
Slowest packet = 10564
Flit latency average = 31.9968
	minimum = 7
	maximum = 62
Slowest flit = 10564
Fragmentation average = 0
	minimum = 0
	maximum = 0
Injected packet rate average = 0.00984375
	minimum = 0.0065 (at node 3)
	maximum = 0.015 (at node 11)
Accepted packet rate average = 0.0096875
	minimum = 0 (at node 0)
	maximum = 0.155 (at node 11)
Injected flit rate average = 0.00984375
	minimum = 0.0065 (at node 3)
	maximum = 0.015 (at node 11)
Accepted flit rate average= 0.0096875
	minimum = 0 (at node 0)
	maximum = 0.155 (at node 11)
Injected packet length average = 1
Accepted packet length average = 1
Total in-flight flits = 8 (8 measured)
latency change    = 0.00154758
throughput change = 0.0387097
Class 0:
Packet latency average = 32.8592
	minimum = 7
	maximum = 77
Network latency average = 32.8592
	minimum = 7
	maximum = 77
Slowest packet = 10743
Flit latency average = 32.894
	minimum = 7
	maximum = 77
Slowest flit = 10743
Fragmentation average = 0
	minimum = 0
	maximum = 0
Injected packet rate average = 0.0104792
	minimum = 0.00733333 (at node 3)
	maximum = 0.016 (at node 11)
Accepted packet rate average = 0.0104167
	minimum = 0 (at node 0)
	maximum = 0.166667 (at node 11)
Injected flit rate average = 0.0104792
	minimum = 0.00733333 (at node 3)
	maximum = 0.016 (at node 11)
Accepted flit rate average= 0.0104167
	minimum = 0 (at node 0)
	maximum = 0.166667 (at node 11)
Injected packet length average = 1
Accepted packet length average = 1
Total in-flight flits = 6 (6 measured)
latency change    = 0.0282283
throughput change = 0.07
Class 0:
Packet latency average = 32.8652
	minimum = 7
	maximum = 77
Network latency average = 32.8652
	minimum = 7
	maximum = 77
Slowest packet = 10743
Flit latency average = 32.8914
	minimum = 7
	maximum = 77
Slowest flit = 10743
Fragmentation average = 0
	minimum = 0
	maximum = 0
Injected packet rate average = 0.010375
	minimum = 0.0075 (at node 3)
	maximum = 0.015 (at node 11)
Accepted packet rate average = 0.0103594
	minimum = 0 (at node 0)
	maximum = 0.16575 (at node 11)
Injected flit rate average = 0.010375
	minimum = 0.0075 (at node 3)
	maximum = 0.015 (at node 11)
Accepted flit rate average= 0.0103594
	minimum = 0 (at node 0)
	maximum = 0.16575 (at node 11)
Injected packet length average = 1
Accepted packet length average = 1
Total in-flight flits = 4 (4 measured)
latency change    = 0.00018246
throughput change = 0.00553042
Class 0:
Packet latency average = 32.9639
	minimum = 7
	maximum = 77
Network latency average = 32.9639
	minimum = 7
	maximum = 77
Slowest packet = 10743
Flit latency average = 32.9844
	minimum = 7
	maximum = 77
Slowest flit = 10743
Fragmentation average = 0
	minimum = 0
	maximum = 0
Injected packet rate average = 0.01045
	minimum = 0.0072 (at node 3)
	maximum = 0.0148 (at node 11)
Accepted packet rate average = 0.010425
	minimum = 0 (at node 0)
	maximum = 0.1668 (at node 11)
Injected flit rate average = 0.01045
	minimum = 0.0072 (at node 3)
	maximum = 0.0148 (at node 11)
Accepted flit rate average= 0.010425
	minimum = 0 (at node 0)
	maximum = 0.1668 (at node 11)
Injected packet length average = 1
Accepted packet length average = 1
Total in-flight flits = 5 (5 measured)
latency change    = 0.00299562
throughput change = 0.00629496
Class 0:
Packet latency average = 33.0607
	minimum = 7
	maximum = 81
Network latency average = 33.0607
	minimum = 7
	maximum = 81
Slowest packet = 11153
Flit latency average = 33.0777
	minimum = 7
	maximum = 81
Slowest flit = 11153
Fragmentation average = 0
	minimum = 0
	maximum = 0
Injected packet rate average = 0.0103229
	minimum = 0.00716667 (at node 3)
	maximum = 0.0131667 (at node 11)
Accepted packet rate average = 0.0103229
	minimum = 0 (at node 0)
	maximum = 0.165167 (at node 11)
Injected flit rate average = 0.0103229
	minimum = 0.00716667 (at node 3)
	maximum = 0.0131667 (at node 11)
Accepted flit rate average= 0.0103229
	minimum = 0 (at node 0)
	maximum = 0.165167 (at node 11)
Injected packet length average = 1
Accepted packet length average = 1
Total in-flight flits = 3 (3 measured)
latency change    = 0.00292885
throughput change = 0.009889
Draining all recorded packets ...
Draining remaining packets ...
Time taken is 9060 cycles
Class 0:
Packet latency average = 33.5179
	minimum = 7
	maximum = 57
Network latency average = 33.5179
	minimum = 7
	maximum = 57
Slowest packet = 11306
Flit latency average = 33.5179
	minimum = 7
	maximum = 57
Slowest flit = 11306
Fragmentation average = 0
	minimum = 0
	maximum = 0
Injected packet rate average = 0.0105625
	minimum = 0.002 (at node 12)
	maximum = 0.016 (at node 4)
Accepted packet rate average = 0.0105
	minimum = 0 (at node 0)
	maximum = 0.168 (at node 11)
Injected flit rate average = 0.0105625
	minimum = 0.002 (at node 12)
	maximum = 0.016 (at node 4)
Accepted flit rate average= 0.0105
	minimum = 0 (at node 0)
	maximum = 0.168 (at node 11)
Injected packet length average = 1
Accepted packet length average = 1
Total in-flight flits = 1 (0 measured)
latency change    = 1
throughput change = 1
Class 0:
Packet latency average = 33.6226
	minimum = 7
	maximum = 68
Network latency average = 33.6226
	minimum = 7
	maximum = 68
Slowest packet = 11604
Flit latency average = 33.6226
	minimum = 7
	maximum = 68
Slowest flit = 11604
Fragmentation average = 0
	minimum = 0
	maximum = 0
Injected packet rate average = 0.0100938
	minimum = 0.005 (at node 12)
	maximum = 0.014 (at node 7)
Accepted packet rate average = 0.0099375
	minimum = 0 (at node 0)
	maximum = 0.159 (at node 11)
Injected flit rate average = 0.0100938
	minimum = 0.005 (at node 12)
	maximum = 0.014 (at node 7)
Accepted flit rate average= 0.0099375
	minimum = 0 (at node 0)
	maximum = 0.159 (at node 11)
Injected packet length average = 1
Accepted packet length average = 1
Total in-flight flits = 5 (0 measured)
latency change    = 0.00311648
throughput change = 0.0566038
Class 0:
Packet latency average = 32.8868
	minimum = 7
	maximum = 57
Network latency average = 32.8868
	minimum = 7
	maximum = 57
Slowest packet = 11663
Flit latency average = 32.8868
	minimum = 7
	maximum = 57
Slowest flit = 11663
Fragmentation average = 0
	minimum = 0
	maximum = 0
Injected packet rate average = 0.009875
	minimum = 0.006 (at node 5)
	maximum = 0.016 (at node 13)
Accepted packet rate average = 0.0099375
	minimum = 0 (at node 0)
	maximum = 0.159 (at node 11)
Injected flit rate average = 0.009875
	minimum = 0.006 (at node 5)
	maximum = 0.016 (at node 13)
Accepted flit rate average= 0.0099375
	minimum = 0 (at node 0)
	maximum = 0.159 (at node 11)
Injected packet length average = 1
Accepted packet length average = 1
Total in-flight flits = 4 (0 measured)
latency change    = 0.0223752
throughput change = 0
Warmed up ...Time used is 3000 cycles
Class 0:
Packet latency average = 32.2059
	minimum = 12
	maximum = 64
Network latency average = 32.2059
	minimum = 12
	maximum = 64
Slowest packet = 11839
Flit latency average = 32.431
	minimum = 12
	maximum = 64
Slowest flit = 11839
Fragmentation average = 0
	minimum = 0
	maximum = 0
Injected packet rate average = 0.010875
	minimum = 0.005 (at node 5)
	maximum = 0.018 (at node 0)
Accepted packet rate average = 0.010875
	minimum = 0 (at node 0)
	maximum = 0.174 (at node 11)
Injected flit rate average = 0.010875
	minimum = 0.005 (at node 5)
	maximum = 0.018 (at node 0)
Accepted flit rate average= 0.010875
	minimum = 0 (at node 0)
	maximum = 0.174 (at node 11)
Injected packet length average = 1
Accepted packet length average = 1
Total in-flight flits = 4 (4 measured)
latency change    = 0.0211424
throughput change = 0.0862069
Class 0:
Packet latency average = 32.6
	minimum = 7
	maximum = 64
Network latency average = 32.6
	minimum = 7
	maximum = 64
Slowest packet = 11839
Flit latency average = 32.716
	minimum = 7
	maximum = 64
Slowest flit = 11839
Fragmentation average = 0
	minimum = 0
	maximum = 0
Injected packet rate average = 0.0101875
	minimum = 0.007 (at node 5)
	maximum = 0.017 (at node 0)
Accepted packet rate average = 0.010125
	minimum = 0 (at node 0)
	maximum = 0.162 (at node 11)
Injected flit rate average = 0.0101875
	minimum = 0.007 (at node 5)
	maximum = 0.017 (at node 0)
Accepted flit rate average= 0.010125
	minimum = 0 (at node 0)
	maximum = 0.162 (at node 11)
Injected packet length average = 1
Accepted packet length average = 1
Total in-flight flits = 6 (6 measured)
latency change    = 0.0120895
throughput change = 0.0740741
Class 0:
Packet latency average = 32.5449
	minimum = 7
	maximum = 64
Network latency average = 32.5449
	minimum = 7
	maximum = 64
Slowest packet = 11839
Flit latency average = 32.6232
	minimum = 7
	maximum = 64
Slowest flit = 11839
Fragmentation average = 0
	minimum = 0
	maximum = 0
Injected packet rate average = 0.0100625
	minimum = 0.008 (at node 11)
	maximum = 0.0146667 (at node 0)
Accepted packet rate average = 0.0100625
	minimum = 0 (at node 0)
	maximum = 0.161 (at node 11)
Injected flit rate average = 0.0100625
	minimum = 0.008 (at node 11)
	maximum = 0.0146667 (at node 0)
Accepted flit rate average= 0.0100625
	minimum = 0 (at node 0)
	maximum = 0.161 (at node 11)
Injected packet length average = 1
Accepted packet length average = 1
Total in-flight flits = 4 (4 measured)
latency change    = 0.0016935
throughput change = 0.00621118
Class 0:
Packet latency average = 32.5978
	minimum = 7
	maximum = 74
Network latency average = 32.5978
	minimum = 7
	maximum = 74
Slowest packet = 12302
Flit latency average = 32.6563
	minimum = 7
	maximum = 74
Slowest flit = 12302
Fragmentation average = 0
	minimum = 0
	maximum = 0
Injected packet rate average = 0.0100156
	minimum = 0.00825 (at node 11)
	maximum = 0.01325 (at node 0)
Accepted packet rate average = 0.0100469
	minimum = 0 (at node 0)
	maximum = 0.16075 (at node 11)
Injected flit rate average = 0.0100156
	minimum = 0.00825 (at node 11)
	maximum = 0.01325 (at node 0)
Accepted flit rate average= 0.0100469
	minimum = 0 (at node 0)
	maximum = 0.16075 (at node 11)
Injected packet length average = 1
Accepted packet length average = 1
Total in-flight flits = 2 (2 measured)
latency change    = 0.00162354
throughput change = 0.00155521
Class 0:
Packet latency average = 32.5088
	minimum = 7
	maximum = 74
Network latency average = 32.5088
	minimum = 7
	maximum = 74
Slowest packet = 12302
Flit latency average = 32.5564
	minimum = 7
	maximum = 74
Slowest flit = 12302
Fragmentation average = 0
	minimum = 0
	maximum = 0
Injected packet rate average = 0.0099875
	minimum = 0.0082 (at node 13)
	maximum = 0.0124 (at node 0)
Accepted packet rate average = 0.009975
	minimum = 0 (at node 0)
	maximum = 0.1596 (at node 11)
Injected flit rate average = 0.0099875
	minimum = 0.0082 (at node 13)
	maximum = 0.0124 (at node 0)
Accepted flit rate average= 0.009975
	minimum = 0 (at node 0)
	maximum = 0.1596 (at node 11)
Injected packet length average = 1
Accepted packet length average = 1
Total in-flight flits = 5 (5 measured)
latency change    = 0.0027375
throughput change = 0.00720551
Draining all recorded packets ...
Draining remaining packets ...
Time taken is 8018 cycles
Class 0:
Packet latency average = 34.8133
	minimum = 7
	maximum = 68
Network latency average = 34.8133
	minimum = 7
	maximum = 68
Slowest packet = 12604
Flit latency average = 34.8133
	minimum = 7
	maximum = 68
Slowest flit = 12604
Fragmentation average = 0
	minimum = 0
	maximum = 0
Injected packet rate average = 0.010875
	minimum = 0.005 (at node 3)
	maximum = 0.019 (at node 8)
Accepted packet rate average = 0.010375
	minimum = 0 (at node 0)
	maximum = 0.166 (at node 11)
Injected flit rate average = 0.010875
	minimum = 0.005 (at node 3)
	maximum = 0.019 (at node 8)
Accepted flit rate average= 0.010375
	minimum = 0 (at node 0)
	maximum = 0.166 (at node 11)
Injected packet length average = 1
Accepted packet length average = 1
Total in-flight flits = 8 (0 measured)
latency change    = 1
throughput change = 1
Class 0:
Packet latency average = 33.4228
	minimum = 7
	maximum = 68
Network latency average = 33.4228
	minimum = 7
	maximum = 68
Slowest packet = 12604
Flit latency average = 33.4228
	minimum = 7
	maximum = 68
Slowest flit = 12604
Fragmentation average = 0
	minimum = 0
	maximum = 0
Injected packet rate average = 0.0103125
	minimum = 0.006 (at node 13)
	maximum = 0.014 (at node 1)
Accepted packet rate average = 0.010125
	minimum = 0 (at node 0)
	maximum = 0.162 (at node 11)
Injected flit rate average = 0.0103125
	minimum = 0.006 (at node 13)
	maximum = 0.014 (at node 1)
Accepted flit rate average= 0.010125
	minimum = 0 (at node 0)
	maximum = 0.162 (at node 11)
Injected packet length average = 1
Accepted packet length average = 1
Total in-flight flits = 6 (0 measured)
latency change    = 0.0416007
throughput change = 0.0246914
Class 0:
Packet latency average = 33.4524
	minimum = 12
	maximum = 67
Network latency average = 33.4524
	minimum = 12
	maximum = 67
Slowest packet = 12911
Flit latency average = 33.4524
	minimum = 12
	maximum = 67
Slowest flit = 12911
Fragmentation average = 0
	minimum = 0
	maximum = 0
Injected packet rate average = 0.0105625
	minimum = 0.004 (at node 6)
	maximum = 0.016 (at node 0)
Accepted packet rate average = 0.0105
	minimum = 0 (at node 0)
	maximum = 0.168 (at node 11)
Injected flit rate average = 0.0105625
	minimum = 0.004 (at node 6)
	maximum = 0.016 (at node 0)
Accepted flit rate average= 0.0105
	minimum = 0 (at node 0)
	maximum = 0.168 (at node 11)
Injected packet length average = 1
Accepted packet length average = 1
Total in-flight flits = 7 (0 measured)
latency change    = 0.000883089
throughput change = 0.0357143
Warmed up ...Time used is 3000 cycles
Class 0:
Packet latency average = 31.1232
	minimum = 12
	maximum = 66
Network latency average = 31.1232
	minimum = 12
	maximum = 66
Slowest packet = 13116
Flit latency average = 31.4966
	minimum = 12
	maximum = 66
Slowest flit = 13116
Fragmentation average = 0
	minimum = 0
	maximum = 0
Injected packet rate average = 0.0089375
	minimum = 0.004 (at node 13)
	maximum = 0.015 (at node 1)
Accepted packet rate average = 0.0090625
	minimum = 0 (at node 0)
	maximum = 0.145 (at node 11)
Injected flit rate average = 0.0089375
	minimum = 0.004 (at node 13)
	maximum = 0.015 (at node 1)
Accepted flit rate average= 0.0090625
	minimum = 0 (at node 0)
	maximum = 0.145 (at node 11)
Injected packet length average = 1
Accepted packet length average = 1
Total in-flight flits = 5 (5 measured)
latency change    = 0.0748379
throughput change = 0.158621
Class 0:
Packet latency average = 31.5654
	minimum = 7
	maximum = 66
Network latency average = 31.5654
	minimum = 7
	maximum = 66
Slowest packet = 13116
Flit latency average = 31.7284
	minimum = 7
	maximum = 66
Slowest flit = 13116
Fragmentation average = 0
	minimum = 0
	maximum = 0
Injected packet rate average = 0.00975
	minimum = 0.0065 (at node 2)
	maximum = 0.016 (at node 5)
Accepted packet rate average = 0.00978125
	minimum = 0 (at node 0)
	maximum = 0.1565 (at node 11)
Injected flit rate average = 0.00975
	minimum = 0.0065 (at node 2)
	maximum = 0.016 (at node 5)
Accepted flit rate average= 0.00978125
	minimum = 0 (at node 0)
	maximum = 0.1565 (at node 11)
Injected packet length average = 1
Accepted packet length average = 1
Total in-flight flits = 6 (6 measured)
latency change    = 0.0140081
throughput change = 0.0734824
Class 0:
Packet latency average = 31.9847
	minimum = 7
	maximum = 66
Network latency average = 31.9847
	minimum = 7
	maximum = 66
Slowest packet = 13116
Flit latency average = 32.0884
	minimum = 7
	maximum = 66
Slowest flit = 13116
Fragmentation average = 0
	minimum = 0
	maximum = 0
Injected packet rate average = 0.0096875
	minimum = 0.007 (at node 0)
	maximum = 0.015 (at node 5)
Accepted packet rate average = 0.00966667
	minimum = 0 (at node 0)
	maximum = 0.154667 (at node 11)
Injected flit rate average = 0.0096875
	minimum = 0.007 (at node 0)
	maximum = 0.015 (at node 5)
Accepted flit rate average= 0.00966667
	minimum = 0 (at node 0)
	maximum = 0.154667 (at node 11)
Injected packet length average = 1
Accepted packet length average = 1
Total in-flight flits = 8 (8 measured)
latency change    = 0.0131101
throughput change = 0.0118534
Class 0:
Packet latency average = 32.6552
	minimum = 7
	maximum = 67
Network latency average = 32.6552
	minimum = 7
	maximum = 67
Slowest packet = 13650
Flit latency average = 32.7254
	minimum = 7
	maximum = 67
Slowest flit = 13650
Fragmentation average = 0
	minimum = 0
	maximum = 0
Injected packet rate average = 0.00965625
	minimum = 0.007 (at node 13)
	maximum = 0.014 (at node 5)
Accepted packet rate average = 0.00967187
	minimum = 0 (at node 0)
	maximum = 0.15475 (at node 11)
Injected flit rate average = 0.00965625
	minimum = 0.007 (at node 13)
	maximum = 0.014 (at node 5)
Accepted flit rate average= 0.00967187
	minimum = 0 (at node 0)
	maximum = 0.15475 (at node 11)
Injected packet length average = 1
Accepted packet length average = 1
Total in-flight flits = 6 (6 measured)
latency change    = 0.0205341
throughput change = 0.000538503
Class 0:
Packet latency average = 32.9037
	minimum = 7
	maximum = 67
Network latency average = 32.9037
	minimum = 7
	maximum = 67
Slowest packet = 13650
Flit latency average = 32.956
	minimum = 7
	maximum = 67
Slowest flit = 13650
Fragmentation average = 0
	minimum = 0
	maximum = 0
Injected packet rate average = 0.0098875
	minimum = 0.0078 (at node 3)
	maximum = 0.0134 (at node 5)
Accepted packet rate average = 0.00995
	minimum = 0 (at node 0)
	maximum = 0.1592 (at node 11)
Injected flit rate average = 0.0098875
	minimum = 0.0078 (at node 3)
	maximum = 0.0134 (at node 5)
Accepted flit rate average= 0.00995
	minimum = 0 (at node 0)
	maximum = 0.1592 (at node 11)
Injected packet length average = 1
Accepted packet length average = 1
Total in-flight flits = 2 (2 measured)
latency change    = 0.00755073
throughput change = 0.0279523
Draining all recorded packets ...
Draining remaining packets ...
Time taken is 8076 cycles
Class 0:
Packet latency average = 32.8357
	minimum = 12
	maximum = 58
Network latency average = 32.8357
	minimum = 12
	maximum = 58
Slowest packet = 14003
Flit latency average = 32.8357
	minimum = 12
	maximum = 58
Slowest flit = 14003
Fragmentation average = 0
	minimum = 0
	maximum = 0
Injected packet rate average = 0.0091875
	minimum = 0.003 (at node 4)
	maximum = 0.015 (at node 13)
Accepted packet rate average = 0.00875
	minimum = 0 (at node 0)
	maximum = 0.14 (at node 11)
Injected flit rate average = 0.0091875
	minimum = 0.003 (at node 4)
	maximum = 0.015 (at node 13)
Accepted flit rate average= 0.00875
	minimum = 0 (at node 0)
	maximum = 0.14 (at node 11)
Injected packet length average = 1
Accepted packet length average = 1
Total in-flight flits = 7 (0 measured)
latency change    = 1
throughput change = 1
Class 0:
Packet latency average = 32.1721
	minimum = 8
	maximum = 60
Network latency average = 32.1721
	minimum = 8
	maximum = 60
Slowest packet = 14056
Flit latency average = 32.1721
	minimum = 8
	maximum = 60
Slowest flit = 14056
Fragmentation average = 0
	minimum = 0
	maximum = 0
Injected packet rate average = 0.00984375
	minimum = 0.0055 (at node 6)
	maximum = 0.013 (at node 1)
Accepted packet rate average = 0.009625
	minimum = 0 (at node 0)
	maximum = 0.154 (at node 11)
Injected flit rate average = 0.00984375
	minimum = 0.0055 (at node 6)
	maximum = 0.013 (at node 1)
Accepted flit rate average= 0.009625
	minimum = 0 (at node 0)
	maximum = 0.154 (at node 11)
Injected packet length average = 1
Accepted packet length average = 1
Total in-flight flits = 7 (0 measured)
latency change    = 0.0206277
throughput change = 0.0909091
Class 0:
Packet latency average = 32.6667
	minimum = 7
	maximum = 62
Network latency average = 32.6667
	minimum = 7
	maximum = 62
Slowest packet = 14278
Flit latency average = 32.6667
	minimum = 7
	maximum = 62
Slowest flit = 14278
Fragmentation average = 0
	minimum = 0
	maximum = 0
Injected packet rate average = 0.0090625
	minimum = 0.005 (at node 2)
	maximum = 0.013 (at node 11)
Accepted packet rate average = 0.0091875
	minimum = 0 (at node 0)
	maximum = 0.147 (at node 11)
Injected flit rate average = 0.0090625
	minimum = 0.005 (at node 2)
	maximum = 0.013 (at node 11)
Accepted flit rate average= 0.0091875
	minimum = 0 (at node 0)
	maximum = 0.147 (at node 11)
Injected packet length average = 1
Accepted packet length average = 1
Total in-flight flits = 5 (0 measured)
latency change    = 0.0151405
throughput change = 0.047619
Warmed up ...Time used is 3000 cycles
Class 0:
Packet latency average = 32.2848
	minimum = 7
	maximum = 60
Network latency average = 32.2848
	minimum = 7
	maximum = 60
Slowest packet = 14363
Flit latency average = 32.2756
	minimum = 7
	maximum = 60
Slowest flit = 14363
Fragmentation average = 0
	minimum = 0
	maximum = 0
Injected packet rate average = 0.0096875
	minimum = 0.004 (at node 11)
	maximum = 0.018 (at node 13)
Accepted packet rate average = 0.00975
	minimum = 0 (at node 0)
	maximum = 0.156 (at node 11)
Injected flit rate average = 0.0096875
	minimum = 0.004 (at node 11)
	maximum = 0.018 (at node 13)
Accepted flit rate average= 0.00975
	minimum = 0 (at node 0)
	maximum = 0.156 (at node 11)
Injected packet length average = 1
Accepted packet length average = 1
Total in-flight flits = 4 (4 measured)
latency change    = 0.0118291
throughput change = 0.0576923
Class 0:
Packet latency average = 32.3829
	minimum = 7
	maximum = 60
Network latency average = 32.3829
	minimum = 7
	maximum = 60
Slowest packet = 14363
Flit latency average = 32.3769
	minimum = 7
	maximum = 60
Slowest flit = 14363
Fragmentation average = 0
	minimum = 0
	maximum = 0
Injected packet rate average = 0.0101563
	minimum = 0.0065 (at node 9)
	maximum = 0.0135 (at node 13)
Accepted packet rate average = 0.0100313
	minimum = 0 (at node 0)
	maximum = 0.1605 (at node 11)
Injected flit rate average = 0.0101563
	minimum = 0.0065 (at node 9)
	maximum = 0.0135 (at node 13)
Accepted flit rate average= 0.0100313
	minimum = 0 (at node 0)
	maximum = 0.1605 (at node 11)
Injected packet length average = 1
Accepted packet length average = 1
Total in-flight flits = 9 (9 measured)
latency change    = 0.00303071
throughput change = 0.0280374
Class 0:
Packet latency average = 32.4
	minimum = 7
	maximum = 68
Network latency average = 32.4
	minimum = 7
	maximum = 68
Slowest packet = 14764
Flit latency average = 32.3958
	minimum = 7
	maximum = 68
Slowest flit = 14764
Fragmentation average = 0
	minimum = 0
	maximum = 0
Injected packet rate average = 0.00989583
	minimum = 0.00733333 (at node 9)
	maximum = 0.0116667 (at node 13)
Accepted packet rate average = 0.00989583
	minimum = 0 (at node 0)
	maximum = 0.158333 (at node 11)
Injected flit rate average = 0.00989583
	minimum = 0.00733333 (at node 9)
	maximum = 0.0116667 (at node 13)
Accepted flit rate average= 0.00989583
	minimum = 0 (at node 0)
	maximum = 0.158333 (at node 11)
Injected packet length average = 1
Accepted packet length average = 1
Total in-flight flits = 5 (5 measured)
latency change    = 0.000527426
throughput change = 0.0136842
Class 0:
Packet latency average = 32.6238
	minimum = 7
	maximum = 68
Network latency average = 32.6238
	minimum = 7
	maximum = 68
Slowest packet = 14764
Flit latency average = 32.619
	minimum = 7
	maximum = 68
Slowest flit = 14764
Fragmentation average = 0
	minimum = 0
	maximum = 0
Injected packet rate average = 0.0102344
	minimum = 0.00825 (at node 9)
	maximum = 0.0125 (at node 7)
Accepted packet rate average = 0.0101719
	minimum = 0 (at node 0)
	maximum = 0.16275 (at node 11)
Injected flit rate average = 0.0102344
	minimum = 0.00825 (at node 9)
	maximum = 0.0125 (at node 7)
Accepted flit rate average= 0.0101719
	minimum = 0 (at node 0)
	maximum = 0.16275 (at node 11)
Injected packet length average = 1
Accepted packet length average = 1
Total in-flight flits = 9 (9 measured)
latency change    = 0.00686121
[...]
	minimum = 7
	maximum = 76
Slowest packet = 114767
Flit latency average = 33.657
	minimum = 7
	maximum = 76
Slowest flit = 114767
Fragmentation average = 0
	minimum = 0
	maximum = 0
Injected packet rate average = 0.010875
	minimum = 0.007 (at node 0)
	maximum = 0.0156667 (at node 2)
Accepted packet rate average = 0.0108125
	minimum = 0 (at node 0)
	maximum = 0.173 (at node 11)
Injected flit rate average = 0.010875
	minimum = 0.007 (at node 0)
	maximum = 0.0156667 (at node 2)
Accepted flit rate average= 0.0108125
	minimum = 0 (at node 0)
	maximum = 0.173 (at node 11)
Injected packet length average = 1
Accepted packet length average = 1
Total in-flight flits = 7 (7 measured)
latency change    = 0.0083629
throughput change = 0.00289017
Draining all recorded packets ...
Draining remaining packets ...
Time taken is 6095 cycles
Class 0:
Packet latency average = 33.0897
	minimum = 12
	maximum = 62
Network latency average = 33.0897
	minimum = 12
	maximum = 62
Slowest packet = 115173
Flit latency average = 33.0897
	minimum = 12
	maximum = 62
Slowest flit = 115173
Fragmentation average = 0
	minimum = 0
	maximum = 0
Injected packet rate average = 0.010125
	minimum = 0.002 (at node 1)
	maximum = 0.016 (at node 3)
Accepted packet rate average = 0.00975
	minimum = 0 (at node 0)
	maximum = 0.156 (at node 11)
Injected flit rate average = 0.010125
	minimum = 0.002 (at node 1)
	maximum = 0.016 (at node 3)
Accepted flit rate average= 0.00975
	minimum = 0 (at node 0)
	maximum = 0.156 (at node 11)
Injected packet length average = 1
Accepted packet length average = 1
Total in-flight flits = 6 (0 measured)
latency change    = 1
throughput change = 1
Class 0:
Packet latency average = 33
	minimum = 12
	maximum = 62
Network latency average = 33
	minimum = 12
	maximum = 62
Slowest packet = 115173
Flit latency average = 33
	minimum = 12
	maximum = 62
Slowest flit = 115173
Fragmentation average = 0
	minimum = 0
	maximum = 0
Injected packet rate average = 0.0098125
	minimum = 0.006 (at node 1)
	maximum = 0.015 (at node 14)
Accepted packet rate average = 0.009625
	minimum = 0 (at node 0)
	maximum = 0.154 (at node 11)
Injected flit rate average = 0.0098125
	minimum = 0.006 (at node 1)
	maximum = 0.015 (at node 14)
Accepted flit rate average= 0.009625
	minimum = 0 (at node 0)
	maximum = 0.154 (at node 11)
Injected packet length average = 1
Accepted packet length average = 1
Total in-flight flits = 6 (0 measured)
latency change    = 0.0027195
throughput change = 0.012987
Class 0:
Packet latency average = 32.1214
	minimum = 7
	maximum = 64
Network latency average = 32.1214
	minimum = 7
	maximum = 64
Slowest packet = 115614
Flit latency average = 32.1214
	minimum = 7
	maximum = 64
Slowest flit = 115614
Fragmentation average = 0
	minimum = 0
	maximum = 0
Injected packet rate average = 0.0108125
	minimum = 0.005 (at node 12)
	maximum = 0.017 (at node 7)
Accepted packet rate average = 0.0108125
	minimum = 0 (at node 0)
	maximum = 0.173 (at node 11)
Injected flit rate average = 0.0108125
	minimum = 0.005 (at node 12)
	maximum = 0.017 (at node 7)
Accepted flit rate average= 0.0108125
	minimum = 0 (at node 0)
	maximum = 0.173 (at node 11)
Injected packet length average = 1
Accepted packet length average = 1
Total in-flight flits = 6 (0 measured)
latency change    = 0.0273529
throughput change = 0.109827
Warmed up ...Time used is 3000 cycles
Class 0:
Packet latency average = 33.3378
	minimum = 7
	maximum = 64
Network latency average = 33.3378
	minimum = 7
	maximum = 64
Slowest packet = 115679
Flit latency average = 33.6494
	minimum = 7
	maximum = 64
Slowest flit = 115679
Fragmentation average = 0
	minimum = 0
	maximum = 0
Injected packet rate average = 0.0094375
	minimum = 0.005 (at node 6)
	maximum = 0.014 (at node 3)
Accepted packet rate average = 0.009625
	minimum = 0 (at node 0)
	maximum = 0.154 (at node 11)
Injected flit rate average = 0.0094375
	minimum = 0.005 (at node 6)
	maximum = 0.014 (at node 3)
Accepted flit rate average= 0.009625
	minimum = 0 (at node 0)
	maximum = 0.154 (at node 11)
Injected packet length average = 1
Accepted packet length average = 1
Total in-flight flits = 3 (3 measured)
latency change    = 0.0364886
throughput change = 0.123377
Class 0:
Packet latency average = 32.2397
	minimum = 7
	maximum = 64
Network latency average = 32.2397
	minimum = 7
	maximum = 64
Slowest packet = 115679
Flit latency average = 32.4087
	minimum = 7
	maximum = 64
Slowest flit = 115679
Fragmentation average = 0
	minimum = 0
	maximum = 0
Injected packet rate average = 0.010125
	minimum = 0.006 (at node 2)
	maximum = 0.014 (at node 10)
Accepted packet rate average = 0.0100938
	minimum = 0 (at node 0)
	maximum = 0.1615 (at node 11)
Injected flit rate average = 0.010125
	minimum = 0.006 (at node 2)
	maximum = 0.014 (at node 10)
Accepted flit rate average= 0.0100938
	minimum = 0 (at node 0)
	maximum = 0.1615 (at node 11)
Injected packet length average = 1
Accepted packet length average = 1
Total in-flight flits = 7 (7 measured)
latency change    = 0.0340601
throughput change = 0.0464396
Class 0:
Packet latency average = 32.9598
	minimum = 7
	maximum = 64
Network latency average = 32.9598
	minimum = 7
	maximum = 64
Slowest packet = 115679
Flit latency average = 33.0595
	minimum = 7
	maximum = 64
Slowest flit = 115679
Fragmentation average = 0
	minimum = 0
	maximum = 0
Injected packet rate average = 0.0105833
	minimum = 0.00833333 (at node 0)
	maximum = 0.013 (at node 3)
Accepted packet rate average = 0.0105
	minimum = 0 (at node 0)
	maximum = 0.168 (at node 11)
Injected flit rate average = 0.0105833
	minimum = 0.00833333 (at node 0)
	maximum = 0.013 (at node 3)
Accepted flit rate average= 0.0105
	minimum = 0 (at node 0)
	maximum = 0.168 (at node 11)
Injected packet length average = 1
Accepted packet length average = 1
Total in-flight flits = 10 (10 measured)
latency change    = 0.0218475
throughput change = 0.0386905
Class 0:
Packet latency average = 33.0178
	minimum = 7
	maximum = 64
Network latency average = 33.0178
	minimum = 7
	maximum = 64
Slowest packet = 115679
Flit latency average = 33.0913
	minimum = 7
	maximum = 64
Slowest flit = 115679
Fragmentation average = 0
	minimum = 0
	maximum = 0
Injected packet rate average = 0.0106094
	minimum = 0.009 (at node 0)
	maximum = 0.01225 (at node 10)
Accepted packet rate average = 0.0106094
	minimum = 0 (at node 0)
	maximum = 0.16975 (at node 11)
Injected flit rate average = 0.0106094
	minimum = 0.009 (at node 0)
	maximum = 0.01225 (at node 10)
Accepted flit rate average= 0.0106094
	minimum = 0 (at node 0)
	maximum = 0.16975 (at node 11)
Injected packet length average = 1
Accepted packet length average = 1
Total in-flight flits = 6 (6 measured)
latency change    = 0.00175636
throughput change = 0.0103093
Draining all recorded packets ...
Draining remaining packets ...
Time taken is 7050 cycles
Class 0:
Packet latency average = 33.5756
	minimum = 12
	maximum = 73
Network latency average = 33.5756
	minimum = 12
	maximum = 73
Slowest packet = 116394
Flit latency average = 33.5756
	minimum = 12
	maximum = 73
Slowest flit = 116394
Fragmentation average = 0
	minimum = 0
	maximum = 0
Injected packet rate average = 0.011125
	minimum = 0.006 (at node 14)
	maximum = 0.018 (at node 11)
Accepted packet rate average = 0.01075
	minimum = 0 (at node 0)
	maximum = 0.172 (at node 11)
Injected flit rate average = 0.011125
	minimum = 0.006 (at node 14)
	maximum = 0.018 (at node 11)
Accepted flit rate average= 0.01075
	minimum = 0 (at node 0)
	maximum = 0.172 (at node 11)
Injected packet length average = 1
Accepted packet length average = 1
Total in-flight flits = 6 (0 measured)
latency change    = 1
throughput change = 1
Class 0:
Packet latency average = 33.5605
	minimum = 7
	maximum = 73
Network latency average = 33.5605
	minimum = 7
	maximum = 73
Slowest packet = 116394
Flit latency average = 33.5605
	minimum = 7
	maximum = 73
Slowest flit = 116394
Fragmentation average = 0
	minimum = 0
	maximum = 0
Injected packet rate average = 0.00996875
	minimum = 0.005 (at node 14)
	maximum = 0.0155 (at node 11)
Accepted packet rate average = 0.0098125
	minimum = 0 (at node 0)
	maximum = 0.157 (at node 11)
Injected flit rate average = 0.00996875
	minimum = 0.005 (at node 14)
	maximum = 0.0155 (at node 11)
Accepted flit rate average= 0.0098125
	minimum = 0 (at node 0)
	maximum = 0.157 (at node 11)
Injected packet length average = 1
Accepted packet length average = 1
Total in-flight flits = 5 (0 measured)
latency change    = 0.000449095
throughput change = 0.0955414
Class 0:
Packet latency average = 32.5838
	minimum = 7
	maximum = 62
Network latency average = 32.5838
	minimum = 7
	maximum = 62
Slowest packet = 116802
Flit latency average = 32.5838
	minimum = 7
	maximum = 62
Slowest flit = 116802
Fragmentation average = 0
	minimum = 0
	maximum = 0
Injected packet rate average = 0.0115625
	minimum = 0.007 (at node 4)
	maximum = 0.015 (at node 12)
Accepted packet rate average = 0.0115625
	minimum = 0 (at node 0)
	maximum = 0.185 (at node 11)
Injected flit rate average = 0.0115625
	minimum = 0.007 (at node 4)
	maximum = 0.015 (at node 12)
Accepted flit rate average= 0.0115625
	minimum = 0 (at node 0)
	maximum = 0.185 (at node 11)
Injected packet length average = 1
Accepted packet length average = 1
Total in-flight flits = 5 (0 measured)
latency change    = 0.0299758
throughput change = 0.151351
Warmed up ...Time used is 3000 cycles
Class 0:
Packet latency average = 32.7326
	minimum = 7
	maximum = 70
Network latency average = 32.7326
	minimum = 7
	maximum = 70
Slowest packet = 116891
Flit latency average = 32.8698
	minimum = 7
	maximum = 70
Slowest flit = 116891
Fragmentation average = 0
	minimum = 0
	maximum = 0
Injected packet rate average = 0.0123125
	minimum = 0.007 (at node 9)
	maximum = 0.024 (at node 7)
Accepted packet rate average = 0.012
	minimum = 0 (at node 0)
	maximum = 0.192 (at node 11)
Injected flit rate average = 0.0123125
	minimum = 0.007 (at node 9)
	maximum = 0.024 (at node 7)
Accepted flit rate average= 0.012
	minimum = 0 (at node 0)
	maximum = 0.192 (at node 11)
Injected packet length average = 1
Accepted packet length average = 1
Total in-flight flits = 10 (10 measured)
latency change    = 0.00454704
throughput change = 0.0364583
Class 0:
Packet latency average = 33.3353
	minimum = 7
	maximum = 70
Network latency average = 33.3353
	minimum = 7
	maximum = 70
Slowest packet = 116891
Flit latency average = 33.4029
	minimum = 7
	maximum = 70
Slowest flit = 116891
Fragmentation average = 0
	minimum = 0
	maximum = 0
Injected packet rate average = 0.0109062
	minimum = 0.0075 (at node 2)
	maximum = 0.0165 (at node 7)
Accepted packet rate average = 0.0107812
	minimum = 0 (at node 0)
	maximum = 0.1725 (at node 11)
Injected flit rate average = 0.0109062
	minimum = 0.0075 (at node 2)
	maximum = 0.0165 (at node 7)
Accepted flit rate average= 0.0107812
	minimum = 0 (at node 0)
	maximum = 0.1725 (at node 11)
Injected packet length average = 1
Accepted packet length average = 1
Total in-flight flits = 9 (9 measured)
latency change    = 0.0180792
throughput change = 0.113043
Class 0:
Packet latency average = 32.9714
	minimum = 7
	maximum = 70
Network latency average = 32.9714
	minimum = 7
	maximum = 70
Slowest packet = 116891
Flit latency average = 33.0189
	minimum = 7
	maximum = 70
Slowest flit = 116891
Fragmentation average = 0
	minimum = 0
	maximum = 0
Injected packet rate average = 0.011
	minimum = 0.00833333 (at node 2)
	maximum = 0.0153333 (at node 7)
Accepted packet rate average = 0.0110417
	minimum = 0 (at node 0)
	maximum = 0.176667 (at node 11)
Injected flit rate average = 0.011
	minimum = 0.00833333 (at node 2)
	maximum = 0.0153333 (at node 7)
Accepted flit rate average= 0.0110417
	minimum = 0 (at node 0)
	maximum = 0.176667 (at node 11)
Injected packet length average = 1
Accepted packet length average = 1
Total in-flight flits = 3 (3 measured)
latency change    = 0.0110358
throughput change = 0.0235849
Class 0:
Packet latency average = 32.7428
	minimum = 7
	maximum = 70
Network latency average = 32.7428
	minimum = 7
	maximum = 70
Slowest packet = 116891
Flit latency average = 32.7805
	minimum = 7
	maximum = 70
Slowest flit = 116891
Fragmentation average = 0
	minimum = 0
	maximum = 0
Injected packet rate average = 0.0108437
	minimum = 0.00775 (at node 3)
	maximum = 0.0135 (at node 7)
Accepted packet rate average = 0.0108906
	minimum = 0 (at node 0)
	maximum = 0.17425 (at node 11)
Injected flit rate average = 0.0108437
	minimum = 0.00775 (at node 3)
	maximum = 0.0135 (at node 7)
Accepted flit rate average= 0.0108906
	minimum = 0 (at node 0)
	maximum = 0.17425 (at node 11)
Injected packet length average = 1
Accepted packet length average = 1
Total in-flight flits = 2 (2 measured)
latency change    = 0.00698334
throughput change = 0.013869
Class 0:
Packet latency average = 32.8076
	minimum = 7
	maximum = 70
Network latency average = 32.8076
	minimum = 7
	maximum = 70
Slowest packet = 116891
Flit latency average = 32.8371
	minimum = 7
	maximum = 70
Slowest flit = 116891
Fragmentation average = 0
	minimum = 0
	maximum = 0
Injected packet rate average = 0.011
	minimum = 0.009 (at node 2)
	maximum = 0.0132 (at node 7)
Accepted packet rate average = 0.010975
	minimum = 0 (at node 0)
	maximum = 0.1756 (at node 11)
Injected flit rate average = 0.011
	minimum = 0.009 (at node 2)
	maximum = 0.0132 (at node 7)
Accepted flit rate average= 0.010975
	minimum = 0 (at node 0)
	maximum = 0.1756 (at node 11)
Injected packet length average = 1
Accepted packet length average = 1
Total in-flight flits = 7 (7 measured)
latency change    = 0.00197471
throughput change = 0.00768793
Draining all recorded packets ...
Draining remaining packets ...
Time taken is 8078 cycles
Class 0:
Packet latency average = 32.2244
	minimum = 12
	maximum = 58
Network latency average = 32.2244
	minimum = 12
	maximum = 58
Slowest packet = 117769
Flit latency average = 32.2244
	minimum = 12
	maximum = 58
Slowest flit = 117769
Fragmentation average = 0
	minimum = 0
	maximum = 0
Injected packet rate average = 0.01025
	minimum = 0.002 (at node 0)
	maximum = 0.016 (at node 12)
Accepted packet rate average = 0.00975
	minimum = 0 (at node 0)
	maximum = 0.156 (at node 11)
Injected flit rate average = 0.01025
	minimum = 0.002 (at node 0)
	maximum = 0.016 (at node 12)
Accepted flit rate average= 0.00975
	minimum = 0 (at node 0)
	maximum = 0.156 (at node 11)
Injected packet length average = 1
Accepted packet length average = 1
Total in-flight flits = 8 (0 measured)
latency change    = 1
throughput change = 1
Class 0:
Packet latency average = 31.9849
	minimum = 7
	maximum = 58
Network latency average = 31.9849
	minimum = 7
	maximum = 58
Slowest packet = 117769
Flit latency average = 31.9849
	minimum = 7
	maximum = 58
Slowest flit = 117769
Fragmentation average = 0
	minimum = 0
	maximum = 0
Injected packet rate average = 0.0107188
	minimum = 0.0065 (at node 4)
	maximum = 0.014 (at node 1)
Accepted packet rate average = 0.0103438
	minimum = 0 (at node 0)
	maximum = 0.1655 (at node 11)
Injected flit rate average = 0.0107188
	minimum = 0.0065 (at node 4)
	maximum = 0.014 (at node 1)
Accepted flit rate average= 0.0103438
	minimum = 0 (at node 0)
	maximum = 0.1655 (at node 11)
Injected packet length average = 1
Accepted packet length average = 1
Total in-flight flits = 12 (0 measured)
latency change    = 0.00748681
throughput change = 0.0574018
Class 0:
Packet latency average = 33.1745
	minimum = 12
	maximum = 69
Network latency average = 33.1745
	minimum = 12
	maximum = 69
Slowest packet = 118188
Flit latency average = 33.1745
	minimum = 12
	maximum = 69
Slowest flit = 118188
Fragmentation average = 0
	minimum = 0
	maximum = 0
Injected packet rate average = 0.00875
	minimum = 0.004 (at node 3)
	maximum = 0.013 (at node 15)
Accepted packet rate average = 0.0093125
	minimum = 0 (at node 0)
	maximum = 0.149 (at node 11)
Injected flit rate average = 0.00875
	minimum = 0.004 (at node 3)
	maximum = 0.013 (at node 15)
Accepted flit rate average= 0.0093125
	minimum = 0 (at node 0)
	maximum = 0.149 (at node 11)
Injected packet length average = 1
Accepted packet length average = 1
Total in-flight flits = 3 (0 measured)
latency change    = 0.0358589
throughput change = 0.110738
Warmed up ...Time used is 3000 cycles
Class 0:
Packet latency average = 34.6209
	minimum = 12
	maximum = 62
Network latency average = 34.6209
	minimum = 12
	maximum = 62
Slowest packet = 118247
Flit latency average = 34.5705
	minimum = 12
	maximum = 62
Slowest flit = 118247
Fragmentation average = 0
	minimum = 0
	maximum = 0
Injected packet rate average = 0.009875
	minimum = 0.005 (at node 9)
	maximum = 0.015 (at node 15)
Accepted packet rate average = 0.00975
	minimum = 0 (at node 0)
	maximum = 0.156 (at node 11)
Injected flit rate average = 0.009875
	minimum = 0.005 (at node 9)
	maximum = 0.015 (at node 15)
Accepted flit rate average= 0.00975
	minimum = 0 (at node 0)
	maximum = 0.156 (at node 11)
Injected packet length average = 1
Accepted packet length average = 1
Total in-flight flits = 5 (5 measured)
latency change    = 0.0417787
throughput change = 0.0448718
Class 0:
Packet latency average = 33.8006
	minimum = 7
	maximum = 66
Network latency average = 33.8006
	minimum = 7
	maximum = 66
Slowest packet = 118388
Flit latency average = 33.784
	minimum = 7
	maximum = 66
Slowest flit = 118388
Fragmentation average = 0
	minimum = 0
	maximum = 0
Injected packet rate average = 0.0101875
	minimum = 0.006 (at node 3)
	maximum = 0.013 (at node 2)
Accepted packet rate average = 0.010125
	minimum = 0 (at node 0)
	maximum = 0.162 (at node 11)
Injected flit rate average = 0.0101875
	minimum = 0.006 (at node 3)
	maximum = 0.013 (at node 2)
Accepted flit rate average= 0.010125
	minimum = 0 (at node 0)
	maximum = 0.162 (at node 11)
Injected packet length average = 1
Accepted packet length average = 1
Total in-flight flits = 5 (5 measured)
latency change    = 0.0242685
throughput change = 0.037037
Class 0:
Packet latency average = 33.4739
	minimum = 7
	maximum = 66
Network latency average = 33.4739
	minimum = 7
	maximum = 66
Slowest packet = 118388
Flit latency average = 33.4647
	minimum = 7
	maximum = 66
Slowest flit = 118388
Fragmentation average = 0
	minimum = 0
	maximum = 0
Injected packet rate average = 0.0101875
	minimum = 0.00733333 (at node 3)
	maximum = 0.0136667 (at node 13)
Accepted packet rate average = 0.0100417
	minimum = 0 (at node 0)
	maximum = 0.160667 (at node 11)
Injected flit rate average = 0.0101875
	minimum = 0.00733333 (at node 3)
	maximum = 0.0136667 (at node 13)
Accepted flit rate average= 0.0100417
	minimum = 0 (at node 0)
	maximum = 0.160667 (at node 11)
Injected packet length average = 1
Accepted packet length average = 1
Total in-flight flits = 10 (10 measured)
latency change    = 0.00976041
throughput change = 0.00829876
Draining all recorded packets ...
Draining remaining packets ...
Time taken is 6069 cycles
====== Overall Traffic Statistics ======
====== Traffic class 0 ======
Packet latency average = 32.6942 (100 samples)
	minimum = 7.35 (100 samples)
	maximum = 67.51 (100 samples)
Network latency average = 32.6942 (100 samples)
	minimum = 7.35 (100 samples)
	maximum = 67.51 (100 samples)
Flit latency average = 32.7274 (100 samples)
	minimum = 7.35 (100 samples)
	maximum = 67.65 (100 samples)
Fragmentation average = 0 (100 samples)
	minimum = 0 (100 samples)
	maximum = 0 (100 samples)
Injected packet rate average = 0.01003 (100 samples)
	minimum = 0.00739736 (100 samples)
	maximum = 0.0129577 (100 samples)
Accepted packet rate average = 0.0100321 (100 samples)
	minimum = 0 (100 samples)
	maximum = 0.160514 (100 samples)
Injected flit rate average = 0.01003 (100 samples)
	minimum = 0.00739736 (100 samples)
	maximum = 0.0129577 (100 samples)
Accepted flit rate average = 0.0100321 (100 samples)
	minimum = 0 (100 samples)
	maximum = 0.160514 (100 samples)
Injected packet size average = 1 (100 samples)
Accepted packet size average = 1 (100 samples)
Hops average = 5.99006 (100 samples)
Total run time 5.06267
