BEGIN Configuration File: /tmp/test_planar_8x8_uniform.cfg
topology = mesh;
k = 8;
n = 2;
routing_function = planar_adapt;
num_vcs = 4;
vc_buf_size = 4;
wait_for_tail_credit = 1;
priority = local_age;
sim_type = latency;
warmup_periods = 3;
sample_period = 1000;
sim_count = 100;
print_csv_results = 1;
traffic = uniform;
injection_rate = 0.01;
packet_size = 1;

END Configuration File: /tmp/test_planar_8x8_uniform.cfg
Class 0:
Packet latency average = 32.2023
	minimum = 7
	maximum = 72
Network latency average = 32.2023
	minimum = 7
	maximum = 72
Slowest packet = 231
Flit latency average = 32.2023
	minimum = 7
	maximum = 72
Slowest flit = 231
Fragmentation average = 0
	minimum = 0
	maximum = 0
Injected packet rate average = 0.00960937
	minimum = 0.003 (at node 21)
	maximum = 0.015 (at node 18)
Accepted packet rate average = 0.00934375
	minimum = 0.004 (at node 37)
	maximum = 0.017 (at node 12)
Injected flit rate average = 0.00960937
	minimum = 0.003 (at node 21)
	maximum = 0.015 (at node 18)
Accepted flit rate average= 0.00934375
	minimum = 0.004 (at node 37)
	maximum = 0.017 (at node 12)
Injected packet length average = 1
Accepted packet length average = 1
Total in-flight flits = 17 (0 measured)
latency change    = 1
throughput change = 1
Class 0:
Packet latency average = 33.0914
	minimum = 7
	maximum = 72
Network latency average = 33.0914
	minimum = 7
	maximum = 72
Slowest packet = 231
Flit latency average = 33.0914
	minimum = 7
	maximum = 72
Slowest flit = 231
Fragmentation average = 0
	minimum = 0
	maximum = 0
Injected packet rate average = 0.00977344
	minimum = 0.0045 (at node 55)
	maximum = 0.015 (at node 42)
Accepted packet rate average = 0.00957812
	minimum = 0.005 (at node 43)
	maximum = 0.014 (at node 12)
Injected flit rate average = 0.00977344
	minimum = 0.0045 (at node 55)
	maximum = 0.015 (at node 42)
Accepted flit rate average= 0.00957812
	minimum = 0.005 (at node 43)
	maximum = 0.014 (at node 12)
Injected packet length average = 1
Accepted packet length average = 1
Total in-flight flits = 25 (0 measured)
latency change    = 0.0268654
throughput change = 0.0244698
Class 0:
Packet latency average = 33.8012
	minimum = 7
	maximum = 77
Network latency average = 33.8012
	minimum = 7
	maximum = 77
Slowest packet = 1753
Flit latency average = 33.8012
	minimum = 7
	maximum = 77
Slowest flit = 1753
Fragmentation average = 0
	minimum = 0
	maximum = 0
Injected packet rate average = 0.0103281
	minimum = 0.003 (at node 22)
	maximum = 0.022 (at node 1)
Accepted packet rate average = 0.0104531
	minimum = 0.005 (at node 52)
	maximum = 0.018 (at node 40)
Injected flit rate average = 0.0103281
	minimum = 0.003 (at node 22)
	maximum = 0.022 (at node 1)
Accepted flit rate average= 0.0104531
	minimum = 0.005 (at node 52)
	maximum = 0.018 (at node 40)
Injected packet length average = 1
Accepted packet length average = 1
Total in-flight flits = 17 (0 measured)
latency change    = 0.0210005
throughput change = 0.083707
Warmed up ...Time used is 3000 cycles
Class 0:
Packet latency average = 32.8013
	minimum = 7
	maximum = 72
Network latency average = 32.8013
	minimum = 7
	maximum = 72
Slowest packet = 2114
Flit latency average = 32.8899
	minimum = 7
	maximum = 72
Slowest flit = 2114
Fragmentation average = 0
	minimum = 0
	maximum = 0
Injected packet rate average = 0.0100469
	minimum = 0.003 (at node 30)
	maximum = 0.017 (at node 23)
Accepted packet rate average = 0.0099375
	minimum = 0.004 (at node 17)
	maximum = 0.016 (at node 11)
Injected flit rate average = 0.0100469
	minimum = 0.003 (at node 30)
	maximum = 0.017 (at node 23)
Accepted flit rate average= 0.0099375
	minimum = 0.004 (at node 17)
	maximum = 0.016 (at node 11)
Injected packet length average = 1
Accepted packet length average = 1
Total in-flight flits = 24 (24 measured)
latency change    = 0.0304837
throughput change = 0.0518868
Class 0:
Packet latency average = 32.896
	minimum = 7
	maximum = 76
Network latency average = 32.896
	minimum = 7
	maximum = 76
Slowest packet = 3057
Flit latency average = 32.9399
	minimum = 7
	maximum = 76
Slowest flit = 3057
Fragmentation average = 0
	minimum = 0
	maximum = 0
Injected packet rate average = 0.00976562
	minimum = 0.004 (at node 30)
	maximum = 0.016 (at node 43)
Accepted packet rate average = 0.00975
	minimum = 0.005 (at node 17)
	maximum = 0.0165 (at node 22)
Injected flit rate average = 0.00976562
	minimum = 0.004 (at node 30)
	maximum = 0.016 (at node 43)
Accepted flit rate average= 0.00975
	minimum = 0.005 (at node 17)
	maximum = 0.0165 (at node 22)
Injected packet length average = 1
Accepted packet length average = 1
Total in-flight flits = 19 (19 measured)
latency change    = 0.00287959
throughput change = 0.0192308
Class 0:
Packet latency average = 33.0277
	minimum = 7
	maximum = 77
Network latency average = 33.0277
	minimum = 7
	maximum = 77
Slowest packet = 3311
Flit latency average = 33.0559
	minimum = 7
	maximum = 77
Slowest flit = 3311
Fragmentation average = 0
	minimum = 0
	maximum = 0
Injected packet rate average = 0.00970833
	minimum = 0.005 (at node 30)
	maximum = 0.0136667 (at node 37)
Accepted packet rate average = 0.00968229
	minimum = 0.00666667 (at node 10)
	maximum = 0.0146667 (at node 22)
Injected flit rate average = 0.00970833
	minimum = 0.005 (at node 30)
	maximum = 0.0136667 (at node 37)
Accepted flit rate average= 0.00968229
	minimum = 0.00666667 (at node 10)
	maximum = 0.0146667 (at node 22)
Injected packet length average = 1
Accepted packet length average = 1
Total in-flight flits = 22 (22 measured)
latency change    = 0.00398659
throughput change = 0.00699301
Class 0:
Packet latency average = 33.2137
	minimum = 7
	maximum = 77
Network latency average = 33.2137
	minimum = 7
	maximum = 77
Slowest packet = 3311
Flit latency average = 33.2334
	minimum = 7
	maximum = 77
Slowest flit = 3311
Fragmentation average = 0
	minimum = 0
	maximum = 0
Injected packet rate average = 0.00980078
	minimum = 0.0065 (at node 47)
	maximum = 0.0135 (at node 36)
Accepted packet rate average = 0.00977344
	minimum = 0.006 (at node 30)
	maximum = 0.01375 (at node 22)
Injected flit rate average = 0.00980078
	minimum = 0.0065 (at node 47)
	maximum = 0.0135 (at node 36)
Accepted flit rate average= 0.00977344
	minimum = 0.006 (at node 30)
	maximum = 0.01375 (at node 22)
Injected packet length average = 1
Accepted packet length average = 1
Total in-flight flits = 24 (24 measured)
latency change    = 0.00559995
throughput change = 0.00932587
Draining all recorded packets ...
Draining remaining packets ...
Time taken is 7095 cycles
Class 0:
Packet latency average = 32.2808
	minimum = 7
	maximum = 76
Network latency average = 32.2808
	minimum = 7
	maximum = 76
Slowest packet = 4985
Flit latency average = 32.2808
	minimum = 7
	maximum = 76
Slowest flit = 4985
Fragmentation average = 0
	minimum = 0
	maximum = 0
Injected packet rate average = 0.0102969
	minimum = 0.004 (at node 3)
	maximum = 0.018 (at node 48)
Accepted packet rate average = 0.00990625
	minimum = 0.002 (at node 10)
	maximum = 0.017 (at node 24)
Injected flit rate average = 0.0102969
	minimum = 0.004 (at node 3)
	maximum = 0.018 (at node 48)
Accepted flit rate average= 0.00990625
	minimum = 0.002 (at node 10)
	maximum = 0.017 (at node 24)
Injected packet length average = 1
Accepted packet length average = 1
Total in-flight flits = 25 (0 measured)
latency change    = 1
throughput change = 1
Class 0:
Packet latency average = 32.5968
	minimum = 7
	maximum = 76
Network latency average = 32.5968
	minimum = 7
	maximum = 76
Slowest packet = 4985
Flit latency average = 32.5968
	minimum = 7
	maximum = 76
Slowest flit = 4985
Fragmentation average = 0
	minimum = 0
	maximum = 0
Injected packet rate average = 0.00985156
	minimum = 0.005 (at node 0)
	maximum = 0.016 (at node 28)
Accepted packet rate average = 0.00964844
	minimum = 0.0055 (at node 38)
	maximum = 0.015 (at node 49)
Injected flit rate average = 0.00985156
	minimum = 0.005 (at node 0)
	maximum = 0.016 (at node 28)
Accepted flit rate average= 0.00964844
	minimum = 0.0055 (at node 38)
	maximum = 0.015 (at node 49)
Injected packet length average = 1
Accepted packet length average = 1
Total in-flight flits = 26 (0 measured)
latency change    = 0.00969434
throughput change = 0.0267206
Class 0:
Packet latency average = 32.7882
	minimum = 7
	maximum = 72
Network latency average = 32.7882
	minimum = 7
	maximum = 72
Slowest packet = 5723
Flit latency average = 32.7882
	minimum = 7
	maximum = 72
Slowest flit = 5723
Fragmentation average = 0
	minimum = 0
	maximum = 0
Injected packet rate average = 0.00990625
	minimum = 0.005 (at node 1)
	maximum = 0.016 (at node 44)
Accepted packet rate average = 0.0100313
	minimum = 0.004 (at node 4)
	maximum = 0.017 (at node 12)
Injected flit rate average = 0.00990625
	minimum = 0.005 (at node 1)
	maximum = 0.016 (at node 44)
Accepted flit rate average= 0.0100313
	minimum = 0.004 (at node 4)
	maximum = 0.017 (at node 12)
Injected packet length average = 1
Accepted packet length average = 1
Total in-flight flits = 18 (0 measured)
latency change    = 0.0058375
throughput change = 0.038162
Warmed up ...Time used is 3000 cycles
Class 0:
Packet latency average = 32.0754
	minimum = 7
	maximum = 72
Network latency average = 32.0754
	minimum = 7
	maximum = 72
Slowest packet = 6488
Flit latency average = 32.2656
	minimum = 7
	maximum = 72
Slowest flit = 6488
Fragmentation average = 0
	minimum = 0
	maximum = 0
Injected packet rate average = 0.0103281
	minimum = 0.002 (at node 60)
	maximum = 0.019 (at node 58)
Accepted packet rate average = 0.0102344
	minimum = 0.006 (at node 12)
	maximum = 0.016 (at node 3)
Injected flit rate average = 0.0103281
	minimum = 0.002 (at node 60)
	maximum = 0.019 (at node 58)
Accepted flit rate average= 0.0102344
	minimum = 0.006 (at node 12)
	maximum = 0.016 (at node 3)
Injected packet length average = 1
Accepted packet length average = 1
Total in-flight flits = 24 (24 measured)
latency change    = 0.0222229
throughput change = 0.0198473
Class 0:
Packet latency average = 32.8374
	minimum = 7
	maximum = 77
Network latency average = 32.8374
	minimum = 7
	maximum = 77
Slowest packet = 7507
Flit latency average = 32.9201
	minimum = 7
	maximum = 77
Slowest flit = 7507
Fragmentation average = 0
	minimum = 0
	maximum = 0
Injected packet rate average = 0.0104922
	minimum = 0.0035 (at node 60)
	maximum = 0.016 (at node 15)
Accepted packet rate average = 0.0104688
	minimum = 0.005 (at node 21)
	maximum = 0.0155 (at node 59)
Injected flit rate average = 0.0104922
	minimum = 0.0035 (at node 60)
	maximum = 0.016 (at node 15)
Accepted flit rate average= 0.0104688
	minimum = 0.005 (at node 21)
	maximum = 0.0155 (at node 59)
Injected packet length average = 1
Accepted packet length average = 1
Total in-flight flits = 21 (21 measured)
latency change    = 0.0232057
throughput change = 0.0223881
Class 0:
Packet latency average = 33.3002
	minimum = 7
	maximum = 77
Network latency average = 33.3002
	minimum = 7
	maximum = 77
Slowest packet = 7507
Flit latency average = 33.352
	minimum = 7
	maximum = 77
Slowest flit = 7507
Fragmentation average = 0
	minimum = 0
	maximum = 0
Injected packet rate average = 0.0103438
	minimum = 0.00633333 (at node 60)
	maximum = 0.014 (at node 62)
Accepted packet rate average = 0.0102969
	minimum = 0.00533333 (at node 21)
	maximum = 0.0143333 (at node 59)
Injected flit rate average = 0.0103438
	minimum = 0.00633333 (at node 60)
	maximum = 0.014 (at node 62)
Accepted flit rate average= 0.0102969
	minimum = 0.00533333 (at node 21)
	maximum = 0.0143333 (at node 59)
Injected packet length average = 1
Accepted packet length average = 1
Total in-flight flits = 27 (27 measured)
latency change    = 0.0138974
throughput change = 0.016692
Draining all recorded packets ...
Draining remaining packets ...
Time taken is 6092 cycles
Class 0:
Packet latency average = 33.6492
	minimum = 7
	maximum = 77
Network latency average = 33.6492
	minimum = 7
	maximum = 77
Slowest packet = 8444
Flit latency average = 33.6492
	minimum = 7
	maximum = 77
Slowest flit = 8444
Fragmentation average = 0
	minimum = 0
	maximum = 0
Injected packet rate average = 0.00946875
	minimum = 0.003 (at node 17)
	maximum = 0.017 (at node 46)
Accepted packet rate average = 0.00921875
	minimum = 0.003 (at node 7)
	maximum = 0.016 (at node 16)
Injected flit rate average = 0.00946875
	minimum = 0.003 (at node 17)
	maximum = 0.017 (at node 46)
Accepted flit rate average= 0.00921875
	minimum = 0.003 (at node 7)
	maximum = 0.016 (at node 16)
Injected packet length average = 1
Accepted packet length average = 1
Total in-flight flits = 16 (0 measured)
latency change    = 1
throughput change = 1
Class 0:
Packet latency average = 33.3718
	minimum = 7
	maximum = 77
Network latency average = 33.3718
	minimum = 7
	maximum = 77
Slowest packet = 8444
Flit latency average = 33.3718
	minimum = 7
	maximum = 77
Slowest flit = 8444
Fragmentation average = 0
	minimum = 0
	maximum = 0
Injected packet rate average = 0.00957031
	minimum = 0.0045 (at node 19)
	maximum = 0.015 (at node 51)
Accepted packet rate average = 0.00941406
	minimum = 0.0055 (at node 7)
	maximum = 0.014 (at node 0)
Injected flit rate average = 0.00957031
	minimum = 0.0045 (at node 19)
	maximum = 0.015 (at node 51)
Accepted flit rate average= 0.00941406
	minimum = 0.0055 (at node 7)
	maximum = 0.014 (at node 0)
Injected packet length average = 1
Accepted packet length average = 1
Total in-flight flits = 20 (0 measured)
latency change    = 0.00831146
throughput change = 0.0207469
Class 0:
Packet latency average = 33.3118
	minimum = 7
	maximum = 77
Network latency average = 33.3118
	minimum = 7
	maximum = 77
Slowest packet = 9939
Flit latency average = 33.3118
	minimum = 7
	maximum = 77
Slowest flit = 9939
Fragmentation average = 0
	minimum = 0
	maximum = 0
Injected packet rate average = 0.00998438
	minimum = 0.005 (at node 15)
	maximum = 0.018 (at node 12)
Accepted packet rate average = 0.00992188
	minimum = 0.004 (at node 41)
	maximum = 0.022 (at node 26)
Injected flit rate average = 0.00998438
	minimum = 0.005 (at node 15)
	maximum = 0.018 (at node 12)
Accepted flit rate average= 0.00992188
	minimum = 0.004 (at node 41)
	maximum = 0.022 (at node 26)
Injected packet length average = 1
Accepted packet length average = 1
Total in-flight flits = 24 (0 measured)
latency change    = 0.00180036
throughput change = 0.0511811
Warmed up ...Time used is 3000 cycles
Class 0:
Packet latency average = 32.3447
	minimum = 7
	maximum = 72
Network latency average = 32.3447
	minimum = 7
	maximum = 72
Slowest packet = 10626
Flit latency average = 32.5738
	minimum = 7
	maximum = 72
Slowest flit = 10626
Fragmentation average = 0
	minimum = 0
	maximum = 0
Injected packet rate average = 0.00940625
	minimum = 0.003 (at node 15)
	maximum = 0.021 (at node 47)
Accepted packet rate average = 0.00953125
	minimum = 0.003 (at node 46)
	maximum = 0.017 (at node 23)
Injected flit rate average = 0.00940625
	minimum = 0.003 (at node 15)
	maximum = 0.021 (at node 47)
Accepted flit rate average= 0.00953125
	minimum = 0.003 (at node 46)
	maximum = 0.017 (at node 23)
Injected packet length average = 1
Accepted packet length average = 1
Total in-flight flits = 16 (16 measured)
latency change    = 0.0298998
throughput change = 0.0409836
Class 0:
Packet latency average = 33.312
	minimum = 7
	maximum = 72
Network latency average = 33.312
	minimum = 7
	maximum = 72
Slowest packet = 10626
Flit latency average = 33.4023
	minimum = 7
	maximum = 72
Slowest flit = 10626
Fragmentation average = 0
	minimum = 0
	maximum = 0
Injected packet rate average = 0.00998438
	minimum = 0.004 (at node 30)
	maximum = 0.0155 (at node 47)
Accepted packet rate average = 0.0100781
	minimum = 0.0055 (at node 15)
	maximum = 0.014 (at node 23)
Injected flit rate average = 0.00998438
	minimum = 0.004 (at node 30)
	maximum = 0.0155 (at node 47)
Accepted flit rate average= 0.0100781
	minimum = 0.0055 (at node 15)
	maximum = 0.014 (at node 23)
Injected packet length average = 1
Accepted packet length average = 1
Total in-flight flits = 12 (12 measured)
latency change    = 0.0290375
throughput change = 0.0542636
Class 0:
Packet latency average = 33.3508
	minimum = 7
	maximum = 77
Network latency average = 33.3508
	minimum = 7
	maximum = 77
Slowest packet = 11508
Flit latency average = 33.4114
	minimum = 7
	maximum = 77
Slowest flit = 11508
Fragmentation average = 0
	minimum = 0
	maximum = 0
Injected packet rate average = 0.00990625
	minimum = 0.00566667 (at node 30)
	maximum = 0.0136667 (at node 47)
Accepted packet rate average = 0.0099375
	minimum = 0.00633333 (at node 7)
	maximum = 0.013 (at node 19)
Injected flit rate average = 0.00990625
	minimum = 0.00566667 (at node 30)
	maximum = 0.0136667 (at node 47)
Accepted flit rate average= 0.0099375
	minimum = 0.00633333 (at node 7)
	maximum = 0.013 (at node 19)
Injected packet length average = 1
Accepted packet length average = 1
Total in-flight flits = 18 (18 measured)
latency change    = 0.00116468
throughput change = 0.0141509
Class 0:
Packet latency average = 33.5715
	minimum = 7
	maximum = 77
Network latency average = 33.5715
	minimum = 7
	maximum = 77
Slowest packet = 11508
Flit latency average = 33.6148
	minimum = 7
	maximum = 77
Slowest flit = 11508
Fragmentation average = 0
	minimum = 0
	maximum = 0
Injected packet rate average = 0.00997656
	minimum = 0.00625 (at node 30)
	maximum = 0.014 (at node 47)
Accepted packet rate average = 0.00994922
	minimum = 0.007 (at node 36)
	maximum = 0.0135 (at node 1)
Injected flit rate average = 0.00997656
	minimum = 0.00625 (at node 30)
	maximum = 0.014 (at node 47)
Accepted flit rate average= 0.00994922
	minimum = 0.007 (at node 36)
	maximum = 0.0135 (at node 1)
Injected packet length average = 1
Accepted packet length average = 1
Total in-flight flits = 31 (31 measured)
latency change    = 0.0065738
throughput change = 0.00117786
Class 0:
Packet latency average = 33.4616
	minimum = 7
	maximum = 77
Network latency average = 33.4616
	minimum = 7
	maximum = 77
Slowest packet = 11508
Flit latency average = 33.4969
	minimum = 7
	maximum = 77
Slowest flit = 11508
Fragmentation average = 0
	minimum = 0
	maximum = 0
Injected packet rate average = 0.00999375
	minimum = 0.006 (at node 30)
	maximum = 0.0126 (at node 38)
Accepted packet rate average = 0.00999375
	minimum = 0.0074 (at node 36)
	maximum = 0.0132 (at node 6)
Injected flit rate average = 0.00999375
	minimum = 0.006 (at node 30)
	maximum = 0.0126 (at node 38)
Accepted flit rate average= 0.00999375
	minimum = 0.0074 (at node 36)
	maximum = 0.0132 (at node 6)
Injected packet length average = 1
Accepted packet length average = 1
Total in-flight flits = 24 (24 measured)
latency change    = 0.00328673
throughput change = 0.00445591
Draining all recorded packets ...
Draining remaining packets ...
Time taken is 8100 cycles
Class 0:
Packet latency average = 33.1357
	minimum = 7
	maximum = 77
Network latency average = 33.1357
	minimum = 7
	maximum = 77
Slowest packet = 13577
Flit latency average = 33.1357
	minimum = 7
	maximum = 77
Slowest flit = 13577
Fragmentation average = 0
	minimum = 0
	maximum = 0
Injected packet rate average = 0.0103125
	minimum = 0.002 (at node 59)
	maximum = 0.016 (at node 6)
Accepted packet rate average = 0.0100156
	minimum = 0.003 (at node 16)
	maximum = 0.017 (at node 47)
Injected flit rate average = 0.0103125
	minimum = 0.002 (at node 59)
	maximum = 0.016 (at node 6)
Accepted flit rate average= 0.0100156
	minimum = 0.003 (at node 16)
	maximum = 0.017 (at node 47)
Injected packet length average = 1
Accepted packet length average = 1
Total in-flight flits = 19 (0 measured)
latency change    = 1
throughput change = 1
Class 0:
Packet latency average = 33.1251
	minimum = 7
	maximum = 82
Network latency average = 33.1251
	minimum = 7
	maximum = 82
Slowest packet = 14621
Flit latency average = 33.1251
	minimum = 7
	maximum = 82
Slowest flit = 14621
Fragmentation average = 0
	minimum = 0
	maximum = 0
Injected packet rate average = 0.0100234
	minimum = 0.005 (at node 14)
	maximum = 0.0145 (at node 29)
Accepted packet rate average = 0.00986719
	minimum = 0.004 (at node 16)
	maximum = 0.014 (at node 13)
Injected flit rate average = 0.0100234
	minimum = 0.005 (at node 14)
	maximum = 0.0145 (at node 29)
Accepted flit rate average= 0.00986719
	minimum = 0.004 (at node 16)
	maximum = 0.014 (at node 13)
Injected packet length average = 1
Accepted packet length average = 1
Total in-flight flits = 20 (0 measured)
latency change    = 0.000320798
throughput change = 0.0150435
Class 0:
Packet latency average = 33.7585
	minimum = 7
	maximum = 79
Network latency average = 33.7585
	minimum = 7
	maximum = 79
Slowest packet = 14803
Flit latency average = 33.7585
	minimum = 7
	maximum = 79
Slowest flit = 14803
Fragmentation average = 0
	minimum = 0
	maximum = 0
Injected packet rate average = 0.00926562
	minimum = 0.002 (at node 12)
	maximum = 0.017 (at node 15)
Accepted packet rate average = 0.0091875
	minimum = 0.003 (at node 42)
	maximum = 0.018 (at node 49)
Injected flit rate average = 0.00926562
	minimum = 0.002 (at node 12)
	maximum = 0.017 (at node 15)
Accepted flit rate average= 0.0091875
	minimum = 0.003 (at node 42)
	maximum = 0.018 (at node 49)
Injected packet length average = 1
Accepted packet length average = 1
Total in-flight flits = 25 (0 measured)
latency change    = 0.0187628
throughput change = 0.0739796
Warmed up ...Time used is 3000 cycles
Class 0:
Packet latency average = 33.3235
	minimum = 7
	maximum = 72
Network latency average = 33.3235
	minimum = 7
	maximum = 72
Slowest packet = 15426
Flit latency average = 33.4129
	minimum = 7
	maximum = 72
Slowest flit = 15426
Fragmentation average = 0
	minimum = 0
	maximum = 0
Injected packet rate average = 0.00998438
	minimum = 0.003 (at node 0)
	maximum = 0.016 (at node 7)
Accepted packet rate average = 0.00995313
	minimum = 0.005 (at node 25)
	maximum = 0.02 (at node 10)
Injected flit rate average = 0.00998438
	minimum = 0.003 (at node 0)
	maximum = 0.016 (at node 7)
Accepted flit rate average= 0.00995313
	minimum = 0.005 (at node 25)
	maximum = 0.02 (at node 10)
Injected packet length average = 1
Accepted packet length average = 1
Total in-flight flits = 27 (27 measured)
latency change    = 0.0130531
throughput change = 0.0769231
Class 0:
Packet latency average = 33.5385
	minimum = 7
	maximum = 77
Network latency average = 33.5385
	minimum = 7
	maximum = 77
Slowest packet = 16259
Flit latency average = 33.5777
	minimum = 7
	maximum = 77
Slowest flit = 16259
Fragmentation average = 0
	minimum = 0
	maximum = 0
Injected packet rate average = 0.0102188
	minimum = 0.0065 (at node 12)
	maximum = 0.016 (at node 7)
Accepted packet rate average = 0.01025
	minimum = 0.004 (at node 32)
	maximum = 0.0165 (at node 46)
Injected flit rate average = 0.0102188
	minimum = 0.0065 (at node 12)
	maximum = 0.016 (at node 7)
Accepted flit rate average= 0.01025
	minimum = 0.004 (at node 32)
	maximum = 0.0165 (at node 46)
Injected packet length average = 1
Accepted packet length average = 1
Total in-flight flits = 21 (21 measured)
latency change    = 0.00640853
throughput change = 0.0289634
Class 0:
Packet latency average = 33.5643
	minimum = 7
	maximum = 77
Network latency average = 33.5643
	minimum = 7
	maximum = 77
Slowest packet = 16259
Flit latency average = 33.5899
	minimum = 7
	maximum = 77
Slowest flit = 16259
Fragmentation average = 0
	minimum = 0
	maximum = 0
Injected packet rate average = 0.0103125
	minimum = 0.006 (at node 45)
	maximum = 0.017 (at node 7)
Accepted packet rate average = 0.0103385
	minimum = 0.00633333 (at node 52)
	maximum = 0.015 (at node 44)
Injected flit rate average = 0.0103125
	minimum = 0.006 (at node 45)
	maximum = 0.017 (at node 7)
Accepted flit rate average= 0.0103385
	minimum = 0.00633333 (at node 52)
	maximum = 0.015 (at node 44)
Injected packet length average = 1
Accepted packet length average = 1
Total in-flight flits = 20 (20 measured)
latency change    = 0.000769394
throughput change = 0.00856423
Class 0:
Packet latency average = 33.4268
	minimum = 7
	maximum = 77
Network latency average = 33.4268
	minimum = 7
	maximum = 77
Slowest packet = 16259
Flit latency average = 33.4475
	minimum = 7
	maximum = 77
Slowest flit = 16259
Fragmentation average = 0
	minimum = 0
	maximum = 0
Injected packet rate average = 0.0102969
	minimum = 0.00625 (at node 45)
	maximum = 0.01425 (at node 7)
Accepted packet rate average = 0.0102656
	minimum = 0.00725 (at node 52)
	maximum = 0.014 (at node 3)
Injected flit rate average = 0.0102969
	minimum = 0.00625 (at node 45)
	maximum = 0.01425 (at node 7)
Accepted flit rate average= 0.0102656
	minimum = 0.00725 (at node 52)
	maximum = 0.014 (at node 3)
Injected packet length average = 1
Accepted packet length average = 1
Total in-flight flits = 33 (33 measured)
latency change    = 0.00411258
throughput change = 0.00710299
Draining all recorded packets ...
Draining remaining packets ...
Time taken is 7077 cycles
Class 0:
Packet latency average = 32.9007
	minimum = 7
	maximum = 72
Network latency average = 32.9007
	minimum = 7
	maximum = 72
Slowest packet = 18266
Flit latency average = 32.9007
	minimum = 7
	maximum = 72
Slowest flit = 18266
Fragmentation average = 0
	minimum = 0
	maximum = 0
Injected packet rate average = 0.00975
	minimum = 0.002 (at node 22)
	maximum = 0.021 (at node 43)
Accepted packet rate average = 0.0094375
	minimum = 0.004 (at node 57)
	maximum = 0.02 (at node 35)
Injected flit rate average = 0.00975
	minimum = 0.002 (at node 22)
	maximum = 0.021 (at node 43)
Accepted flit rate average= 0.0094375
	minimum = 0.004 (at node 57)
	maximum = 0.02 (at node 35)
Injected packet length average = 1
Accepted packet length average = 1
Total in-flight flits = 20 (0 measured)
latency change    = 1
throughput change = 1
Class 0:
Packet latency average = 32.9875
	minimum = 7
	maximum = 77
Network latency average = 32.9875
	minimum = 7
	maximum = 77
Slowest packet = 18942
Flit latency average = 32.9875
	minimum = 7
	maximum = 77
Slowest flit = 18942
Fragmentation average = 0
	minimum = 0
	maximum = 0
Injected packet rate average = 0.0101563
	minimum = 0.002 (at node 22)
	maximum = 0.016 (at node 12)
Accepted packet rate average = 0.00996875
	minimum = 0.006 (at node 28)
	maximum = 0.018 (at node 11)
Injected flit rate average = 0.0101563
	minimum = 0.002 (at node 22)
	maximum = 0.016 (at node 12)
Accepted flit rate average= 0.00996875
	minimum = 0.006 (at node 28)
	maximum = 0.018 (at node 11)
Injected packet length average = 1
Accepted packet length average = 1
Total in-flight flits = 24 (0 measured)
latency change    = 0.00263126
throughput change = 0.0532915
Class 0:
Packet latency average = 32.6969
	minimum = 7
	maximum = 77
Network latency average = 32.6969
	minimum = 7
	maximum = 77
Slowest packet = 19597
Flit latency average = 32.6969
	minimum = 7
	maximum = 77
Slowest flit = 19597
Fragmentation average = 0
	minimum = 0
	maximum = 0
Injected packet rate average = 0.00976562
	minimum = 0.004 (at node 58)
	maximum = 0.017 (at node 16)
Accepted packet rate average = 0.00964062
	minimum = 0.004 (at node 12)
	maximum = 0.018 (at node 8)
Injected flit rate average = 0.00976562
	minimum = 0.004 (at node 58)
	maximum = 0.017 (at node 16)
Accepted flit rate average= 0.00964062
	minimum = 0.004 (at node 12)
	maximum = 0.018 (at node 8)
Injected packet length average = 1
Accepted packet length average = 1
Total in-flight flits = 32 (0 measured)
latency change    = 0.00888586
throughput change = 0.0340357
Warmed up ...Time used is 3000 cycles
Class 0:
Packet latency average = 33.8861
	minimum = 7
	maximum = 77
Network latency average = 33.8861
	minimum = 7
	maximum = 77
Slowest packet = 20209
Flit latency average = 34.1551
	minimum = 7
	maximum = 77
Slowest flit = 20209
Fragmentation average = 0
	minimum = 0
	maximum = 0
Injected packet rate average = 0.0101563
	minimum = 0.003 (at node 23)
	maximum = 0.017 (at node 57)
Accepted packet rate average = 0.010375
	minimum = 0.005 (at node 24)
	maximum = 0.02 (at node 4)
Injected flit rate average = 0.0101563
	minimum = 0.003 (at node 23)
	maximum = 0.017 (at node 57)
Accepted flit rate average= 0.010375
	minimum = 0.005 (at node 24)
	maximum = 0.02 (at node 4)
Injected packet length average = 1
Accepted packet length average = 1
Total in-flight flits = 18 (18 measured)
latency change    = 0.0350927
throughput change = 0.0707831
Class 0:
Packet latency average = 33.2245
	minimum = 7
	maximum = 77
Network latency average = 33.2245
	minimum = 7
	maximum = 77
Slowest packet = 20209
Flit latency average = 33.3764
	minimum = 7
	maximum = 77
Slowest flit = 20209
Fragmentation average = 0
	minimum = 0
	maximum = 0
Injected packet rate average = 0.0101953
	minimum = 0.0045 (at node 25)
	maximum = 0.0165 (at node 36)
Accepted packet rate average = 0.0102734
	minimum = 0.005 (at node 49)
	maximum = 0.0165 (at node 30)
Injected flit rate average = 0.0101953
	minimum = 0.0045 (at node 25)
	maximum = 0.0165 (at node 36)
Accepted flit rate average= 0.0102734
	minimum = 0.005 (at node 49)
	maximum = 0.0165 (at node 30)
Injected packet length average = 1
Accepted packet length average = 1
Total in-flight flits = 22 (22 measured)
latency change    = 0.0199131
throughput change = 0.00988593
Class 0:
Packet latency average = 33.2247
	minimum = 7
	maximum = 77
Network latency average = 33.2247
	minimum = 7
	maximum = 77
Slowest packet = 20209
Flit latency average = 33.3278
	minimum = 7
	maximum = 77
Slowest flit = 20209
Fragmentation average = 0
	minimum = 0
	maximum = 0
Injected packet rate average = 0.0100365
	minimum = 0.00633333 (at node 60)
	maximum = 0.0153333 (at node 36)
Accepted packet rate average = 0.0100885
	minimum = 0.00633333 (at node 42)
	maximum = 0.014 (at node 52)
Injected flit rate average = 0.0100365
	minimum = 0.00633333 (at node 60)
	maximum = 0.0153333 (at node 36)
Accepted flit rate average= 0.0100885
	minimum = 0.00633333 (at node 42)
	maximum = 0.014 (at node 52)
Injected packet length average = 1
Accepted packet length average = 1
Total in-flight flits = 22 (22 measured)
latency change    = 5.96023e-06
throughput change = 0.0183273
Class 0:
Packet latency average = 33.1586
	minimum = 7
	maximum = 77
Network latency average = 33.1586
	minimum = 7
	maximum = 77
Slowest packet = 20209
Flit latency average = 33.2378
	minimum = 7
	maximum = 77
Slowest flit = 20209
Fragmentation average = 0
	minimum = 0
	maximum = 0
Injected packet rate average = 0.00989844
	minimum = 0.00675 (at node 60)
	maximum = 0.01325 (at node 36)
Accepted packet rate average = 0.00995313
	minimum = 0.0065 (at node 48)
	maximum = 0.0135 (at node 52)
Injected flit rate average = 0.00989844
	minimum = 0.00675 (at node 60)
	maximum = 0.01325 (at node 36)
Accepted flit rate average= 0.00995313
	minimum = 0.0065 (at node 48)
	maximum = 0.0135 (at node 52)
Injected packet length average = 1
Accepted packet length average = 1
Total in-flight flits = 18 (18 measured)
latency change    = 0.00199305
throughput change = 0.0136054
Draining all recorded packets ...
Draining remaining packets ...
Time taken is 7089 cycles
Class 0:
Packet latency average = 33.886
	minimum = 7
	maximum = 77
Network latency average = 33.886
	minimum = 7
	maximum = 77
Slowest packet = 22975
Flit latency average = 33.886
	minimum = 7
	maximum = 77
Slowest flit = 22975
Fragmentation average = 0
	minimum = 0
	maximum = 0
Injected packet rate average = 0.00995313
	minimum = 0.005 (at node 7)
	maximum = 0.017 (at node 31)
Accepted packet rate average = 0.00973437
	minimum = 0.002 (at node 60)
	maximum = 0.021 (at node 41)
Injected flit rate average = 0.00995313
	minimum = 0.005 (at node 7)
	maximum = 0.017 (at node 31)
Accepted flit rate average= 0.00973437
	minimum = 0.002 (at node 60)
	maximum = 0.021 (at node 41)
Injected packet length average = 1
Accepted packet length average = 1
Total in-flight flits = 14 (0 measured)
latency change    = 1
throughput change = 1
Class 0:
Packet latency average = 33.4889
	minimum = 7
	maximum = 77
Network latency average = 33.4889
	minimum = 7
	maximum = 77
Slowest packet = 22975
Flit latency average = 33.4889
	minimum = 7
	maximum = 77
Slowest flit = 22975
Fragmentation average = 0
	minimum = 0
	maximum = 0
Injected packet rate average = 0.010375
	minimum = 0.0055 (at node 55)
	maximum = 0.0155 (at node 31)
Accepted packet rate average = 0.0102422
	minimum = 0.0035 (at node 3)
	maximum = 0.017 (at node 41)
Injected flit rate average = 0.010375
	minimum = 0.0055 (at node 55)
	maximum = 0.0155 (at node 31)
Accepted flit rate average= 0.0102422
	minimum = 0.0035 (at node 3)
	maximum = 0.017 (at node 41)
Injected packet length average = 1
Accepted packet length average = 1
Total in-flight flits = 17 (0 measured)
latency change    = 0.0118575
throughput change = 0.0495805
Class 0:
Packet latency average = 33.0992
	minimum = 7
	maximum = 72
Network latency average = 33.0992
	minimum = 7
	maximum = 72
Slowest packet = 23816
Flit latency average = 33.0992
	minimum = 7
	maximum = 72
Slowest flit = 23816
Fragmentation average = 0
	minimum = 0
	maximum = 0
Injected packet rate average = 0.00965625
	minimum = 0.004 (at node 49)
	maximum = 0.016 (at node 50)
Accepted packet rate average = 0.00960937
	minimum = 0.002 (at node 22)
	maximum = 0.018 (at node 48)
Injected flit rate average = 0.00965625
	minimum = 0.004 (at node 49)
	maximum = 0.016 (at node 50)
Accepted flit rate average= 0.00960937
	minimum = 0.002 (at node 22)
	maximum = 0.018 (at node 48)
Injected packet length average = 1
Accepted packet length average = 1
Total in-flight flits = 20 (0 measured)
latency change    = 0.0117753
throughput change = 0.0658537
Warmed up ...Time used is 3000 cycles
Class 0:
Packet latency average = 33.3439
	minimum = 7
	maximum = 76
Network latency average = 33.3439
	minimum = 7
	maximum = 76
Slowest packet = 24901
Flit latency average = 33.4637
	minimum = 7
	maximum = 76
Slowest flit = 24901
Fragmentation average = 0
	minimum = 0
	maximum = 0
Injected packet rate average = 0.00975
	minimum = 0.002 (at node 39)
	maximum = 0.018 (at node 14)
Accepted packet rate average = 0.00967187
	minimum = 0.006 (at node 7)
	maximum = 0.015 (at node 3)
Injected flit rate average = 0.00975
	minimum = 0.002 (at node 39)
	maximum = 0.018 (at node 14)
Accepted flit rate average= 0.00967187
	minimum = 0.006 (at node 7)
	maximum = 0.015 (at node 3)
Injected packet length average = 1
Accepted packet length average = 1
Total in-flight flits = 25 (25 measured)
latency change    = 0.00733926
throughput change = 0.00646204
Class 0:
Packet latency average = 33.0226
	minimum = 7
	maximum = 77
Network latency average = 33.0226
	minimum = 7
	maximum = 77
Slowest packet = 25193
Flit latency average = 33.0867
	minimum = 7
	maximum = 77
Slowest flit = 25193
Fragmentation average = 0
	minimum = 0
	maximum = 0
Injected packet rate average = 0.00985938
	minimum = 0.004 (at node 22)
	maximum = 0.0155 (at node 27)
Accepted packet rate average = 0.00982031
	minimum = 0.005 (at node 7)
	maximum = 0.0155 (at node 6)
Injected flit rate average = 0.00985938
	minimum = 0.004 (at node 22)
	maximum = 0.0155 (at node 27)
Accepted flit rate average= 0.00982031
	minimum = 0.005 (at node 7)
	maximum = 0.0155 (at node 6)
Injected packet length average = 1
Accepted packet length average = 1
Total in-flight flits = 25 (25 measured)
latency change    = 0.00972881
throughput change = 0.0151154
Class 0:
Packet latency average = 32.9921
	minimum = 7
	maximum = 77
Network latency average = 32.9921
	minimum = 7
	maximum = 77
Slowest packet = 25193
Flit latency average = 33.0343
	minimum = 7
	maximum = 77
Slowest flit = 25193
Fragmentation average = 0
	minimum = 0
	maximum = 0
Injected packet rate average = 0.0100208
	minimum = 0.00466667 (at node 39)
	maximum = 0.016 (at node 33)
Accepted packet rate average = 0.010026
	minimum = 0.006 (at node 7)
	maximum = 0.016 (at node 6)
Injected flit rate average = 0.0100208
	minimum = 0.00466667 (at node 39)
	maximum = 0.016 (at node 33)
Accepted flit rate average= 0.010026
	minimum = 0.006 (at node 7)
	maximum = 0.016 (at node 6)
Injected packet length average = 1
Accepted packet length average = 1
Total in-flight flits = 19 (19 measured)
latency change    = 0.000924749
throughput change = 0.0205195
Draining all recorded packets ...
Draining remaining packets ...
Time taken is 6111 cycles
Class 0:
Packet latency average = 33.202
	minimum = 7
	maximum = 77
Network latency average = 33.202
	minimum = 7
	maximum = 77
Slowest packet = 26701
Flit latency average = 33.202
	minimum = 7
	maximum = 77
Slowest flit = 26701
Fragmentation average = 0
	minimum = 0
	maximum = 0
Injected packet rate average = 0.0099375
	minimum = 0.003 (at node 15)
	maximum = 0.019 (at node 38)
Accepted packet rate average = 0.00959375
	minimum = 0.003 (at node 54)
	maximum = 0.02 (at node 22)
Injected flit rate average = 0.0099375
	minimum = 0.003 (at node 15)
	maximum = 0.019 (at node 38)
Accepted flit rate average= 0.00959375
	minimum = 0.003 (at node 54)
	maximum = 0.02 (at node 22)
Injected packet length average = 1
Accepted packet length average = 1
Total in-flight flits = 22 (0 measured)
latency change    = 1
throughput change = 1
Class 0:
Packet latency average = 33.0955
	minimum = 7
	maximum = 77
Network latency average = 33.0955
	minimum = 7
	maximum = 77
Slowest packet = 26701
Flit latency average = 33.0955
	minimum = 7
	maximum = 77
Slowest flit = 26701
Fragmentation average = 0
	minimum = 0
	maximum = 0
Injected packet rate average = 0.00996875
	minimum = 0.0045 (at node 15)
	maximum = 0.016 (at node 38)
Accepted packet rate average = 0.00982031
	minimum = 0.0045 (at node 38)
	maximum = 0.0155 (at node 53)
Injected flit rate average = 0.00996875
	minimum = 0.0045 (at node 15)
	maximum = 0.016 (at node 38)
Accepted flit rate average= 0.00982031
	minimum = 0.0045 (at node 38)
	maximum = 0.0155 (at node 53)
Injected packet length average = 1
Accepted packet length average = 1
Total in-flight flits = 19 (0 measured)
latency change    = 0.00321763
throughput change = 0.0230708
Class 0:
Packet latency average = 33.0899
	minimum = 7
	maximum = 77
Network latency average = 33.0899
	minimum = 7
	maximum = 77
Slowest packet = 28235
Flit latency average = 33.0899
	minimum = 7
	maximum = 77
Slowest flit = 28235
Fragmentation average = 0
	minimum = 0
	maximum = 0
Injected packet rate average = 0.0100625
	minimum = 0.004 (at node 11)
	maximum = 0.015 (at node 52)
Accepted packet rate average = 0.0100781
	minimum = 0.004 (at node 57)
	maximum = 0.016 (at node 9)
Injected flit rate average = 0.0100625
	minimum = 0.004 (at node 11)
	maximum = 0.015 (at node 52)
Accepted flit rate average= 0.0100781
	minimum = 0.004 (at node 57)
	maximum = 0.016 (at node 9)
Injected packet length average = 1
Accepted packet length average = 1
Total in-flight flits = 18 (0 measured)
latency change    = 0.000167511
throughput change = 0.0255814
Warmed up ...Time used is 3000 cycles
Class 0:
Packet latency average = 34.4231
	minimum = 7
	maximum = 72
Network latency average = 34.4231
	minimum = 7
	maximum = 72
Slowest packet = 28515
Flit latency average = 34.4494
	minimum = 7
	maximum = 72
Slowest flit = 28289
Fragmentation average = 0
	minimum = 0
	maximum = 0
Injected packet rate average = 0.0099375
	minimum = 0.004 (at node 61)
	maximum = 0.017 (at node 43)
Accepted packet rate average = 0.00973437
	minimum = 0.003 (at node 0)
	maximum = 0.022 (at node 13)
Injected flit rate average = 0.0099375
	minimum = 0.004 (at node 61)
	maximum = 0.017 (at node 43)
Accepted flit rate average= 0.00973437
	minimum = 0.003 (at node 0)
	maximum = 0.022 (at node 13)
Injected packet length average = 1
Accepted packet length average = 1
Total in-flight flits = 31 (31 measured)
latency change    = 0.0387303
throughput change = 0.035313
Class 0:
Packet latency average = 34.0777
	minimum = 7
	maximum = 77
Network latency average = 34.0777
	minimum = 7
	maximum = 77
Slowest packet = 29120
Flit latency average = 34.0945
	minimum = 7
	maximum = 77
Slowest flit = 29120
Fragmentation average = 0
	minimum = 0
	maximum = 0
Injected packet rate average = 0.0105078
	minimum = 0.0045 (at node 18)
	maximum = 0.015 (at node 48)
Accepted packet rate average = 0.0105
	minimum = 0.006 (at node 55)
	maximum = 0.0195 (at node 13)
Injected flit rate average = 0.0105078
	minimum = 0.0045 (at node 18)
	maximum = 0.015 (at node 48)
Accepted flit rate average= 0.0105
	minimum = 0.006 (at node 55)
	maximum = 0.0195 (at node 13)
Injected packet length average = 1
Accepted packet length average = 1
Total in-flight flits = 19 (19 measured)
latency change    = 0.0101375
throughput change = 0.0729167
Class 0:
Packet latency average = 33.9184
	minimum = 7
	maximum = 77
Network latency average = 33.9184
	minimum = 7
	maximum = 77
Slowest packet = 29120
Flit latency average = 33.9309
	minimum = 7
	maximum = 77
Slowest flit = 29120
Fragmentation average = 0
	minimum = 0
	maximum = 0
Injected packet rate average = 0.010625
	minimum = 0.007 (at node 32)
	maximum = 0.0143333 (at node 25)
Accepted packet rate average = 0.0106302
	minimum = 0.00566667 (at node 48)
	maximum = 0.0173333 (at node 13)
Injected flit rate average = 0.010625
	minimum = 0.007 (at node 32)
	maximum = 0.0143333 (at node 25)
Accepted flit rate average= 0.0106302
	minimum = 0.00566667 (at node 48)
	maximum = 0.0173333 (at node 13)
Injected packet length average = 1
Accepted packet length average = 1
Total in-flight flits = 17 (17 measured)
latency change    = 0.00469477
throughput change = 0.0122489
Class 0:
Packet latency average = 34.0467
	minimum = 7
	maximum = 77
Network latency average = 34.0467
	minimum = 7
	maximum = 77
Slowest packet = 29120
Flit latency average = 34.0555
	minimum = 7
	maximum = 77
Slowest flit = 29120
Fragmentation average = 0
	minimum = 0
	maximum = 0
Injected packet rate average = 0.0103008
	minimum = 0.007 (at node 31)
	maximum = 0.014 (at node 25)
Accepted packet rate average = 0.0102852
	minimum = 0.0055 (at node 28)
	maximum = 0.0155 (at node 13)
Injected flit rate average = 0.0103008
	minimum = 0.007 (at node 31)
	maximum = 0.014 (at node 25)
Accepted flit rate average= 0.0102852
	minimum = 0.0055 (at node 28)
	maximum = 0.0155 (at node 13)
Injected packet length average = 1
Accepted packet length average = 1
Total in-flight flits = 22 (22 measured)
latency change    = 0.00376589
throughput change = 0.0335486
Class 0:
Packet latency average = 34.0827
	minimum = 7
	maximum = 77
Network latency average = 34.0827
	minimum = 7
	maximum = 77
Slowest packet = 29120
Flit latency average = 34.0896
	minimum = 7
	maximum = 77
Slowest flit = 29120
Fragmentation average = 0
	minimum = 0
	maximum = 0
Injected packet rate average = 0.0102625
	minimum = 0.0062 (at node 31)
	maximum = 0.0134 (at node 22)
Accepted packet rate average = 0.0102531
	minimum = 0.0054 (at node 48)
	maximum = 0.0144 (at node 13)
Injected flit rate average = 0.0102625
	minimum = 0.0062 (at node 31)
	maximum = 0.0134 (at node 22)
Accepted flit rate average= 0.0102531
	minimum = 0.0054 (at node 48)
	maximum = 0.0144 (at node 13)
Injected packet length average = 1
Accepted packet length average = 1
Total in-flight flits = 21 (21 measured)
latency change    = 0.00105895
throughput change = 0.00312405
Draining all recorded packets ...
Draining remaining packets ...
Time taken is 8120 cycles
Class 0:
Packet latency average = 32.6596
	minimum = 7
	maximum = 72
Network latency average = 32.6596
	minimum = 7
	maximum = 72
Slowest packet = 31902
Flit latency average = 32.6596
	minimum = 7
	maximum = 72
Slowest flit = 31902
Fragmentation average = 0
	minimum = 0
	maximum = 0
Injected packet rate average = 0.0093125
	minimum = 0.004 (at node 43)
	maximum = 0.017 (at node 39)
Accepted packet rate average = 0.00890625
	minimum = 0.002 (at node 54)
	maximum = 0.016 (at node 51)
Injected flit rate average = 0.0093125
	minimum = 0.004 (at node 43)
	maximum = 0.017 (at node 39)
Accepted flit rate average= 0.00890625
	minimum = 0.002 (at node 54)
	maximum = 0.016 (at node 51)
Injected packet length average = 1
Accepted packet length average = 1
Total in-flight flits = 26 (0 measured)
latency change    = 1
throughput change = 1
Class 0:
Packet latency average = 33.0235
	minimum = 7
	maximum = 73
Network latency average = 33.0235
	minimum = 7
	maximum = 73
Slowest packet = 32239
Flit latency average = 33.0235
	minimum = 7
	maximum = 73
Slowest flit = 32239
Fragmentation average = 0
	minimum = 0
	maximum = 0
Injected packet rate average = 0.00947656
	minimum = 0.006 (at node 11)
	maximum = 0.0145 (at node 57)
Accepted packet rate average = 0.00932031
	minimum = 0.0045 (at node 23)
	maximum = 0.014 (at node 30)
Injected flit rate average = 0.00947656
	minimum = 0.006 (at node 11)
	maximum = 0.0145 (at node 57)
Accepted flit rate average= 0.00932031
	minimum = 0.0045 (at node 23)
	maximum = 0.014 (at node 30)
Injected packet length average = 1
Accepted packet length average = 1
Total in-flight flits = 20 (0 measured)
latency change    = 0.011017
throughput change = 0.0444258
Class 0:
Packet latency average = 33.543
	minimum = 7
	maximum = 76
Network latency average = 33.543
	minimum = 7
	maximum = 76
Slowest packet = 32946
Flit latency average = 33.543
	minimum = 7
	maximum = 76
Slowest flit = 32946
Fragmentation average = 0
	minimum = 0
	maximum = 0
Injected packet rate average = 0.00953125
	minimum = 0.004 (at node 17)
	maximum = 0.015 (at node 2)
Accepted packet rate average = 0.0094375
	minimum = 0.002 (at node 8)
	maximum = 0.017 (at node 61)
Injected flit rate average = 0.00953125
	minimum = 0.004 (at node 17)
	maximum = 0.015 (at node 2)
Accepted flit rate average= 0.0094375
	minimum = 0.002 (at node 8)
	maximum = 0.017 (at node 61)
Injected packet length average = 1
Accepted packet length average = 1
Total in-flight flits = 26 (0 measured)
latency change    = 0.0154898
throughput change = 0.0124172
Warmed up ...Time used is 3000 cycles
Class 0:
Packet latency average = 32.5882
	minimum = 7
	maximum = 72
Network latency average = 32.5882
	minimum = 7
	maximum = 72
Slowest packet = 33848
Flit latency average = 32.9091
	minimum = 7
	maximum = 72
Slowest flit = 33848
Fragmentation average = 0
	minimum = 0
	maximum = 0
Injected packet rate average = 0.00984375
	minimum = 0.003 (at node 4)
	maximum = 0.016 (at node 22)
Accepted packet rate average = 0.00996875
	minimum = 0.005 (at node 14)
	maximum = 0.019 (at node 11)
Injected flit rate average = 0.00984375
	minimum = 0.003 (at node 4)
	maximum = 0.016 (at node 22)
Accepted flit rate average= 0.00996875
	minimum = 0.005 (at node 14)
	maximum = 0.019 (at node 11)
Injected packet length average = 1
Accepted packet length average = 1
Total in-flight flits = 18 (18 measured)
latency change    = 0.0292993
throughput change = 0.0532915
Class 0:
Packet latency average = 33.3215
	minimum = 7
	maximum = 72
Network latency average = 33.3215
	minimum = 7
	maximum = 72
Slowest packet = 33848
Flit latency average = 33.4652
	minimum = 7
	maximum = 72
Slowest flit = 33848
Fragmentation average = 0
	minimum = 0
	maximum = 0
Injected packet rate average = 0.0100234
	minimum = 0.005 (at node 51)
	maximum = 0.015 (at node 36)
Accepted packet rate average = 0.0100938
	minimum = 0.0045 (at node 40)
	maximum = 0.0155 (at node 3)
Injected flit rate average = 0.0100234
	minimum = 0.005 (at node 51)
	maximum = 0.015 (at node 36)
Accepted flit rate average= 0.0100938
	minimum = 0.0045 (at node 40)
	maximum = 0.0155 (at node 3)
Injected packet length average = 1
Accepted packet length average = 1
Total in-flight flits = 17 (17 measured)
latency change    = 0.0220053
throughput change = 0.0123839
Class 0:
Packet latency average = 33.4948
	minimum = 7
	maximum = 72
Network latency average = 33.4948
	minimum = 7
	maximum = 72
Slowest packet = 33848
Flit latency average = 33.5876
	minimum = 7
	maximum = 72
Slowest flit = 33848
Fragmentation average = 0
	minimum = 0
	maximum = 0
Injected packet rate average = 0.0101302
	minimum = 0.005 (at node 51)
	maximum = 0.014 (at node 36)
Accepted packet rate average = 0.0101667
	minimum = 0.00666667 (at node 14)
	maximum = 0.0143333 (at node 10)
Injected flit rate average = 0.0101302
	minimum = 0.005 (at node 51)
	maximum = 0.014 (at node 36)
Accepted flit rate average= 0.0101667
	minimum = 0.00666667 (at node 14)
	maximum = 0.0143333 (at node 10)
Injected packet length average = 1
Accepted packet length average = 1
Total in-flight flits = 19 (19 measured)
latency change    = 0.00517462
throughput change = 0.00717213
Class 0:
Packet latency average = 33.5106
	minimum = 7
	maximum = 72
Network latency average = 33.5106
	minimum = 7
	maximum = 72
Slowest packet = 33848
Flit latency average = 33.5806
	minimum = 7
	maximum = 72
Slowest flit = 33848
Fragmentation average = 0
	minimum = 0
	maximum = 0
Injected packet rate average = 0.010043
	minimum = 0.006 (at node 51)
	maximum = 0.0135 (at node 36)
Accepted packet rate average = 0.0100859
	minimum = 0.00775 (at node 0)
	maximum = 0.014 (at node 3)
Injected flit rate average = 0.010043
	minimum = 0.006 (at node 51)
	maximum = 0.0135 (at node 36)
Accepted flit rate average= 0.0100859
	minimum = 0.00775 (at node 0)
	maximum = 0.014 (at node 3)
Injected packet length average = 1
Accepted packet length average = 1
Total in-flight flits = 15 (15 measured)
latency change    = 0.000470165
throughput change = 0.00800413
Draining all recorded packets ...
Draining remaining packets ...
Time taken is 7127 cycles
Class 0:
Packet latency average = 33.2582
	minimum = 7
	maximum = 81
Network latency average = 33.2582
	minimum = 7
	maximum = 81
Slowest packet = 36576
Flit latency average = 33.2582
	minimum = 7
	maximum = 81
Slowest flit = 36576
Fragmentation average = 0
	minimum = 0
	maximum = 0
Injected packet rate average = 0.0102969
	minimum = 0.003 (at node 28)
	maximum = 0.016 (at node 0)
Accepted packet rate average = 0.00998438
	minimum = 0.004 (at node 12)
	maximum = 0.016 (at node 3)
Injected flit rate average = 0.0102969
	minimum = 0.003 (at node 28)
	maximum = 0.016 (at node 0)
Accepted flit rate average= 0.00998438
	minimum = 0.004 (at node 12)
	maximum = 0.016 (at node 3)
Injected packet length average = 1
Accepted packet length average = 1
Total in-flight flits = 20 (0 measured)
latency change    = 1
throughput change = 1
Class 0:
Packet latency average = 33.5882
	minimum = 7
	maximum = 81
Network latency average = 33.5882
	minimum = 7
	maximum = 81
Slowest packet = 36576
Flit latency average = 33.5882
	minimum = 7
	maximum = 81
Slowest flit = 36576
Fragmentation average = 0
	minimum = 0
	maximum = 0
Injected packet rate average = 0.0102188
	minimum = 0.0065 (at node 2)
	maximum = 0.016 (at node 30)
Accepted packet rate average = 0.0100547
	minimum = 0.0045 (at node 21)
	maximum = 0.0145 (at node 16)
Injected flit rate average = 0.0102188
	minimum = 0.0065 (at node 2)
	maximum = 0.016 (at node 30)
Accepted flit rate average= 0.0100547
	minimum = 0.0045 (at node 21)
	maximum = 0.0145 (at node 16)
Injected packet length average = 1
Accepted packet length average = 1
Total in-flight flits = 21 (0 measured)
latency change    = 0.0098241
throughput change = 0.00699301
Class 0:
Packet latency average = 32.5038
	minimum = 7
	maximum = 72
Network latency average = 32.5038
	minimum = 7
	maximum = 72
Slowest packet = 37743
Flit latency average = 32.5038
	minimum = 7
	maximum = 72
Slowest flit = 37743
Fragmentation average = 0
	minimum = 0
	maximum = 0
Injected packet rate average = 0.0103438
	minimum = 0.003 (at node 32)
	maximum = 0.019 (at node 5)
Accepted packet rate average = 0.0103594
	minimum = 0.004 (at node 6)
	maximum = 0.017 (at node 14)
Injected flit rate average = 0.0103438
	minimum = 0.003 (at node 32)
	maximum = 0.019 (at node 5)
Accepted flit rate average= 0.0103594
	minimum = 0.004 (at node 6)
	maximum = 0.017 (at node 14)
Injected packet length average = 1
Accepted packet length average = 1
Total in-flight flits = 20 (0 measured)
latency change    = 0.0333629
throughput change = 0.0294118
Warmed up ...Time used is 3000 cycles
Class 0:
Packet latency average = 32.9364
	minimum = 7
	maximum = 72
Network latency average = 32.9364
	minimum = 7
	maximum = 72
Slowest packet = 38354
Flit latency average = 33.1359
	minimum = 7
	maximum = 72
Slowest flit = 38036
Fragmentation average = 0
	minimum = 0
	maximum = 0
Injected packet rate average = 0.00982813
	minimum = 0.004 (at node 55)
	maximum = 0.017 (at node 31)
Accepted packet rate average = 0.00989063
	minimum = 0.004 (at node 0)
	maximum = 0.018 (at node 58)
Injected flit rate average = 0.00982813
	minimum = 0.004 (at node 55)
	maximum = 0.017 (at node 31)
Accepted flit rate average= 0.00989063
	minimum = 0.004 (at node 0)
	maximum = 0.018 (at node 58)
Injected packet length average = 1
Accepted packet length average = 1
Total in-flight flits = 16 (16 measured)
latency change    = 0.0131346
throughput change = 0.0473934
Class 0:
Packet latency average = 33.4075
	minimum = 7
	maximum = 73
Network latency average = 33.4075
	minimum = 7
	maximum = 73
Slowest packet = 38835
Flit latency average = 33.5016
	minimum = 7
	maximum = 73
Slowest flit = 38835
Fragmentation average = 0
	minimum = 0
	maximum = 0
Injected packet rate average = 0.00973437
	minimum = 0.0045 (at node 37)
	maximum = 0.014 (at node 60)
Accepted packet rate average = 0.00970312
	minimum = 0.0055 (at node 61)
	maximum = 0.014 (at node 27)
Injected flit rate average = 0.00973437
	minimum = 0.0045 (at node 37)
	maximum = 0.014 (at node 60)
Accepted flit rate average= 0.00970312
	minimum = 0.0055 (at node 61)
	maximum = 0.014 (at node 27)
Injected packet length average = 1
Accepted packet length average = 1
Total in-flight flits = 24 (24 measured)
latency change    = 0.0141031
throughput change = 0.0193237
Class 0:
Packet latency average = 33.5215
	minimum = 7
	maximum = 73
Network latency average = 33.5215
	minimum = 7
	maximum = 73
Slowest packet = 38835
Flit latency average = 33.5811
	minimum = 7
	maximum = 73
Slowest flit = 38835
Fragmentation average = 0
	minimum = 0
	maximum = 0
Injected packet rate average = 0.0100573
	minimum = 0.005 (at node 37)
	maximum = 0.0133333 (at node 31)
Accepted packet rate average = 0.0100208
	minimum = 0.00666667 (at node 46)
	maximum = 0.013 (at node 56)
Injected flit rate average = 0.0100573
	minimum = 0.005 (at node 37)
	maximum = 0.0133333 (at node 31)
Accepted flit rate average= 0.0100208
	minimum = 0.00666667 (at node 46)
	maximum = 0.013 (at node 56)
Injected packet length average = 1
Accepted packet length average = 1
Total in-flight flits = 27 (27 measured)
latency change    = 0.00340095
throughput change = 0.0317048
Draining all recorded packets ...
Draining remaining packets ...
Time taken is 6087 cycles
Class 0:
Packet latency average = 33.0499
	minimum = 7
	maximum = 77
Network latency average = 33.0499
	minimum = 7
	maximum = 77
Slowest packet = 40064
Flit latency average = 33.0499
	minimum = 7
	maximum = 77
Slowest flit = 40064
Fragmentation average = 0
	minimum = 0
	maximum = 0
Injected packet rate average = 0.0106563
	minimum = 0.003 (at node 56)
	maximum = 0.018 (at node 8)
Accepted packet rate average = 0.0103281
	minimum = 0.005 (at node 1)
	maximum = 0.02 (at node 33)
Injected flit rate average = 0.0106563
	minimum = 0.003 (at node 56)
	maximum = 0.018 (at node 8)
Accepted flit rate average= 0.0103281
	minimum = 0.005 (at node 1)
	maximum = 0.02 (at node 33)
Injected packet length average = 1
Accepted packet length average = 1
Total in-flight flits = 21 (0 measured)
latency change    = 1
throughput change = 1
Class 0:
Packet latency average = 32.8049
	minimum = 7
	maximum = 77
Network latency average = 32.8049
	minimum = 7
	maximum = 77
Slowest packet = 40064
Flit latency average = 32.8049
	minimum = 7
	maximum = 77
Slowest flit = 40064
Fragmentation average = 0
	minimum = 0
	maximum = 0
Injected packet rate average = 0.0101328
	minimum = 0.006 (at node 7)
	maximum = 0.0165 (at node 44)
Accepted packet rate average = 0.00992969
	minimum = 0.006 (at node 1)
	maximum = 0.015 (at node 33)
Injected flit rate average = 0.0101328
	minimum = 0.006 (at node 7)
	maximum = 0.0165 (at node 44)
Accepted flit rate average= 0.00992969
	minimum = 0.006 (at node 1)
	maximum = 0.015 (at node 33)
Injected packet length average = 1
Accepted packet length average = 1
Total in-flight flits = 26 (0 measured)
latency change    = 0.00746981
throughput change = 0.0401259
Class 0:
Packet latency average = 33.7884
	minimum = 7
	maximum = 73
Network latency average = 33.7884
	minimum = 7
	maximum = 73
Slowest packet = 41530
Flit latency average = 33.7884
	minimum = 7
	maximum = 73
Slowest flit = 41530
Fragmentation average = 0
	minimum = 0
	maximum = 0
Injected packet rate average = 0.0101875
	minimum = 0.003 (at node 54)
	maximum = 0.022 (at node 29)
Accepted packet rate average = 0.0102656
	minimum = 0.003 (at node 28)
	maximum = 0.017 (at node 8)
Injected flit rate average = 0.0101875
	minimum = 0.003 (at node 54)
	maximum = 0.022 (at node 29)
Accepted flit rate average= 0.0102656
	minimum = 0.003 (at node 28)
	maximum = 0.017 (at node 8)
Injected packet length average = 1
Accepted packet length average = 1
Total in-flight flits = 21 (0 measured)
latency change    = 0.0291092
throughput change = 0.0327245
Warmed up ...Time used is 3000 cycles
Class 0:
Packet latency average = 33.7343
	minimum = 7
	maximum = 77
Network latency average = 33.7343
	minimum = 7
	maximum = 77
Slowest packet = 42502
Flit latency average = 33.6256
	minimum = 7
	maximum = 77
Slowest flit = 42502
Fragmentation average = 0
	minimum = 0
	maximum = 0
Injected packet rate average = 0.0104063
	minimum = 0.004 (at node 41)
	maximum = 0.021 (at node 61)
Accepted packet rate average = 0.0102656
	minimum = 0.005 (at node 16)
	maximum = 0.017 (at node 25)
Injected flit rate average = 0.0104063
	minimum = 0.004 (at node 41)
	maximum = 0.021 (at node 61)
Accepted flit rate average= 0.0102656
	minimum = 0.005 (at node 16)
	maximum = 0.017 (at node 25)
Injected packet length average = 1
Accepted packet length average = 1
Total in-flight flits = 30 (30 measured)
latency change    = 0.00160536
throughput change = 0
Class 0:
Packet latency average = 33.559
	minimum = 7
	maximum = 77
Network latency average = 33.559
	minimum = 7
	maximum = 77
Slowest packet = 42502
Flit latency average = 33.5073
	minimum = 7
	maximum = 77
Slowest flit = 42502
Fragmentation average = 0
	minimum = 0
	maximum = 0
Injected packet rate average = 0.0101875
	minimum = 0.006 (at node 38)
	maximum = 0.015 (at node 61)
Accepted packet rate average = 0.0102266
	minimum = 0.006 (at node 43)
	maximum = 0.016 (at node 50)
Injected flit rate average = 0.0101875
	minimum = 0.006 (at node 38)
	maximum = 0.015 (at node 61)
Accepted flit rate average= 0.0102266
	minimum = 0.006 (at node 43)
	maximum = 0.016 (at node 50)
Injected packet length average = 1
Accepted packet length average = 1
Total in-flight flits = 16 (16 measured)
latency change    = 0.00522276
throughput change = 0.00381971
Class 0:
Packet latency average = 33.6567
	minimum = 7
	maximum = 77
Network latency average = 33.6567
	minimum = 7
	maximum = 77
Slowest packet = 42502
Flit latency average = 33.6209
	minimum = 7
	maximum = 77
Slowest flit = 42502
Fragmentation average = 0
	minimum = 0
	maximum = 0
Injected packet rate average = 0.0101875
	minimum = 0.00633333 (at node 38)
	maximum = 0.0136667 (at node 17)
Accepted packet rate average = 0.0101667
	minimum = 0.00666667 (at node 30)
	maximum = 0.014 (at node 25)
Injected flit rate average = 0.0101875
	minimum = 0.00633333 (at node 38)
	maximum = 0.0136667 (at node 17)
Accepted flit rate average= 0.0101667
	minimum = 0.00666667 (at node 30)
	maximum = 0.014 (at node 25)
Injected packet length average = 1
Accepted packet length average = 1
Total in-flight flits = 25 (25 measured)
latency change    = 0.00290131
throughput change = 0.00589139
Draining all recorded packets ...
Draining remaining packets ...
Time taken is 6083 cycles
Class 0:
Packet latency average = 32.8735
	minimum = 7
	maximum = 67
Network latency average = 32.8735
	minimum = 7
	maximum = 67
Slowest packet = 43998
Flit latency average = 32.8735
	minimum = 7
	maximum = 67
Slowest flit = 43998
Fragmentation average = 0
	minimum = 0
	maximum = 0
Injected packet rate average = 0.00960937
	minimum = 0.004 (at node 11)
	maximum = 0.017 (at node 44)
Accepted packet rate average = 0.00926562
	minimum = 0.003 (at node 5)
	maximum = 0.018 (at node 8)
Injected flit rate average = 0.00960937
	minimum = 0.004 (at node 11)
	maximum = 0.017 (at node 44)
Accepted flit rate average= 0.00926562
	minimum = 0.003 (at node 5)
	maximum = 0.018 (at node 8)
Injected packet length average = 1
Accepted packet length average = 1
Total in-flight flits = 22 (0 measured)
latency change    = 1
throughput change = 1
Class 0:
Packet latency average = 32.9303
	minimum = 7
	maximum = 72
Network latency average = 32.9303
	minimum = 7
	maximum = 72
Slowest packet = 44537
Flit latency average = 32.9303
	minimum = 7
	maximum = 72
Slowest flit = 44537
Fragmentation average = 0
	minimum = 0
	maximum = 0
Injected packet rate average = 0.0099375
	minimum = 0.0055 (at node 53)
	maximum = 0.0145 (at node 46)
Accepted packet rate average = 0.00975
	minimum = 0.005 (at node 5)
	maximum = 0.0145 (at node 16)
Injected flit rate average = 0.0099375
	minimum = 0.0055 (at node 53)
	maximum = 0.0145 (at node 46)
Accepted flit rate average= 0.00975
	minimum = 0.005 (at node 5)
	maximum = 0.0145 (at node 16)
Injected packet length average = 1
Accepted packet length average = 1
Total in-flight flits = 24 (0 measured)
latency change    = 0.00172376
throughput change = 0.0496795
Class 0:
Packet latency average = 33.8637
	minimum = 7
	maximum = 77
Network latency average = 33.8637
	minimum = 7
	maximum = 77
Slowest packet = 45383
Flit latency average = 33.8637
	minimum = 7
	maximum = 77
Slowest flit = 45383
Fragmentation average = 0
	minimum = 0
	maximum = 0
Injected packet rate average = 0.00982813
	minimum = 0.004 (at node 55)
	maximum = 0.02 (at node 10)
Accepted packet rate average = 0.00985938
	minimum = 0.002 (at node 6)
	maximum = 0.019 (at node 18)
Injected flit rate average = 0.00982813
	minimum = 0.004 (at node 55)
	maximum = 0.02 (at node 10)
Accepted flit rate average= 0.00985938
	minimum = 0.002 (at node 6)
	maximum = 0.019 (at node 18)
Injected packet length average = 1
Accepted packet length average = 1
Total in-flight flits = 22 (0 measured)
latency change    = 0.027564
throughput change = 0.0110935
Warmed up ...Time used is 3000 cycles
Class 0:
Packet latency average = 33.1219
	minimum = 7
	maximum = 72
Network latency average = 33.1219
	minimum = 7
	maximum = 72
Slowest packet = 45923
Flit latency average = 33.38
	minimum = 7
	maximum = 72
Slowest flit = 45923
Fragmentation average = 0
	minimum = 0
	maximum = 0
Injected packet rate average = 0.00960937
	minimum = 0.003 (at node 30)
	maximum = 0.016 (at node 27)
Accepted packet rate average = 0.00970312
	minimum = 0.004 (at node 15)
	maximum = 0.017 (at node 18)
Injected flit rate average = 0.00960937
	minimum = 0.003 (at node 30)
	maximum = 0.016 (at node 27)
Accepted flit rate average= 0.00970312
	minimum = 0.004 (at node 15)
	maximum = 0.017 (at node 18)
Injected packet length average = 1
Accepted packet length average = 1
Total in-flight flits = 16 (16 measured)
latency change    = 0.0223972
throughput change = 0.0161031
Class 0:
Packet latency average = 32.8484
	minimum = 7
	maximum = 72
Network latency average = 32.8484
	minimum = 7
	maximum = 72
Slowest packet = 45923
Flit latency average = 32.9795
	minimum = 7
	maximum = 72
Slowest flit = 45923
Fragmentation average = 0
	minimum = 0
	maximum = 0
Injected packet rate average = 0.00990625
	minimum = 0.005 (at node 38)
	maximum = 0.0145 (at node 20)
Accepted packet rate average = 0.00991406
	minimum = 0.0055 (at node 7)
	maximum = 0.0145 (at node 39)
Injected flit rate average = 0.00990625
	minimum = 0.005 (at node 38)
	maximum = 0.0145 (at node 20)
Accepted flit rate average= 0.00991406
	minimum = 0.0055 (at node 7)
	maximum = 0.0145 (at node 39)
Injected packet length average = 1
Accepted packet length average = 1
Total in-flight flits = 21 (21 measured)
latency change    = 0.0083241
throughput change = 0.0212766
Class 0:
Packet latency average = 33.0932
	minimum = 7
	maximum = 76
Network latency average = 33.0932
	minimum = 7
	maximum = 76
Slowest packet = 47607
Flit latency average = 33.1774
	minimum = 7
	maximum = 76
Slowest flit = 47607
Fragmentation average = 0
	minimum = 0
	maximum = 0
Injected packet rate average = 0.00992708
	minimum = 0.00533333 (at node 38)
	maximum = 0.014 (at node 20)
Accepted packet rate average = 0.00995313
	minimum = 0.00666667 (at node 53)
	maximum = 0.0136667 (at node 48)
Injected flit rate average = 0.00992708
	minimum = 0.00533333 (at node 38)
	maximum = 0.014 (at node 20)
Accepted flit rate average= 0.00995313
	minimum = 0.00666667 (at node 53)
	maximum = 0.0136667 (at node 48)
Injected packet length average = 1
Accepted packet length average = 1
Total in-flight flits = 17 (17 measured)
latency change    = 0.00739532
throughput change = 0.00392465
Draining all recorded packets ...
Draining remaining packets ...
Time taken is 6078 cycles
Class 0:
Packet latency average = 33.4003
	minimum = 7
	maximum = 72
Network latency average = 33.4003
	minimum = 7
	maximum = 72
Slowest packet = 47907
Flit latency average = 33.4003
	minimum = 7
	maximum = 72
Slowest flit = 47907
Fragmentation average = 0
	minimum = 0
	maximum = 0
Injected packet rate average = 0.00990625
	minimum = 0.004 (at node 38)
	maximum = 0.018 (at node 34)
Accepted packet rate average = 0.00948437
	minimum = 0.003 (at node 25)
	maximum = 0.016 (at node 1)
Injected flit rate average = 0.00990625
	minimum = 0.004 (at node 38)
	maximum = 0.018 (at node 34)
Accepted flit rate average= 0.00948437
	minimum = 0.003 (at node 25)
	maximum = 0.016 (at node 1)
Injected packet length average = 1
Accepted packet length average = 1
Total in-flight flits = 27 (0 measured)
latency change    = 1
throughput change = 1
Class 0:
Packet latency average = 33.8191
	minimum = 7
	maximum = 77
Network latency average = 33.8191
	minimum = 7
	maximum = 77
Slowest packet = 48526
Flit latency average = 33.8191
	minimum = 7
	maximum = 77
Slowest flit = 48526
Fragmentation average = 0
	minimum = 0
	maximum = 0
Injected packet rate average = 0.0098125
	minimum = 0.006 (at node 24)
	maximum = 0.0135 (at node 6)
Accepted packet rate average = 0.00971875
	minimum = 0.005 (at node 31)
	maximum = 0.014 (at node 63)
Injected flit rate average = 0.0098125
	minimum = 0.006 (at node 24)
	maximum = 0.0135 (at node 6)
Accepted flit rate average= 0.00971875
	minimum = 0.005 (at node 31)
	maximum = 0.014 (at node 63)
Injected packet length average = 1
Accepted packet length average = 1
Total in-flight flits = 12 (0 measured)
latency change    = 0.0123836
throughput change = 0.0241158
Class 0:
Packet latency average = 33.2234
	minimum = 7
	maximum = 73
Network latency average = 33.2234
	minimum = 7
	maximum = 73
Slowest packet = 49015
Flit latency average = 33.2234
	minimum = 7
	maximum = 73
Slowest flit = 49015
Fragmentation average = 0
	minimum = 0
	maximum = 0
Injected packet rate average = 0.0102656
	minimum = 0.002 (at node 31)
	maximum = 0.019 (at node 51)
Accepted packet rate average = 0.0101406
	minimum = 0.004 (at node 50)
	maximum = 0.016 (at node 19)
Injected flit rate average = 0.0102656
	minimum = 0.002 (at node 31)
	maximum = 0.019 (at node 51)
Accepted flit rate average= 0.0101406
	minimum = 0.004 (at node 50)
	maximum = 0.016 (at node 19)
Injected packet length average = 1
Accepted packet length average = 1
Total in-flight flits = 20 (0 measured)
latency change    = 0.0179305
throughput change = 0.0416025
Warmed up ...Time used is 3000 cycles
Class 0:
Packet latency average = 33.3116
	minimum = 7
	maximum = 74
Network latency average = 33.3116
	minimum = 7
	maximum = 74
Slowest packet = 49673
Flit latency average = 33.5973
	minimum = 7
	maximum = 77
Slowest flit = 49622
Fragmentation average = 0
	minimum = 0
	maximum = 0
Injected packet rate average = 0.0104844
	minimum = 0.004 (at node 33)
	maximum = 0.02 (at node 44)
Accepted packet rate average = 0.0105938
	minimum = 0.003 (at node 53)
	maximum = 0.02 (at node 4)
Injected flit rate average = 0.0104844
	minimum = 0.004 (at node 33)
	maximum = 0.02 (at node 44)
Accepted flit rate average= 0.0105938
	minimum = 0.003 (at node 53)
	maximum = 0.02 (at node 4)
Injected packet length average = 1
Accepted packet length average = 1
Total in-flight flits = 13 (13 measured)
latency change    = 0.00264561
throughput change = 0.0427729
Class 0:
Packet latency average = 33.4855
	minimum = 7
	maximum = 77
Network latency average = 33.4855
	minimum = 7
	maximum = 77
Slowest packet = 50352
Flit latency average = 33.6322
	minimum = 7
	maximum = 77
Slowest flit = 49622
Fragmentation average = 0
	minimum = 0
	maximum = 0
Injected packet rate average = 0.0101641
	minimum = 0.005 (at node 20)
	maximum = 0.017 (at node 50)
Accepted packet rate average = 0.0101328
	minimum = 0.0055 (at node 53)
	maximum = 0.0155 (at node 1)
Injected flit rate average = 0.0101641
	minimum = 0.005 (at node 20)
	maximum = 0.017 (at node 50)
Accepted flit rate average= 0.0101328
	minimum = 0.0055 (at node 53)
	maximum = 0.0155 (at node 1)
Injected packet length average = 1
Accepted packet length average = 1
Total in-flight flits = 24 (24 measured)
latency change    = 0.00519517
throughput change = 0.0454896
Class 0:
Packet latency average = 33.4316
	minimum = 7
	maximum = 77
Network latency average = 33.4316
	minimum = 7
	maximum = 77
Slowest packet = 50352
Flit latency average = 33.5316
	minimum = 7
	maximum = 77
Slowest flit = 49622
Fragmentation average = 0
	minimum = 0
	maximum = 0
Injected packet rate average = 0.01
	minimum = 0.00633333 (at node 33)
	maximum = 0.0136667 (at node 34)
Accepted packet rate average = 0.00996354
	minimum = 0.00666667 (at node 9)
	maximum = 0.0156667 (at node 1)
Injected flit rate average = 0.01
	minimum = 0.00633333 (at node 33)
	maximum = 0.0136667 (at node 34)
Accepted flit rate average= 0.00996354
	minimum = 0.00666667 (at node 9)
	maximum = 0.0156667 (at node 1)
Injected packet length average = 1
Accepted packet length average = 1
Total in-flight flits = 27 (27 measured)
latency change    = 0.00161293
throughput change = 0.016989
Draining all recorded packets ...
Draining remaining packets ...
Time taken is 6090 cycles
Class 0:
Packet latency average = 32.6861
	minimum = 7
	maximum = 77
Network latency average = 32.6861
	minimum = 7
	maximum = 77
Slowest packet = 52066
Flit latency average = 32.6861
	minimum = 7
	maximum = 77
Slowest flit = 52066
Fragmentation average = 0
	minimum = 0
	maximum = 0
Injected packet rate average = 0.0095
	minimum = 0.004 (at node 16)
	maximum = 0.019 (at node 50)
Accepted packet rate average = 0.00910937
	minimum = 0.004 (at node 11)
	maximum = 0.018 (at node 58)
Injected flit rate average = 0.0095
	minimum = 0.004 (at node 16)
	maximum = 0.019 (at node 50)
Accepted flit rate average= 0.00910937
	minimum = 0.004 (at node 11)
	maximum = 0.018 (at node 58)
Injected packet length average = 1
Accepted packet length average = 1
Total in-flight flits = 25 (0 measured)
latency change    = 1
throughput change = 1
Class 0:
Packet latency average = 33.108
	minimum = 7
	maximum = 77
Network latency average = 33.108
	minimum = 7
	maximum = 77
Slowest packet = 52066
Flit latency average = 33.108
	minimum = 7
	maximum = 77
Slowest flit = 52066
Fragmentation average = 0
	minimum = 0
	maximum = 0
Injected packet rate average = 0.00950781
	minimum = 0.005 (at node 16)
	maximum = 0.0165 (at node 32)
Accepted packet rate average = 0.00940625
	minimum = 0.005 (at node 44)
	maximum = 0.0135 (at node 58)
Injected flit rate average = 0.00950781
	minimum = 0.005 (at node 16)
	maximum = 0.0165 (at node 32)
Accepted flit rate average= 0.00940625
	minimum = 0.005 (at node 44)
	maximum = 0.0135 (at node 58)
Injected packet length average = 1
Accepted packet length average = 1
Total in-flight flits = 13 (0 measured)
latency change    = 0.0127422
throughput change = 0.0315615
Class 0:
Packet latency average = 33.5525
	minimum = 7
	maximum = 70
Network latency average = 33.5525
	minimum = 7
	maximum = 70
Slowest packet = 53095
Flit latency average = 33.5525
	minimum = 7
	maximum = 70
Slowest flit = 53095
Fragmentation average = 0
	minimum = 0
	maximum = 0
Injected packet rate average = 0.00967187
	minimum = 0.002 (at node 4)
	maximum = 0.016 (at node 35)
Accepted packet rate average = 0.00953125
	minimum = 0.002 (at node 31)
	maximum = 0.016 (at node 25)
Injected flit rate average = 0.00967187
	minimum = 0.002 (at node 4)
	maximum = 0.016 (at node 35)
Accepted flit rate average= 0.00953125
	minimum = 0.002 (at node 31)
	maximum = 0.016 (at node 25)
Injected packet length average = 1
Accepted packet length average = 1
Total in-flight flits = 22 (0 measured)
latency change    = 0.0132475
throughput change = 0.0131148
Warmed up ...Time used is 3000 cycles
Class 0:
Packet latency average = 33.1219
	minimum = 7
	maximum = 77
Network latency average = 33.1219
	minimum = 7
	maximum = 77
Slowest packet = 53516
Flit latency average = 33.43
	minimum = 7
	maximum = 77
Slowest flit = 53516
Fragmentation average = 0
	minimum = 0
	maximum = 0
Injected packet rate average = 0.00965625
	minimum = 0.004 (at node 13)
	maximum = 0.019 (at node 36)
Accepted packet rate average = 0.00970312
	minimum = 0.005 (at node 13)
	maximum = 0.02 (at node 7)
Injected flit rate average = 0.00965625
	minimum = 0.004 (at node 13)
	maximum = 0.019 (at node 36)
Accepted flit rate average= 0.00970312
	minimum = 0.005 (at node 13)
	maximum = 0.02 (at node 7)
Injected packet length average = 1
Accepted packet length average = 1
Total in-flight flits = 19 (19 measured)
latency change    = 0.0130001
throughput change = 0.0177134
Class 0:
Packet latency average = 33.405
	minimum = 7
	maximum = 77
Network latency average = 33.405
	minimum = 7
	maximum = 77
Slowest packet = 53516
Flit latency average = 33.5508
	minimum = 7
	maximum = 77
Slowest flit = 53516
Fragmentation average = 0
	minimum = 0
	maximum = 0
Injected packet rate average = 0.0099375
	minimum = 0.0055 (at node 8)
	maximum = 0.0175 (at node 36)
Accepted packet rate average = 0.00991406
	minimum = 0.0045 (at node 16)
	maximum = 0.0145 (at node 7)
Injected flit rate average = 0.0099375
	minimum = 0.0055 (at node 8)
	maximum = 0.0175 (at node 36)
Accepted flit rate average= 0.00991406
	minimum = 0.0045 (at node 16)
	maximum = 0.0145 (at node 7)
Injected packet length average = 1
Accepted packet length average = 1
Total in-flight flits = 25 (25 measured)
latency change    = 0.00847485
throughput change = 0.0212766
Class 0:
Packet latency average = 33.598
	minimum = 7
	maximum = 77
Network latency average = 33.598
	minimum = 7
	maximum = 77
Slowest packet = 53516
Flit latency average = 33.6922
	minimum = 7
	maximum = 77
Slowest flit = 53516
Fragmentation average = 0
	minimum = 0
	maximum = 0
Injected packet rate average = 0.0100313
	minimum = 0.00666667 (at node 35)
	maximum = 0.0156667 (at node 36)
Accepted packet rate average = 0.01
	minimum = 0.00633333 (at node 9)
	maximum = 0.0133333 (at node 21)
Injected flit rate average = 0.0100313
	minimum = 0.00666667 (at node 35)
	maximum = 0.0156667 (at node 36)
Accepted flit rate average= 0.01
	minimum = 0.00633333 (at node 9)
	maximum = 0.0133333 (at node 21)
Injected packet length average = 1
Accepted packet length average = 1
Total in-flight flits = 28 (28 measured)
latency change    = 0.00574516
throughput change = 0.00859375
Draining all recorded packets ...
Draining remaining packets ...
Time taken is 6115 cycles
Class 0:
Packet latency average = 33.5949
	minimum = 7
	maximum = 72
Network latency average = 33.5949
	minimum = 7
	maximum = 72
Slowest packet = 55671
Flit latency average = 33.5949
	minimum = 7
	maximum = 72
Slowest flit = 55671
Fragmentation average = 0
	minimum = 0
	maximum = 0
Injected packet rate average = 0.0101094
	minimum = 0.005 (at node 25)
	maximum = 0.017 (at node 63)
Accepted packet rate average = 0.00971875
	minimum = 0.004 (at node 8)
	maximum = 0.018 (at node 5)
Injected flit rate average = 0.0101094
	minimum = 0.005 (at node 25)
	maximum = 0.017 (at node 63)
Accepted flit rate average= 0.00971875
	minimum = 0.004 (at node 8)
	maximum = 0.018 (at node 5)
Injected packet length average = 1
Accepted packet length average = 1
Total in-flight flits = 25 (0 measured)
latency change    = 1
throughput change = 1
Class 0:
Packet latency average = 33.6764
	minimum = 7
	maximum = 77
Network latency average = 33.6764
	minimum = 7
	maximum = 77
Slowest packet = 56058
Flit latency average = 33.6764
	minimum = 7
	maximum = 77
Slowest flit = 56058
Fragmentation average = 0
	minimum = 0
	maximum = 0
Injected packet rate average = 0.0103438
	minimum = 0.0045 (at node 16)
	maximum = 0.017 (at node 42)
Accepted packet rate average = 0.0101875
	minimum = 0.0055 (at node 29)
	maximum = 0.0165 (at node 51)
Injected flit rate average = 0.0103438
	minimum = 0.0045 (at node 16)
	maximum = 0.017 (at node 42)
Accepted flit rate average= 0.0101875
	minimum = 0.0055 (at node 29)
	maximum = 0.0165 (at node 51)
Injected packet length average = 1
Accepted packet length average = 1
Total in-flight flits = 20 (0 measured)
latency change    = 0.00242084
throughput change = 0.0460123
Class 0:
Packet latency average = 33.23
	minimum = 7
	maximum = 72
Network latency average = 33.23
	minimum = 7
	maximum = 72
Slowest packet = 57120
Flit latency average = 33.23
	minimum = 7
	maximum = 72
Slowest flit = 57120
Fragmentation average = 0
	minimum = 0
	maximum = 0
Injected packet rate average = 0.0105625
	minimum = 0.005 (at node 25)
	maximum = 0.02 (at node 63)
Accepted packet rate average = 0.0105313
	minimum = 0.003 (at node 59)
	maximum = 0.023 (at node 1)
Injected flit rate average = 0.0105625
	minimum = 0.005 (at node 25)
	maximum = 0.02 (at node 63)
Accepted flit rate average= 0.0105313
	minimum = 0.003 (at node 59)
	maximum = 0.023 (at node 1)
Injected packet length average = 1
Accepted packet length average = 1
Total in-flight flits = 22 (0 measured)
latency change    = 0.013434
throughput change = 0.0326409
Warmed up ...Time used is 3000 cycles
Class 0:
Packet latency average = 32.828
	minimum = 7
	maximum = 77
Network latency average = 32.828
	minimum = 7
	maximum = 77
Slowest packet = 57937
Flit latency average = 33.1477
	minimum = 7
	maximum = 77
Slowest flit = 57937
Fragmentation average = 0
	minimum = 0
	maximum = 0
Injected packet rate average = 0.0101563
	minimum = 0.004 (at node 29)
	maximum = 0.019 (at node 62)
Accepted packet rate average = 0.0101563
	minimum = 0.003 (at node 10)
	maximum = 0.016 (at node 3)
Injected flit rate average = 0.0101563
	minimum = 0.004 (at node 29)
	maximum = 0.019 (at node 62)
Accepted flit rate average= 0.0101563
	minimum = 0.003 (at node 10)
	maximum = 0.016 (at node 3)
Injected packet length average = 1
Accepted packet length average = 1
Total in-flight flits = 22 (22 measured)
latency change    = 0.012244
throughput change = 0.0369231
Class 0:
Packet latency average = 33.3217
	minimum = 7
	maximum = 77
Network latency average = 33.3217
	minimum = 7
	maximum = 77
Slowest packet = 57937
Flit latency average = 33.4751
	minimum = 7
	maximum = 77
Slowest flit = 57937
Fragmentation average = 0
	minimum = 0
	maximum = 0
Injected packet rate average = 0.01
	minimum = 0.0045 (at node 18)
	maximum = 0.0165 (at node 49)
Accepted packet rate average = 0.0100313
	minimum = 0.005 (at node 36)
	maximum = 0.016 (at node 0)
Injected flit rate average = 0.01
	minimum = 0.0045 (at node 18)
	maximum = 0.0165 (at node 49)
Accepted flit rate average= 0.0100313
	minimum = 0.005 (at node 36)
	maximum = 0.016 (at node 0)
Injected packet length average = 1
Accepted packet length average = 1
Total in-flight flits = 18 (18 measured)
latency change    = 0.0148157
throughput change = 0.0124611
Class 0:
[...]
Accepted packet length average = 1
Total in-flight flits = 21 (21 measured)
latency change    = 0.00113401
throughput change = 0.0251572
Class 0:
Packet latency average = 33.0401
	minimum = 7
	maximum = 77
Network latency average = 33.0401
	minimum = 7
	maximum = 77
Slowest packet = 409424
Flit latency average = 33.0795
	minimum = 7
	maximum = 77
Slowest flit = 409424
Fragmentation average = 0
	minimum = 0
	maximum = 0
Injected packet rate average = 0.00986458
	minimum = 0.005 (at node 25)
	maximum = 0.0156667 (at node 7)
Accepted packet rate average = 0.00982813
	minimum = 0.006 (at node 35)
	maximum = 0.0143333 (at node 48)
Injected flit rate average = 0.00986458
	minimum = 0.005 (at node 25)
	maximum = 0.0156667 (at node 7)
Accepted flit rate average= 0.00982813
	minimum = 0.006 (at node 35)
	maximum = 0.0143333 (at node 48)
Injected packet length average = 1
Accepted packet length average = 1
Total in-flight flits = 22 (22 measured)
latency change    = 0.00378896
throughput change = 0.0111288
Draining all recorded packets ...
Draining remaining packets ...
Time taken is 6101 cycles
Class 0:
Packet latency average = 33.3953
	minimum = 7
	maximum = 72
Network latency average = 33.3953
	minimum = 7
	maximum = 72
Slowest packet = 411287
Flit latency average = 33.3953
	minimum = 7
	maximum = 72
Slowest flit = 411287
Fragmentation average = 0
	minimum = 0
	maximum = 0
Injected packet rate average = 0.00965625
	minimum = 0.002 (at node 31)
	maximum = 0.02 (at node 13)
Accepted packet rate average = 0.00932812
	minimum = 0.004 (at node 7)
	maximum = 0.018 (at node 33)
Injected flit rate average = 0.00965625
	minimum = 0.002 (at node 31)
	maximum = 0.02 (at node 13)
Accepted flit rate average= 0.00932812
	minimum = 0.004 (at node 7)
	maximum = 0.018 (at node 33)
Injected packet length average = 1
Accepted packet length average = 1
Total in-flight flits = 21 (0 measured)
latency change    = 1
throughput change = 1
Class 0:
Packet latency average = 33.4238
	minimum = 7
	maximum = 77
Network latency average = 33.4238
	minimum = 7
	maximum = 77
Slowest packet = 411758
Flit latency average = 33.4238
	minimum = 7
	maximum = 77
Slowest flit = 411758
Fragmentation average = 0
	minimum = 0
	maximum = 0
Injected packet rate average = 0.00982813
	minimum = 0.0045 (at node 31)
	maximum = 0.016 (at node 5)
Accepted packet rate average = 0.00964062
	minimum = 0.0045 (at node 42)
	maximum = 0.015 (at node 10)
Injected flit rate average = 0.00982813
	minimum = 0.0045 (at node 31)
	maximum = 0.016 (at node 5)
Accepted flit rate average= 0.00964062
	minimum = 0.0045 (at node 42)
	maximum = 0.015 (at node 10)
Injected packet length average = 1
Accepted packet length average = 1
Total in-flight flits = 24 (0 measured)
latency change    = 0.000853136
throughput change = 0.0324149
Class 0:
Packet latency average = 32.874
	minimum = 7
	maximum = 72
Network latency average = 32.874
	minimum = 7
	maximum = 72
Slowest packet = 412237
Flit latency average = 32.874
	minimum = 7
	maximum = 72
Slowest flit = 412237
Fragmentation average = 0
	minimum = 0
	maximum = 0
Injected packet rate average = 0.00996875
	minimum = 0.004 (at node 32)
	maximum = 0.021 (at node 34)
Accepted packet rate average = 0.0100469
	minimum = 0.003 (at node 29)
	maximum = 0.018 (at node 11)
Injected flit rate average = 0.00996875
	minimum = 0.004 (at node 32)
	maximum = 0.021 (at node 34)
Accepted flit rate average= 0.0100469
	minimum = 0.003 (at node 29)
	maximum = 0.018 (at node 11)
Injected packet length average = 1
Accepted packet length average = 1
Total in-flight flits = 19 (0 measured)
latency change    = 0.0167244
throughput change = 0.0404355
Warmed up ...Time used is 3000 cycles
Class 0:
Packet latency average = 33.0086
	minimum = 7
	maximum = 73
Network latency average = 33.0086
	minimum = 7
	maximum = 73
Slowest packet = 412717
Flit latency average = 33.3532
	minimum = 7
	maximum = 73
Slowest flit = 412717
Fragmentation average = 0
	minimum = 0
	maximum = 0
Injected packet rate average = 0.00940625
	minimum = 0.004 (at node 3)
	maximum = 0.016 (at node 2)
Accepted packet rate average = 0.00942187
	minimum = 0.004 (at node 9)
	maximum = 0.017 (at node 23)
Injected flit rate average = 0.00940625
	minimum = 0.004 (at node 3)
	maximum = 0.016 (at node 2)
Accepted flit rate average= 0.00942187
	minimum = 0.004 (at node 9)
	maximum = 0.017 (at node 23)
Injected packet length average = 1
Accepted packet length average = 1
Total in-flight flits = 18 (18 measured)
latency change    = 0.00407572
throughput change = 0.066335
Class 0:
Packet latency average = 33.3012
	minimum = 7
	maximum = 77
Network latency average = 33.3012
	minimum = 7
	maximum = 77
Slowest packet = 413291
Flit latency average = 33.4625
	minimum = 7
	maximum = 77
Slowest flit = 413291
Fragmentation average = 0
	minimum = 0
	maximum = 0
Injected packet rate average = 0.00982031
	minimum = 0.0065 (at node 3)
	maximum = 0.0135 (at node 39)
Accepted packet rate average = 0.00979688
	minimum = 0.005 (at node 52)
	maximum = 0.0155 (at node 43)
Injected flit rate average = 0.00982031
	minimum = 0.0065 (at node 3)
	maximum = 0.0135 (at node 39)
Accepted flit rate average= 0.00979688
	minimum = 0.005 (at node 52)
	maximum = 0.0155 (at node 43)
Injected packet length average = 1
Accepted packet length average = 1
Total in-flight flits = 22 (22 measured)
latency change    = 0.00878806
throughput change = 0.0382775
Class 0:
Packet latency average = 33.4137
	minimum = 7
	maximum = 77
Network latency average = 33.4137
	minimum = 7
	maximum = 77
Slowest packet = 413291
Flit latency average = 33.5206
	minimum = 7
	maximum = 77
Slowest flit = 413291
Fragmentation average = 0
	minimum = 0
	maximum = 0
Injected packet rate average = 0.00973958
	minimum = 0.00633333 (at node 40)
	maximum = 0.013 (at node 30)
Accepted packet rate average = 0.00975521
	minimum = 0.006 (at node 9)
	maximum = 0.0146667 (at node 51)
Injected flit rate average = 0.00973958
	minimum = 0.00633333 (at node 40)
	maximum = 0.013 (at node 30)
Accepted flit rate average= 0.00975521
	minimum = 0.006 (at node 9)
	maximum = 0.0146667 (at node 51)
Injected packet length average = 1
Accepted packet length average = 1
Total in-flight flits = 16 (16 measured)
latency change    = 0.00336645
throughput change = 0.00427122
Class 0:
Packet latency average = 33.2696
	minimum = 7
	maximum = 77
Network latency average = 33.2696
	minimum = 7
	maximum = 77
Slowest packet = 413291
Flit latency average = 33.3529
	minimum = 7
	maximum = 77
Slowest flit = 413291
Fragmentation average = 0
	minimum = 0
	maximum = 0
Injected packet rate average = 0.00950781
	minimum = 0.00675 (at node 40)
	maximum = 0.01175 (at node 62)
Accepted packet rate average = 0.00951953
	minimum = 0.00625 (at node 9)
	maximum = 0.01425 (at node 51)
Injected flit rate average = 0.00950781
	minimum = 0.00675 (at node 40)
	maximum = 0.01175 (at node 62)
Accepted flit rate average= 0.00951953
	minimum = 0.00625 (at node 9)
	maximum = 0.01425 (at node 51)
Injected packet length average = 1
Accepted packet length average = 1
Total in-flight flits = 16 (16 measured)
latency change    = 0.00432995
throughput change = 0.0247572
Draining all recorded packets ...
Draining remaining packets ...
Time taken is 7090 cycles
Class 0:
Packet latency average = 33.2649
	minimum = 7
	maximum = 72
Network latency average = 33.2649
	minimum = 7
	maximum = 72
Slowest packet = 415307
Flit latency average = 33.2649
	minimum = 7
	maximum = 72
Slowest flit = 415307
Fragmentation average = 0
	minimum = 0
	maximum = 0
Injected packet rate average = 0.00953125
	minimum = 0.003 (at node 0)
	maximum = 0.016 (at node 4)
Accepted packet rate average = 0.00920312
	minimum = 0.003 (at node 6)
	maximum = 0.016 (at node 17)
Injected flit rate average = 0.00953125
	minimum = 0.003 (at node 0)
	maximum = 0.016 (at node 4)
Accepted flit rate average= 0.00920312
	minimum = 0.003 (at node 6)
	maximum = 0.016 (at node 17)
Injected packet length average = 1
Accepted packet length average = 1
Total in-flight flits = 21 (0 measured)
latency change    = 1
throughput change = 1
Class 0:
Packet latency average = 32.8667
	minimum = 7
	maximum = 72
Network latency average = 32.8667
	minimum = 7
	maximum = 72
Slowest packet = 415307
Flit latency average = 32.8667
	minimum = 7
	maximum = 72
Slowest flit = 415307
Fragmentation average = 0
	minimum = 0
	maximum = 0
Injected packet rate average = 0.0103594
	minimum = 0.005 (at node 30)
	maximum = 0.0165 (at node 4)
Accepted packet rate average = 0.0101406
	minimum = 0.006 (at node 1)
	maximum = 0.017 (at node 61)
Injected flit rate average = 0.0103594
	minimum = 0.005 (at node 30)
	maximum = 0.0165 (at node 4)
Accepted flit rate average= 0.0101406
	minimum = 0.006 (at node 1)
	maximum = 0.017 (at node 61)
Injected packet length average = 1
Accepted packet length average = 1
Total in-flight flits = 28 (0 measured)
latency change    = 0.0121137
throughput change = 0.0924499
Class 0:
Packet latency average = 33.067
	minimum = 7
	maximum = 75
Network latency average = 33.067
	minimum = 7
	maximum = 75
Slowest packet = 416810
Flit latency average = 33.067
	minimum = 7
	maximum = 75
Slowest flit = 416810
Fragmentation average = 0
	minimum = 0
	maximum = 0
Injected packet rate average = 0.009875
	minimum = 0.003 (at node 19)
	maximum = 0.02 (at node 55)
Accepted packet rate average = 0.0100313
	minimum = 0.001 (at node 1)
	maximum = 0.021 (at node 13)
Injected flit rate average = 0.009875
	minimum = 0.003 (at node 19)
	maximum = 0.02 (at node 55)
Accepted flit rate average= 0.0100313
	minimum = 0.001 (at node 1)
	maximum = 0.021 (at node 13)
Injected packet length average = 1
Accepted packet length average = 1
Total in-flight flits = 18 (0 measured)
latency change    = 0.0060562
throughput change = 0.0109034
Warmed up ...Time used is 3000 cycles
Class 0:
Packet latency average = 33.2308
	minimum = 7
	maximum = 79
Network latency average = 33.2308
	minimum = 7
	maximum = 79
Slowest packet = 417427
Flit latency average = 33.3954
	minimum = 7
	maximum = 79
Slowest flit = 417427
Fragmentation average = 0
	minimum = 0
	maximum = 0
Injected packet rate average = 0.0102188
	minimum = 0.002 (at node 46)
	maximum = 0.018 (at node 24)
Accepted packet rate average = 0.0102344
	minimum = 0.003 (at node 52)
	maximum = 0.018 (at node 7)
Injected flit rate average = 0.0102188
	minimum = 0.002 (at node 46)
	maximum = 0.018 (at node 24)
Accepted flit rate average= 0.0102344
	minimum = 0.003 (at node 52)
	maximum = 0.018 (at node 7)
Injected packet length average = 1
Accepted packet length average = 1
Total in-flight flits = 17 (17 measured)
latency change    = 0.0049289
throughput change = 0.0198473
Class 0:
Packet latency average = 33.2418
	minimum = 7
	maximum = 79
Network latency average = 33.2418
	minimum = 7
	maximum = 79
Slowest packet = 417427
Flit latency average = 33.3211
	minimum = 7
	maximum = 79
Slowest flit = 417427
Fragmentation average = 0
	minimum = 0
	maximum = 0
Injected packet rate average = 0.0106328
	minimum = 0.006 (at node 46)
	maximum = 0.019 (at node 24)
Accepted packet rate average = 0.0106094
	minimum = 0.0055 (at node 61)
	maximum = 0.017 (at node 14)
Injected flit rate average = 0.0106328
	minimum = 0.006 (at node 46)
	maximum = 0.019 (at node 24)
Accepted flit rate average= 0.0106094
	minimum = 0.0055 (at node 61)
	maximum = 0.017 (at node 14)
Injected packet length average = 1
Accepted packet length average = 1
Total in-flight flits = 21 (21 measured)
latency change    = 0.000331565
throughput change = 0.0353461
Class 0:
Packet latency average = 33.2334
	minimum = 7
	maximum = 79
Network latency average = 33.2334
	minimum = 7
	maximum = 79
Slowest packet = 417427
Flit latency average = 33.2877
	minimum = 7
	maximum = 79
Slowest flit = 417427
Fragmentation average = 0
	minimum = 0
	maximum = 0
Injected packet rate average = 0.0103854
	minimum = 0.006 (at node 2)
	maximum = 0.016 (at node 24)
Accepted packet rate average = 0.0103385
	minimum = 0.00566667 (at node 61)
	maximum = 0.0166667 (at node 14)
Injected flit rate average = 0.0103854
	minimum = 0.006 (at node 2)
	maximum = 0.016 (at node 24)
Accepted flit rate average= 0.0103385
	minimum = 0.00566667 (at node 61)
	maximum = 0.0166667 (at node 14)
Injected packet length average = 1
Accepted packet length average = 1
Total in-flight flits = 27 (27 measured)
latency change    = 0.000253985
throughput change = 0.0261965
Draining all recorded packets ...
Draining remaining packets ...
Time taken is 6083 cycles
Class 0:
Packet latency average = 32.8967
	minimum = 7
	maximum = 77
Network latency average = 32.8967
	minimum = 7
	maximum = 77
Slowest packet = 419448
Flit latency average = 32.8967
	minimum = 7
	maximum = 77
Slowest flit = 419448
Fragmentation average = 0
	minimum = 0
	maximum = 0
Injected packet rate average = 0.0107188
	minimum = 0.002 (at node 45)
	maximum = 0.02 (at node 39)
Accepted packet rate average = 0.0102813
	minimum = 0.004 (at node 34)
	maximum = 0.017 (at node 2)
Injected flit rate average = 0.0107188
	minimum = 0.002 (at node 45)
	maximum = 0.02 (at node 39)
Accepted flit rate average= 0.0102813
	minimum = 0.004 (at node 34)
	maximum = 0.017 (at node 2)
Injected packet length average = 1
Accepted packet length average = 1
Total in-flight flits = 28 (0 measured)
latency change    = 1
throughput change = 1
Class 0:
Packet latency average = 33.3566
	minimum = 7
	maximum = 77
Network latency average = 33.3566
	minimum = 7
	maximum = 77
Slowest packet = 419448
Flit latency average = 33.3566
	minimum = 7
	maximum = 77
Slowest flit = 419448
Fragmentation average = 0
	minimum = 0
	maximum = 0
Injected packet rate average = 0.0100391
	minimum = 0.006 (at node 62)
	maximum = 0.0165 (at node 39)
Accepted packet rate average = 0.00983594
	minimum = 0.005 (at node 10)
	maximum = 0.016 (at node 63)
Injected flit rate average = 0.0100391
	minimum = 0.006 (at node 62)
	maximum = 0.0165 (at node 39)
Accepted flit rate average= 0.00983594
	minimum = 0.005 (at node 10)
	maximum = 0.016 (at node 63)
Injected packet length average = 1
Accepted packet length average = 1
Total in-flight flits = 26 (0 measured)
latency change    = 0.0137896
throughput change = 0.045274
Class 0:
Packet latency average = 32.5929
	minimum = 7
	maximum = 72
Network latency average = 32.5929
	minimum = 7
	maximum = 72
Slowest packet = 420561
Flit latency average = 32.5929
	minimum = 7
	maximum = 72
Slowest flit = 420561
Fragmentation average = 0
	minimum = 0
	maximum = 0
Injected packet rate average = 0.0095625
	minimum = 0.002 (at node 37)
	maximum = 0.021 (at node 47)
Accepted packet rate average = 0.00967187
	minimum = 0.004 (at node 56)
	maximum = 0.018 (at node 60)
Injected flit rate average = 0.0095625
	minimum = 0.002 (at node 37)
	maximum = 0.021 (at node 47)
Accepted flit rate average= 0.00967187
	minimum = 0.004 (at node 56)
	maximum = 0.018 (at node 60)
Injected packet length average = 1
Accepted packet length average = 1
Total in-flight flits = 19 (0 measured)
latency change    = 0.0234327
throughput change = 0.0169628
Warmed up ...Time used is 3000 cycles
Class 0:
Packet latency average = 32.338
	minimum = 7
	maximum = 77
Network latency average = 32.338
	minimum = 7
	maximum = 77
Slowest packet = 421362
Flit latency average = 32.5542
	minimum = 7
	maximum = 77
Slowest flit = 421362
Fragmentation average = 0
	minimum = 0
	maximum = 0
Injected packet rate average = 0.0104844
	minimum = 0.004 (at node 12)
	maximum = 0.02 (at node 3)
Accepted packet rate average = 0.010375
	minimum = 0.004 (at node 47)
	maximum = 0.018 (at node 42)
Injected flit rate average = 0.0104844
	minimum = 0.004 (at node 12)
	maximum = 0.02 (at node 3)
Accepted flit rate average= 0.010375
	minimum = 0.004 (at node 47)
	maximum = 0.018 (at node 42)
Injected packet length average = 1
Accepted packet length average = 1
Total in-flight flits = 26 (26 measured)
latency change    = 0.0078826
throughput change = 0.0677711
Class 0:
Packet latency average = 32.9129
	minimum = 7
	maximum = 77
Network latency average = 32.9129
	minimum = 7
	maximum = 77
Slowest packet = 421362
Flit latency average = 33.0164
	minimum = 7
	maximum = 77
Slowest flit = 421362
Fragmentation average = 0
	minimum = 0
	maximum = 0
Injected packet rate average = 0.0101016
	minimum = 0.0055 (at node 2)
	maximum = 0.0185 (at node 17)
Accepted packet rate average = 0.0100156
	minimum = 0.0045 (at node 53)
	maximum = 0.0155 (at node 13)
Injected flit rate average = 0.0101016
	minimum = 0.0055 (at node 2)
	maximum = 0.0185 (at node 17)
Accepted flit rate average= 0.0100156
	minimum = 0.0045 (at node 53)
	maximum = 0.0155 (at node 13)
Injected packet length average = 1
Accepted packet length average = 1
Total in-flight flits = 30 (30 measured)
latency change    = 0.017468
throughput change = 0.0358814
Class 0:
Packet latency average = 33.0822
	minimum = 7
	maximum = 77
Network latency average = 33.0822
	minimum = 7
	maximum = 77
Slowest packet = 421362
Flit latency average = 33.148
	minimum = 7
	maximum = 77
Slowest flit = 421362
Fragmentation average = 0
	minimum = 0
	maximum = 0
Injected packet rate average = 0.01025
	minimum = 0.00533333 (at node 34)
	maximum = 0.0156667 (at node 17)
Accepted packet rate average = 0.0102396
	minimum = 0.006 (at node 53)
	maximum = 0.0143333 (at node 39)
Injected flit rate average = 0.01025
	minimum = 0.00533333 (at node 34)
	maximum = 0.0156667 (at node 17)
Accepted flit rate average= 0.0102396
	minimum = 0.006 (at node 53)
	maximum = 0.0143333 (at node 39)
Injected packet length average = 1
Accepted packet length average = 1
Total in-flight flits = 21 (21 measured)
latency change    = 0.00511671
throughput change = 0.0218718
Class 0:
Packet latency average = 33.1746
	minimum = 7
	maximum = 77
Network latency average = 33.1746
	minimum = 7
	maximum = 77
Slowest packet = 421362
Flit latency average = 33.2239
	minimum = 7
	maximum = 77
Slowest flit = 421362
Fragmentation average = 0
	minimum = 0
	maximum = 0
Injected packet rate average = 0.0101094
	minimum = 0.0055 (at node 34)
	maximum = 0.014 (at node 17)
Accepted packet rate average = 0.0101211
	minimum = 0.00625 (at node 53)
	maximum = 0.01375 (at node 39)
Injected flit rate average = 0.0101094
	minimum = 0.0055 (at node 34)
	maximum = 0.014 (at node 17)
Accepted flit rate average= 0.0101211
	minimum = 0.00625 (at node 53)
	maximum = 0.01375 (at node 39)
Injected packet length average = 1
Accepted packet length average = 1
Total in-flight flits = 16 (16 measured)
latency change    = 0.0027851
throughput change = 0.0117072
Draining all recorded packets ...
Draining remaining packets ...
Time taken is 7104 cycles
====== Overall Traffic Statistics ======
====== Traffic class 0 ======
Packet latency average = 33.3354 (100 samples)
	minimum = 7 (100 samples)
	maximum = 76.88 (100 samples)
Network latency average = 33.3354 (100 samples)
	minimum = 7 (100 samples)
	maximum = 76.88 (100 samples)
Flit latency average = 33.3953 (100 samples)
	minimum = 7 (100 samples)
	maximum = 77.01 (100 samples)
Fragmentation average = 0 (100 samples)
	minimum = 0 (100 samples)
	maximum = 0 (100 samples)
Injected packet rate average = 0.0100008 (100 samples)
	minimum = 0.00630167 (100 samples)
	maximum = 0.014194 (100 samples)
Accepted packet rate average = 0.0100018 (100 samples)
	minimum = 0.00636783 (100 samples)
	maximum = 0.0141597 (100 samples)
Injected flit rate average = 0.0100008 (100 samples)
	minimum = 0.00630167 (100 samples)
	maximum = 0.014194 (100 samples)
Accepted flit rate average = 0.0100018 (100 samples)
	minimum = 0.00636783 (100 samples)
	maximum = 0.0141597 (100 samples)
Injected packet size average = 1 (100 samples)
Accepted packet size average = 1 (100 samples)
Hops average = 6.25042 (100 samples)
results:0,uniform,0,0.01,7,33.3354,76.88,7,33.3354,76.88,7,33.3953,77.01,0,0,0,0.00630167,0.0100008,0.014194,0.00636783,0.0100018,0.0141597,0.00630167,0.0100008,0.014194,0.00636783,0.0100018,0.0141597,1,1,6.25042
Total run time 21.2241
