BEGIN Configuration File: /tmp/tmp9rop6b0h.cfg
topology = mesh;
k = 8; n = 2;
routing_function = planar_adapt;
num_vcs = 4; vc_buf_size = 4;
wait_for_tail_credit = 1;
vc_allocator = islip; sw_allocator = islip;
alloc_iters = 1;
credit_delay = 2; routing_delay = 1;
vc_alloc_delay = 1; sw_alloc_delay = 1;
input_speedup = 2; output_speedup = 1; internal_speedup = 1.0;
traffic = uniform;
packet_size = 1; sim_type = latency;
injection_rate = 0.05;
warmup_periods = 3; sample_period = 1000; sim_count = 100;
seed = 2;

END Configuration File: /tmp/tmp9rop6b0h.cfg
Class 0:
Packet latency average = 37.2399
	minimum = 7
	maximum = 119
Network latency average = 37.238
	minimum = 7
	maximum = 119
Slowest packet = 211
Flit latency average = 37.238
	minimum = 7
	maximum = 119
Slowest flit = 211
Fragmentation average = 0
	minimum = 0
	maximum = 0
Injected packet rate average = 0.0500469
	minimum = 0.026 (at node 40)
	maximum = 0.072 (at node 10)
Accepted packet rate average = 0.048
	minimum = 0.033 (at node 9)
	maximum = 0.062 (at node 11)
Injected flit rate average = 0.0500469
	minimum = 0.026 (at node 40)
	maximum = 0.072 (at node 10)
Accepted flit rate average= 0.048
	minimum = 0.033 (at node 9)
	maximum = 0.062 (at node 11)
Injected packet length average = 1
Accepted packet length average = 1
Total in-flight flits = 131 (0 measured)
latency change    = 1
throughput change = 1
Class 0:
Packet latency average = 37.886
	minimum = 7
	maximum = 159
Network latency average = 37.8315
	minimum = 7
	maximum = 152
Slowest packet = 4318
Flit latency average = 37.8315
	minimum = 7
	maximum = 152
Slowest flit = 4318
Fragmentation average = 0
	minimum = 0
	maximum = 0
Injected packet rate average = 0.0503984
	minimum = 0.039 (at node 40)
	maximum = 0.063 (at node 56)
Accepted packet rate average = 0.0495312
	minimum = 0.04 (at node 9)
	maximum = 0.0605 (at node 11)
Injected flit rate average = 0.0503984
	minimum = 0.039 (at node 40)
	maximum = 0.063 (at node 56)
Accepted flit rate average= 0.0495312
	minimum = 0.04 (at node 9)
	maximum = 0.0605 (at node 11)
Injected packet length average = 1
Accepted packet length average = 1
Total in-flight flits = 111 (0 measured)
latency change    = 0.0170526
throughput change = 0.0309148
Class 0:
Packet latency average = 38.4372
	minimum = 7
	maximum = 144
Network latency average = 38.4337
	minimum = 7
	maximum = 144
Slowest packet = 8799
Flit latency average = 38.4337
	minimum = 7
	maximum = 144
Slowest flit = 8799
Fragmentation average = 0
	minimum = 0
	maximum = 0
Injected packet rate average = 0.05075
	minimum = 0.036 (at node 49)
	maximum = 0.069 (at node 32)
Accepted packet rate average = 0.0504687
	minimum = 0.035 (at node 56)
	maximum = 0.064 (at node 18)
Injected flit rate average = 0.05075
	minimum = 0.036 (at node 49)
	maximum = 0.069 (at node 32)
Accepted flit rate average= 0.0504687
	minimum = 0.035 (at node 56)
	maximum = 0.064 (at node 18)
Injected packet length average = 1
Accepted packet length average = 1
Total in-flight flits = 129 (0 measured)
latency change    = 0.01434
throughput change = 0.0185759
Warmed up ...Time used is 3000 cycles
Class 0:
Packet latency average = 38.3569
	minimum = 7
	maximum = 176
Network latency average = 38.3212
	minimum = 7
	maximum = 176
Slowest packet = 11661
Flit latency average = 38.6864
	minimum = 7
	maximum = 176
Slowest flit = 11661
Fragmentation average = 0
	minimum = 0
	maximum = 0
Injected packet rate average = 0.0500625
	minimum = 0.038 (at node 13)
	maximum = 0.065 (at node 31)
Accepted packet rate average = 0.0498281
	minimum = 0.04 (at node 23)
	maximum = 0.065 (at node 10)
Injected flit rate average = 0.0500625
	minimum = 0.038 (at node 13)
	maximum = 0.065 (at node 31)
Accepted flit rate average= 0.0498281
	minimum = 0.04 (at node 23)
	maximum = 0.065 (at node 10)
Injected packet length average = 1
Accepted packet length average = 1
Total in-flight flits = 144 (144 measured)
latency change    = 0.00209321
throughput change = 0.0128567
Class 0:
Packet latency average = 38.6073
	minimum = 7
	maximum = 176
Network latency average = 38.5802
	minimum = 7
	maximum = 176
Slowest packet = 11661
Flit latency average = 38.7588
	minimum = 7
	maximum = 176
Slowest flit = 11661
Fragmentation average = 0
	minimum = 0
	maximum = 0
Injected packet rate average = 0.0495156
	minimum = 0.0375 (at node 62)
	maximum = 0.0595 (at node 9)
Accepted packet rate average = 0.0494687
	minimum = 0.0395 (at node 48)
	maximum = 0.058 (at node 29)
Injected flit rate average = 0.0495156
	minimum = 0.0375 (at node 62)
	maximum = 0.0595 (at node 9)
Accepted flit rate average= 0.0494687
	minimum = 0.0395 (at node 48)
	maximum = 0.058 (at node 29)
Injected packet length average = 1
Accepted packet length average = 1
Total in-flight flits = 135 (135 measured)
latency change    = 0.00648645
throughput change = 0.00726469
Class 0:
Packet latency average = 38.4242
	minimum = 7
	maximum = 176
Network latency average = 38.4064
	minimum = 7
	maximum = 176
Slowest packet = 11661
Flit latency average = 38.5274
	minimum = 7
	maximum = 176
Slowest flit = 11661
Fragmentation average = 0
	minimum = 0
	maximum = 0
Injected packet rate average = 0.0496562
	minimum = 0.0396667 (at node 10)
	maximum = 0.0613333 (at node 20)
Accepted packet rate average = 0.0496458
	minimum = 0.041 (at node 48)
	maximum = 0.06 (at node 8)
Injected flit rate average = 0.0496562
	minimum = 0.0396667 (at node 10)
	maximum = 0.0613333 (at node 20)
Accepted flit rate average= 0.0496458
	minimum = 0.041 (at node 48)
	maximum = 0.06 (at node 8)
Injected packet length average = 1
Accepted packet length average = 1
Total in-flight flits = 131 (131 measured)
latency change    = 0.00476419
throughput change = 0.00356693
Draining all recorded packets ...
Draining remaining packets ...
Time taken is 6146 cycles
Class 0:
Packet latency average = 37.411
	minimum = 7
	maximum = 155
Network latency average = 37.3866
	minimum = 7
	maximum = 140
Slowest packet = 21181
Flit latency average = 37.3866
	minimum = 7
	maximum = 140
Slowest flit = 21181
Fragmentation average = 0
	minimum = 0
	maximum = 0
Injected packet rate average = 0.0496094
	minimum = 0.031 (at node 21)
	maximum = 0.069 (at node 55)
Accepted packet rate average = 0.0479375
	minimum = 0.033 (at node 34)
	maximum = 0.061 (at node 59)
Injected flit rate average = 0.0496094
	minimum = 0.031 (at node 21)
	maximum = 0.069 (at node 55)
Accepted flit rate average= 0.0479375
	minimum = 0.033 (at node 34)
	maximum = 0.061 (at node 59)
Injected packet length average = 1
Accepted packet length average = 1
Total in-flight flits = 107 (0 measured)
latency change    = 1
throughput change = 1
Class 0:
Packet latency average = 37.8166
	minimum = 7
	maximum = 155
Network latency average = 37.804
	minimum = 7
	maximum = 147
Slowest packet = 21181
Flit latency average = 37.804
	minimum = 7
	maximum = 147
Slowest flit = 23899
Fragmentation average = 0
	minimum = 0
	maximum = 0
Injected packet rate average = 0.049875
	minimum = 0.0395 (at node 17)
	maximum = 0.06 (at node 4)
Accepted packet rate average = 0.0489766
	minimum = 0.0375 (at node 3)
	maximum = 0.059 (at node 29)
Injected flit rate average = 0.049875
	minimum = 0.0395 (at node 17)
	maximum = 0.06 (at node 4)
Accepted flit rate average= 0.0489766
	minimum = 0.0375 (at node 3)
	maximum = 0.059 (at node 29)
Injected packet length average = 1
Accepted packet length average = 1
Total in-flight flits = 115 (0 measured)
latency change    = 0.0107239
throughput change = 0.0212155
Class 0:
Packet latency average = 37.5914
	minimum = 7
	maximum = 133
Network latency average = 37.5914
	minimum = 7
	maximum = 133
Slowest packet = 28336
Flit latency average = 37.5914
	minimum = 7
	maximum = 133
Slowest flit = 28336
Fragmentation average = 0
	minimum = 0
	maximum = 0
Injected packet rate average = 0.0501719
	minimum = 0.037 (at node 60)
	maximum = 0.07 (at node 57)
Accepted packet rate average = 0.0498281
	minimum = 0.036 (at node 49)
	maximum = 0.069 (at node 31)
Injected flit rate average = 0.0501719
	minimum = 0.037 (at node 60)
	maximum = 0.07 (at node 57)
Accepted flit rate average= 0.0498281
	minimum = 0.036 (at node 49)
	maximum = 0.069 (at node 31)
Injected packet length average = 1
Accepted packet length average = 1
Total in-flight flits = 137 (0 measured)
latency change    = 0.00598939
throughput change = 0.01709
Warmed up ...Time used is 3000 cycles
Class 0:
Packet latency average = 37.1756
	minimum = 7
	maximum = 112
Network latency average = 37.1733
	minimum = 7
	maximum = 112
Slowest packet = 30197
Flit latency average = 37.5912
	minimum = 7
	maximum = 150
Slowest flit = 28677
Fragmentation average = 0
	minimum = 0
	maximum = 0
Injected packet rate average = 0.0482187
	minimum = 0.035 (at node 15)
	maximum = 0.066 (at node 59)
Accepted packet rate average = 0.0485781
	minimum = 0.032 (at node 62)
	maximum = 0.068 (at node 55)
Injected flit rate average = 0.0482187
	minimum = 0.035 (at node 15)
	maximum = 0.066 (at node 59)
Accepted flit rate average= 0.0485781
	minimum = 0.032 (at node 62)
	maximum = 0.068 (at node 55)
Injected packet length average = 1
Accepted packet length average = 1
Total in-flight flits = 114 (114 measured)
latency change    = 0.0111839
throughput change = 0.0257317
Class 0:
Packet latency average = 37.1926
	minimum = 7
	maximum = 112
Network latency average = 37.1913
	minimum = 7
	maximum = 112
Slowest packet = 30197
Flit latency average = 37.3979
	minimum = 7
	maximum = 150
Slowest flit = 28677
Fragmentation average = 0
	minimum = 0
	maximum = 0
Injected packet rate average = 0.0490469
	minimum = 0.0395 (at node 62)
	maximum = 0.059 (at node 51)
Accepted packet rate average = 0.0490469
	minimum = 0.037 (at node 10)
	maximum = 0.0625 (at node 46)
Injected flit rate average = 0.0490469
	minimum = 0.0395 (at node 62)
	maximum = 0.059 (at node 51)
Accepted flit rate average= 0.0490469
	minimum = 0.037 (at node 10)
	maximum = 0.0625 (at node 46)
Injected packet length average = 1
Accepted packet length average = 1
Total in-flight flits = 137 (137 measured)
latency change    = 0.000457089
throughput change = 0.00955718
Class 0:
Packet latency average = 37.7758
	minimum = 7
	maximum = 148
Network latency average = 37.7747
	minimum = 7
	maximum = 148
Slowest packet = 37080
Flit latency average = 37.9018
	minimum = 7
	maximum = 150
Slowest flit = 28677
Fragmentation average = 0
	minimum = 0
	maximum = 0
Injected packet rate average = 0.0498542
	minimum = 0.0426667 (at node 45)
	maximum = 0.0573333 (at node 1)
Accepted packet rate average = 0.0498854
	minimum = 0.038 (at node 10)
	maximum = 0.061 (at node 46)
Injected flit rate average = 0.0498542
	minimum = 0.0426667 (at node 45)
	maximum = 0.0573333 (at node 1)
Accepted flit rate average= 0.0498854
	minimum = 0.038 (at node 10)
	maximum = 0.061 (at node 46)
Injected packet length average = 1
Accepted packet length average = 1
Total in-flight flits = 131 (131 measured)
latency change    = 0.0154365
throughput change = 0.0168094
Draining all recorded packets ...
Draining remaining packets ...
Time taken is 6155 cycles
Class 0:
Packet latency average = 38.4356
	minimum = 7
	maximum = 155
Network latency average = 38.3803
	minimum = 7
	maximum = 155
Slowest packet = 39636
Flit latency average = 38.3803
	minimum = 7
	maximum = 155
Slowest flit = 39636
Fragmentation average = 0
	minimum = 0
	maximum = 0
Injected packet rate average = 0.0501094
	minimum = 0.033 (at node 8)
	maximum = 0.065 (at node 32)
Accepted packet rate average = 0.0483125
	minimum = 0.033 (at node 19)
	maximum = 0.069 (at node 42)
Injected flit rate average = 0.0501094
	minimum = 0.033 (at node 8)
	maximum = 0.065 (at node 32)
Accepted flit rate average= 0.0483125
	minimum = 0.033 (at node 19)
	maximum = 0.069 (at node 42)
Injected packet length average = 1
Accepted packet length average = 1
Total in-flight flits = 115 (0 measured)
latency change    = 1
throughput change = 1
Class 0:
Packet latency average = 37.7444
	minimum = 7
	maximum = 155
Network latency average = 37.7169
	minimum = 7
	maximum = 155
Slowest packet = 39636
Flit latency average = 37.7169
	minimum = 7
	maximum = 155
Slowest flit = 39636
Fragmentation average = 0
	minimum = 0
	maximum = 0
Injected packet rate average = 0.0495703
	minimum = 0.039 (at node 60)
	maximum = 0.0595 (at node 17)
Accepted packet rate average = 0.0485625
	minimum = 0.0355 (at node 46)
	maximum = 0.061 (at node 42)
Injected flit rate average = 0.0495703
	minimum = 0.039 (at node 60)
	maximum = 0.0595 (at node 17)
Accepted flit rate average= 0.0485625
	minimum = 0.0355 (at node 46)
	maximum = 0.061 (at node 42)
Injected packet length average = 1
Accepted packet length average = 1
Total in-flight flits = 129 (0 measured)
latency change    = 0.0183145
throughput change = 0.00514801
Class 0:
Packet latency average = 39.5965
	minimum = 7
	maximum = 187
Network latency average = 39.4062
	minimum = 7
	maximum = 187
Slowest packet = 47204
Flit latency average = 39.4062
	minimum = 7
	maximum = 187
Slowest flit = 47204
Fragmentation average = 0
	minimum = 0
	maximum = 0
Injected packet rate average = 0.0517188
	minimum = 0.034 (at node 37)
	maximum = 0.07 (at node 32)
Accepted packet rate average = 0.0522813
	minimum = 0.034 (at node 35)
	maximum = 0.068 (at node 16)
Injected flit rate average = 0.0517188
	minimum = 0.034 (at node 37)
	maximum = 0.07 (at node 32)
Accepted flit rate average= 0.0522813
	minimum = 0.034 (at node 35)
	maximum = 0.068 (at node 16)
Injected packet length average = 1
Accepted packet length average = 1
Total in-flight flits = 93 (0 measured)
latency change    = 0.0467759
throughput change = 0.0711297
Warmed up ...Time used is 3000 cycles
Class 0:
Packet latency average = 36.9854
	minimum = 7
	maximum = 120
Network latency average = 36.9854
	minimum = 7
	maximum = 120
Slowest packet = 49296
Flit latency average = 37.1264
	minimum = 7
	maximum = 120
Slowest flit = 49296
Fragmentation average = 0
	minimum = 0
	maximum = 0
Injected packet rate average = 0.0488594
	minimum = 0.034 (at node 60)
	maximum = 0.062 (at node 6)
Accepted packet rate average = 0.0485625
	minimum = 0.035 (at node 28)
	maximum = 0.064 (at node 10)
Injected flit rate average = 0.0488594
	minimum = 0.034 (at node 60)
	maximum = 0.062 (at node 6)
Accepted flit rate average= 0.0485625
	minimum = 0.035 (at node 28)
	maximum = 0.064 (at node 10)
Injected packet length average = 1
Accepted packet length average = 1
Total in-flight flits = 112 (112 measured)
latency change    = 0.0705988
throughput change = 0.0765766
Class 0:
Packet latency average = 37.3325
	minimum = 7
	maximum = 136
Network latency average = 37.3325
	minimum = 7
	maximum = 136
Slowest packet = 53832
Flit latency average = 37.3973
	minimum = 7
	maximum = 136
Slowest flit = 53832
Fragmentation average = 0
	minimum = 0
	maximum = 0
Injected packet rate average = 0.0490391
	minimum = 0.0375 (at node 37)
	maximum = 0.059 (at node 56)
Accepted packet rate average = 0.0489375
	minimum = 0.036 (at node 54)
	maximum = 0.0625 (at node 10)
Injected flit rate average = 0.0490391
	minimum = 0.0375 (at node 37)
	maximum = 0.059 (at node 56)
Accepted flit rate average= 0.0489375
	minimum = 0.036 (at node 54)
	maximum = 0.0625 (at node 10)
Injected packet length average = 1
Accepted packet length average = 1
Total in-flight flits = 106 (106 measured)
latency change    = 0.00929797
throughput change = 0.00766284
Class 0:
Packet latency average = 37.403
	minimum = 7
	maximum = 136
Network latency average = 37.4023
	minimum = 7
	maximum = 136
Slowest packet = 53832
Flit latency average = 37.4448
	minimum = 7
	maximum = 136
Slowest flit = 53832
Fragmentation average = 0
	minimum = 0
	maximum = 0
Injected packet rate average = 0.049125
	minimum = 0.0396667 (at node 44)
	maximum = 0.0586667 (at node 56)
Accepted packet rate average = 0.0489896
	minimum = 0.0386667 (at node 4)
	maximum = 0.0586667 (at node 19)
Injected flit rate average = 0.049125
	minimum = 0.0396667 (at node 44)
	maximum = 0.0586667 (at node 56)
Accepted flit rate average= 0.0489896
	minimum = 0.0386667 (at node 4)
	maximum = 0.0586667 (at node 19)
Injected packet length average = 1
Accepted packet length average = 1
Total in-flight flits = 119 (119 measured)
latency change    = 0.00188386
throughput change = 0.00106315
Class 0:
Packet latency average = 37.5394
	minimum = 7
	maximum = 136
Network latency average = 37.5389
	minimum = 7
	maximum = 136
Slowest packet = 53832
Flit latency average = 37.5696
	minimum = 7
	maximum = 136
Slowest flit = 53832
Fragmentation average = 0
	minimum = 0
	maximum = 0
Injected packet rate average = 0.0494062
	minimum = 0.0415 (at node 44)
	maximum = 0.05625 (at node 13)
Accepted packet rate average = 0.04925
	minimum = 0.0405 (at node 53)
	maximum = 0.06025 (at node 19)
Injected flit rate average = 0.0494062
	minimum = 0.0415 (at node 44)
	maximum = 0.05625 (at node 13)
Accepted flit rate average= 0.04925
	minimum = 0.0405 (at node 53)
	maximum = 0.06025 (at node 19)
Injected packet length average = 1
Accepted packet length average = 1
Total in-flight flits = 133 (133 measured)
latency change    = 0.00363266
throughput change = 0.00528765
Draining all recorded packets ...
Draining remaining packets ...
Time taken is 7141 cycles
Class 0:
Packet latency average = 38.2865
	minimum = 7
	maximum = 146
Network latency average = 38.284
	minimum = 7
	maximum = 146
Slowest packet = 62399
Flit latency average = 38.284
	minimum = 7
	maximum = 146
Slowest flit = 62399
Fragmentation average = 0
	minimum = 0
	maximum = 0
Injected packet rate average = 0.0518906
	minimum = 0.031 (at node 45)
	maximum = 0.072 (at node 11)
Accepted packet rate average = 0.0498437
	minimum = 0.031 (at node 39)
	maximum = 0.069 (at node 59)
Injected flit rate average = 0.0518906
	minimum = 0.031 (at node 45)
	maximum = 0.072 (at node 11)
Accepted flit rate average= 0.0498437
	minimum = 0.031 (at node 39)
	maximum = 0.069 (at node 59)
Injected packet length average = 1
Accepted packet length average = 1
Total in-flight flits = 131 (0 measured)
latency change    = 1
throughput change = 1
Class 0:
Packet latency average = 38.1494
	minimum = 7
	maximum = 146
Network latency average = 38.1477
	minimum = 7
	maximum = 146
Slowest packet = 62399
Flit latency average = 38.1477
	minimum = 7
	maximum = 146
Slowest flit = 62399
Fragmentation average = 0
	minimum = 0
	maximum = 0
Injected packet rate average = 0.051
	minimum = 0.0415 (at node 9)
	maximum = 0.0625 (at node 11)
Accepted packet rate average = 0.0500391
	minimum = 0.038 (at node 16)
	maximum = 0.0635 (at node 59)
Injected flit rate average = 0.051
	minimum = 0.0415 (at node 9)
	maximum = 0.0625 (at node 11)
Accepted flit rate average= 0.0500391
	minimum = 0.038 (at node 16)
	maximum = 0.0635 (at node 59)
Injected packet length average = 1
Accepted packet length average = 1
Total in-flight flits = 123 (0 measured)
latency change    = 0.00359392
throughput change = 0.0039032
Class 0:
Packet latency average = 37.8508
	minimum = 7
	maximum = 152
Network latency average = 37.843
	minimum = 7
	maximum = 152
Slowest packet = 69828
Flit latency average = 37.843
	minimum = 7
	maximum = 152
Slowest flit = 69828
Fragmentation average = 0
	minimum = 0
	maximum = 0
Injected packet rate average = 0.0502031
	minimum = 0.035 (at node 62)
	maximum = 0.066 (at node 5)
Accepted packet rate average = 0.0500625
	minimum = 0.033 (at node 15)
	maximum = 0.063 (at node 4)
Injected flit rate average = 0.0502031
	minimum = 0.035 (at node 62)
	maximum = 0.066 (at node 5)
Accepted flit rate average= 0.0500625
	minimum = 0.033 (at node 15)
	maximum = 0.063 (at node 4)
Injected packet length average = 1
Accepted packet length average = 1
Total in-flight flits = 132 (0 measured)
latency change    = 0.00788895
throughput change = 0.000468165
Warmed up ...Time used is 3000 cycles
Class 0:
Packet latency average = 36.8242
	minimum = 7
	maximum = 106
Network latency average = 36.8242
	minimum = 7
	maximum = 106
Slowest packet = 72735
Flit latency average = 37.0833
	minimum = 7
	maximum = 106
Slowest flit = 72735
Fragmentation average = 0
	minimum = 0
	maximum = 0
Injected packet rate average = 0.0493281
	minimum = 0.038 (at node 7)
	maximum = 0.064 (at node 47)
Accepted packet rate average = 0.0493437
	minimum = 0.036 (at node 43)
	maximum = 0.071 (at node 26)
Injected flit rate average = 0.0493281
	minimum = 0.038 (at node 7)
	maximum = 0.064 (at node 47)
Accepted flit rate average= 0.0493437
	minimum = 0.036 (at node 43)
	maximum = 0.071 (at node 26)
Injected packet length average = 1
Accepted packet length average = 1
Total in-flight flits = 131 (131 measured)
latency change    = 0.027879
throughput change = 0.0145662
Class 0:
Packet latency average = 37.6081
	minimum = 7
	maximum = 151
Network latency average = 37.6081
	minimum = 7
	maximum = 151
Slowest packet = 74354
Flit latency average = 37.7206
	minimum = 7
	maximum = 151
Slowest flit = 74354
Fragmentation average = 0
	minimum = 0
	maximum = 0
Injected packet rate average = 0.0494844
	minimum = 0.0385 (at node 60)
	maximum = 0.061 (at node 3)
Accepted packet rate average = 0.0496562
	minimum = 0.0385 (at node 1)
	maximum = 0.062 (at node 6)
Injected flit rate average = 0.0494844
	minimum = 0.0385 (at node 60)
	maximum = 0.061 (at node 3)
Accepted flit rate average= 0.0496562
	minimum = 0.0385 (at node 1)
	maximum = 0.062 (at node 6)
Injected packet length average = 1
Accepted packet length average = 1
Total in-flight flits = 110 (110 measured)
latency change    = 0.0208449
throughput change = 0.00629327
Class 0:
Packet latency average = 37.4068
	minimum = 7
	maximum = 151
Network latency average = 37.4058
	minimum = 7
	maximum = 151
Slowest packet = 74354
Flit latency average = 37.4835
	minimum = 7
	maximum = 151
Slowest flit = 74354
Fragmentation average = 0
	minimum = 0
	maximum = 0
Injected packet rate average = 0.0496667
	minimum = 0.041 (at node 0)
	maximum = 0.0593333 (at node 29)
Accepted packet rate average = 0.0497135
	minimum = 0.039 (at node 2)
	maximum = 0.0593333 (at node 17)
Injected flit rate average = 0.0496667
	minimum = 0.041 (at node 0)
	maximum = 0.0593333 (at node 29)
Accepted flit rate average= 0.0497135
	minimum = 0.039 (at node 2)
	maximum = 0.0593333 (at node 17)
Injected packet length average = 1
Accepted packet length average = 1
Total in-flight flits = 123 (123 measured)
latency change    = 0.00538277
throughput change = 0.00115244
Draining all recorded packets ...
Draining remaining packets ...
Time taken is 6136 cycles
Class 0:
Packet latency average = 37.1701
	minimum = 7
	maximum = 106
Network latency average = 37.1695
	minimum = 7
	maximum = 106
Slowest packet = 81259
Flit latency average = 37.1695
	minimum = 7
	maximum = 106
Slowest flit = 81259
Fragmentation average = 0
	minimum = 0
	maximum = 0
Injected packet rate average = 0.0501719
	minimum = 0.035 (at node 54)
	maximum = 0.067 (at node 2)
Accepted packet rate average = 0.0480312
	minimum = 0.031 (at node 31)
	maximum = 0.066 (at node 37)
Injected flit rate average = 0.0501719
	minimum = 0.035 (at node 54)
	maximum = 0.067 (at node 2)
Accepted flit rate average= 0.0480312
	minimum = 0.031 (at node 31)
	maximum = 0.066 (at node 37)
Injected packet length average = 1
Accepted packet length average = 1
Total in-flight flits = 137 (0 measured)
latency change    = 1
throughput change = 1
Class 0:
Packet latency average = 37.6973
	minimum = 7
	maximum = 117
Network latency average = 37.6968
	minimum = 7
	maximum = 117
Slowest packet = 85121
Flit latency average = 37.6968
	minimum = 7
	maximum = 117
Slowest flit = 85121
Fragmentation average = 0
	minimum = 0
	maximum = 0
Injected packet rate average = 0.0501797
	minimum = 0.037 (at node 54)
	maximum = 0.0625 (at node 3)
Accepted packet rate average = 0.0492656
	minimum = 0.0385 (at node 44)
	maximum = 0.059 (at node 37)
Injected flit rate average = 0.0501797
	minimum = 0.037 (at node 54)
	maximum = 0.0625 (at node 3)
Accepted flit rate average= 0.0492656
	minimum = 0.0385 (at node 44)
	maximum = 0.059 (at node 37)
Injected packet length average = 1
Accepted packet length average = 1
Total in-flight flits = 117 (0 measured)
latency change    = 0.0139834
throughput change = 0.0250555
Class 0:
Packet latency average = 37.2389
	minimum = 7
	maximum = 128
Network latency average = 37.2376
	minimum = 7
	maximum = 128
Slowest packet = 88161
Flit latency average = 37.2376
	minimum = 7
	maximum = 128
Slowest flit = 88161
Fragmentation average = 0
	minimum = 0
	maximum = 0
Injected packet rate average = 0.0481406
	minimum = 0.033 (at node 24)
	maximum = 0.067 (at node 26)
Accepted packet rate average = 0.0483906
	minimum = 0.027 (at node 56)
	maximum = 0.064 (at node 2)
Injected flit rate average = 0.0481406
	minimum = 0.033 (at node 24)
	maximum = 0.067 (at node 26)
Accepted flit rate average= 0.0483906
	minimum = 0.027 (at node 56)
	maximum = 0.064 (at node 2)
Injected packet length average = 1
Accepted packet length average = 1
Total in-flight flits = 101 (0 measured)
latency change    = 0.0123079
throughput change = 0.018082
Warmed up ...Time used is 3000 cycles
Class 0:
Packet latency average = 37.599
	minimum = 7
	maximum = 127
Network latency average = 37.5987
	minimum = 7
	maximum = 127
Slowest packet = 92868
Flit latency average = 37.658
	minimum = 7
	maximum = 127
Slowest flit = 92868
Fragmentation average = 0
	minimum = 0
	maximum = 0
Injected packet rate average = 0.0506719
	minimum = 0.036 (at node 44)
	maximum = 0.063 (at node 7)
Accepted packet rate average = 0.0506719
	minimum = 0.032 (at node 34)
	maximum = 0.067 (at node 44)
Injected flit rate average = 0.0506719
	minimum = 0.036 (at node 44)
	maximum = 0.063 (at node 7)
Accepted flit rate average= 0.0506719
	minimum = 0.032 (at node 34)
	maximum = 0.067 (at node 44)
Injected packet length average = 1
Accepted packet length average = 1
Total in-flight flits = 101 (101 measured)
latency change    = 0.00957581
throughput change = 0.04502
Class 0:
Packet latency average = 37.9851
	minimum = 7
	maximum = 177
Network latency average = 37.9791
	minimum = 7
	maximum = 177
Slowest packet = 94845
Flit latency average = 38.0026
	minimum = 7
	maximum = 177
Slowest flit = 94845
Fragmentation average = 0
	minimum = 0
	maximum = 0
Injected packet rate average = 0.0512656
	minimum = 0.037 (at node 6)
	maximum = 0.061 (at node 54)
Accepted packet rate average = 0.0511406
	minimum = 0.041 (at node 63)
	maximum = 0.062 (at node 51)
Injected flit rate average = 0.0512656
	minimum = 0.037 (at node 6)
	maximum = 0.061 (at node 54)
Accepted flit rate average= 0.0511406
	minimum = 0.041 (at node 63)
	maximum = 0.062 (at node 51)
Injected packet length average = 1
Accepted packet length average = 1
Total in-flight flits = 117 (117 measured)
latency change    = 0.0101651
throughput change = 0.0091659
Class 0:
Packet latency average = 37.8433
	minimum = 7
	maximum = 177
Network latency average = 37.8392
	minimum = 7
	maximum = 177
Slowest packet = 94845
Flit latency average = 37.8566
	minimum = 7
	maximum = 177
Slowest flit = 94845
Fragmentation average = 0
	minimum = 0
	maximum = 0
Injected packet rate average = 0.0503698
	minimum = 0.0403333 (at node 6)
	maximum = 0.0576667 (at node 21)
Accepted packet rate average = 0.0503125
	minimum = 0.041 (at node 63)
	maximum = 0.0593333 (at node 30)
Injected flit rate average = 0.0503698
	minimum = 0.0403333 (at node 6)
	maximum = 0.0576667 (at node 21)
Accepted flit rate average= 0.0503125
	minimum = 0.041 (at node 63)
	maximum = 0.0593333 (at node 30)
Injected packet length average = 1
Accepted packet length average = 1
Total in-flight flits = 112 (112 measured)
latency change    = 0.00374745
throughput change = 0.0164596
Draining all recorded packets ...
Draining remaining packets ...
Time taken is 6143 cycles
Class 0:
Packet latency average = 36.9591
	minimum = 7
	maximum = 107
Network latency average = 36.9581
	minimum = 7
	maximum = 107
Slowest packet = 102078
Flit latency average = 36.9581
	minimum = 7
	maximum = 107
Slowest flit = 102078
Fragmentation average = 0
	minimum = 0
	maximum = 0
Injected packet rate average = 0.0489687
	minimum = 0.026 (at node 4)
	maximum = 0.068 (at node 52)
Accepted packet rate average = 0.0469844
	minimum = 0.033 (at node 12)
	maximum = 0.059 (at node 16)
Injected flit rate average = 0.0489687
	minimum = 0.026 (at node 4)
	maximum = 0.068 (at node 52)
Accepted flit rate average= 0.0469844
	minimum = 0.033 (at node 12)
	maximum = 0.059 (at node 16)
Injected packet length average = 1
Accepted packet length average = 1
Total in-flight flits = 127 (0 measured)
latency change    = 1
throughput change = 1
Class 0:
Packet latency average = 37.2143
	minimum = 7
	maximum = 124
Network latency average = 37.2027
	minimum = 7
	maximum = 124
Slowest packet = 104736
Flit latency average = 37.2027
	minimum = 7
	maximum = 124
Slowest flit = 104736
Fragmentation average = 0
	minimum = 0
	maximum = 0
Injected packet rate average = 0.0500078
	minimum = 0.0345 (at node 4)
	maximum = 0.0595 (at node 13)
Accepted packet rate average = 0.0490703
	minimum = 0.0385 (at node 41)
	maximum = 0.058 (at node 62)
Injected flit rate average = 0.0500078
	minimum = 0.0345 (at node 4)
	maximum = 0.0595 (at node 13)
Accepted flit rate average= 0.0490703
	minimum = 0.0385 (at node 41)
	maximum = 0.058 (at node 62)
Injected packet length average = 1
Accepted packet length average = 1
Total in-flight flits = 120 (0 measured)
latency change    = 0.00685762
throughput change = 0.0425092
Class 0:
Packet latency average = 37.5469
	minimum = 7
	maximum = 117
Network latency average = 37.5463
	minimum = 7
	maximum = 117
Slowest packet = 106906
Flit latency average = 37.5463
	minimum = 7
	maximum = 117
Slowest flit = 106906
Fragmentation average = 0
	minimum = 0
	maximum = 0
Injected packet rate average = 0.0494531
	minimum = 0.036 (at node 48)
	maximum = 0.062 (at node 56)
Accepted packet rate average = 0.0496562
	minimum = 0.03 (at node 53)
	maximum = 0.065 (at node 60)
Injected flit rate average = 0.0494531
	minimum = 0.036 (at node 48)
	maximum = 0.062 (at node 56)
Accepted flit rate average= 0.0496562
	minimum = 0.03 (at node 53)
	maximum = 0.065 (at node 60)
Injected packet length average = 1
Accepted packet length average = 1
Total in-flight flits = 107 (0 measured)
latency change    = 0.00885793
throughput change = 0.0117999
Warmed up ...Time used is 3000 cycles
Class 0:
Packet latency average = 38.6246
	minimum = 7
	maximum = 125
Network latency average = 38.6243
	minimum = 7
	maximum = 125
Slowest packet = 111401
Flit latency average = 38.7255
	minimum = 7
	maximum = 125
Slowest flit = 111401
Fragmentation average = 0
	minimum = 0
	maximum = 0
Injected packet rate average = 0.0513125
	minimum = 0.034 (at node 40)
	maximum = 0.071 (at node 33)
Accepted packet rate average = 0.0512813
	minimum = 0.037 (at node 37)
	maximum = 0.076 (at node 52)
Injected flit rate average = 0.0513125
	minimum = 0.034 (at node 40)
	maximum = 0.071 (at node 33)
Accepted flit rate average= 0.0512813
	minimum = 0.037 (at node 37)
	maximum = 0.076 (at node 52)
Injected packet length average = 1
Accepted packet length average = 1
Total in-flight flits = 109 (109 measured)
latency change    = 0.0279015
throughput change = 0.031688
Class 0:
Packet latency average = 38.1067
	minimum = 7
	maximum = 140
Network latency average = 38.1019
	minimum = 7
	maximum = 140
Slowest packet = 113680
Flit latency average = 38.1614
	minimum = 7
	maximum = 140
Slowest flit = 113680
Fragmentation average = 0
	minimum = 0
	maximum = 0
Injected packet rate average = 0.0510547
	minimum = 0.0425 (at node 24)
	maximum = 0.0655 (at node 16)
Accepted packet rate average = 0.0509063
	minimum = 0.0405 (at node 46)
	maximum = 0.07 (at node 52)
Injected flit rate average = 0.0510547
	minimum = 0.0425 (at node 24)
	maximum = 0.0655 (at node 16)
Accepted flit rate average= 0.0509063
	minimum = 0.0405 (at node 46)
	maximum = 0.07 (at node 52)
Injected packet length average = 1
Accepted packet length average = 1
Total in-flight flits = 126 (126 measured)
latency change    = 0.0135893
throughput change = 0.00736648
Class 0:
Packet latency average = 37.7793
	minimum = 7
	maximum = 140
Network latency average = 37.7742
	minimum = 7
	maximum = 140
Slowest packet = 113680
Flit latency average = 37.8174
	minimum = 7
	maximum = 140
Slowest flit = 113680
Fragmentation average = 0
	minimum = 0
	maximum = 0
Injected packet rate average = 0.0511771
	minimum = 0.0416667 (at node 27)
	maximum = 0.062 (at node 16)
Accepted packet rate average = 0.0510313
	minimum = 0.044 (at node 59)
	maximum = 0.0673333 (at node 52)
Injected flit rate average = 0.0511771
	minimum = 0.0416667 (at node 27)
	maximum = 0.062 (at node 16)
Accepted flit rate average= 0.0510313
	minimum = 0.044 (at node 59)
	maximum = 0.0673333 (at node 52)
Injected packet length average = 1
Accepted packet length average = 1
Total in-flight flits = 135 (135 measured)
latency change    = 0.00866732
throughput change = 0.00244948
Draining all recorded packets ...
Draining remaining packets ...
Time taken is 6177 cycles
Class 0:
Packet latency average = 36.4979
	minimum = 7
	maximum = 120
Network latency average = 36.4979
	minimum = 7
	maximum = 120
Slowest packet = 121266
Flit latency average = 36.4979
	minimum = 7
	maximum = 120
Slowest flit = 121266
Fragmentation average = 0
	minimum = 0
	maximum = 0
Injected packet rate average = 0.0492656
	minimum = 0.034 (at node 24)
	maximum = 0.068 (at node 46)
Accepted packet rate average = 0.0475469
	minimum = 0.034 (at node 31)
	maximum = 0.06 (at node 21)
Injected flit rate average = 0.0492656
	minimum = 0.034 (at node 24)
	maximum = 0.068 (at node 46)
Accepted flit rate average= 0.0475469
	minimum = 0.034 (at node 31)
	maximum = 0.06 (at node 21)
Injected packet length average = 1
Accepted packet length average = 1
Total in-flight flits = 110 (0 measured)
latency change    = 1
throughput change = 1
Class 0:
Packet latency average = 37.1968
	minimum = 7
	maximum = 141
Network latency average = 37.1968
	minimum = 7
	maximum = 141
Slowest packet = 125794
Flit latency average = 37.1968
	minimum = 7
	maximum = 141
Slowest flit = 125794
Fragmentation average = 0
	minimum = 0
	maximum = 0
Injected packet rate average = 0.0495391
	minimum = 0.04 (at node 24)
	maximum = 0.062 (at node 46)
Accepted packet rate average = 0.0486641
	minimum = 0.0395 (at node 22)
	maximum = 0.06 (at node 9)
Injected flit rate average = 0.0495391
	minimum = 0.04 (at node 24)
	maximum = 0.062 (at node 46)
Accepted flit rate average= 0.0486641
	minimum = 0.0395 (at node 22)
	maximum = 0.06 (at node 9)
Injected packet length average = 1
Accepted packet length average = 1
Total in-flight flits = 112 (0 measured)
latency change    = 0.0187908
throughput change = 0.0229571
Class 0:
Packet latency average = 37.4712
	minimum = 7
	maximum = 101
Network latency average = 37.4703
	minimum = 7
	maximum = 101
Slowest packet = 126768
Flit latency average = 37.4703
	minimum = 7
	maximum = 101
Slowest flit = 126768
Fragmentation average = 0
	minimum = 0
	maximum = 0
Injected packet rate average = 0.0484219
	minimum = 0.027 (at node 51)
	maximum = 0.065 (at node 44)
Accepted packet rate average = 0.0486406
	minimum = 0.032 (at node 37)
	maximum = 0.074 (at node 17)
Injected flit rate average = 0.0484219
	minimum = 0.027 (at node 51)
	maximum = 0.065 (at node 44)
Accepted flit rate average= 0.0486406
	minimum = 0.032 (at node 37)
	maximum = 0.074 (at node 17)
Injected packet length average = 1
Accepted packet length average = 1
Total in-flight flits = 98 (0 measured)
latency change    = 0.0073237
throughput change = 0.00048185
Warmed up ...Time used is 3000 cycles
Class 0:
Packet latency average = 37.5163
	minimum = 7
	maximum = 139
Network latency average = 37.5104
	minimum = 7
	maximum = 139
Slowest packet = 131865
Flit latency average = 37.6042
	minimum = 7
	maximum = 139
Slowest flit = 131865
Fragmentation average = 0
	minimum = 0
	maximum = 0
Injected packet rate average = 0.0494062
	minimum = 0.033 (at node 57)
	maximum = 0.067 (at node 58)
Accepted packet rate average = 0.0489531
	minimum = 0.033 (at node 24)
	maximum = 0.07 (at node 59)
Injected flit rate average = 0.0494062
	minimum = 0.033 (at node 57)
	maximum = 0.067 (at node 58)
Accepted flit rate average= 0.0489531
	minimum = 0.033 (at node 24)
	maximum = 0.07 (at node 59)
Injected packet length average = 1
Accepted packet length average = 1
Total in-flight flits = 127 (127 measured)
latency change    = 0.00120108
throughput change = 0.00638366
Class 0:
Packet latency average = 37.7457
	minimum = 7
	maximum = 139
Network latency average = 37.7422
	minimum = 7
	maximum = 139
Slowest packet = 131865
Flit latency average = 37.7845
	minimum = 7
	maximum = 139
Slowest flit = 131865
Fragmentation average = 0
	minimum = 0
	maximum = 0
Injected packet rate average = 0.0502969
	minimum = 0.0425 (at node 20)
	maximum = 0.062 (at node 34)
Accepted packet rate average = 0.0501094
	minimum = 0.037 (at node 4)
	maximum = 0.064 (at node 26)
Injected flit rate average = 0.0502969
	minimum = 0.0425 (at node 20)
	maximum = 0.062 (at node 34)
Accepted flit rate average= 0.0501094
	minimum = 0.037 (at node 4)
	maximum = 0.064 (at node 26)
Injected packet length average = 1
Accepted packet length average = 1
Total in-flight flits = 122 (122 measured)
latency change    = 0.00607792
throughput change = 0.0230745
Class 0:
Packet latency average = 37.6824
	minimum = 7
	maximum = 139
Network latency average = 37.6798
	minimum = 7
	maximum = 139
Slowest packet = 131865
Flit latency average = 37.7087
	minimum = 7
	maximum = 139
Slowest flit = 131865
Fragmentation average = 0
	minimum = 0
	maximum = 0
Injected packet rate average = 0.0502083
	minimum = 0.0426667 (at node 33)
	maximum = 0.0616667 (at node 58)
Accepted packet rate average = 0.0500573
	minimum = 0.037 (at node 4)
	maximum = 0.059 (at node 26)
Injected flit rate average = 0.0502083
	minimum = 0.0426667 (at node 33)
	maximum = 0.0616667 (at node 58)
Accepted flit rate average= 0.0500573
	minimum = 0.037 (at node 4)
	maximum = 0.059 (at node 26)
Injected packet length average = 1
Accepted packet length average = 1
Total in-flight flits = 127 (127 measured)
latency change    = 0.00167958
throughput change = 0.00104047
Draining all recorded packets ...
Draining remaining packets ...
Time taken is 6184 cycles
Class 0:
Packet latency average = 37.5556
	minimum = 7
	maximum = 135
Network latency average = 37.5539
	minimum = 7
	maximum = 135
Slowest packet = 142052
Flit latency average = 37.5539
	minimum = 7
	maximum = 135
Slowest flit = 142052
Fragmentation average = 0
	minimum = 0
	maximum = 0
Injected packet rate average = 0.0505625
	minimum = 0.035 (at node 46)
	maximum = 0.07 (at node 27)
Accepted packet rate average = 0.0485156
	minimum = 0.029 (at node 57)
	maximum = 0.069 (at node 15)
Injected flit rate average = 0.0505625
	minimum = 0.035 (at node 46)
	maximum = 0.07 (at node 27)
Accepted flit rate average= 0.0485156
	minimum = 0.029 (at node 57)
	maximum = 0.069 (at node 15)
Injected packet length average = 1
Accepted packet length average = 1
Total in-flight flits = 131 (0 measured)
latency change    = 1
throughput change = 1
Class 0:
Packet latency average = 37.3913
	minimum = 7
	maximum = 135
Network latency average = 37.3905
	minimum = 7
	maximum = 135
Slowest packet = 142052
Flit latency average = 37.3905
	minimum = 7
	maximum = 135
Slowest flit = 142052
Fragmentation average = 0
	minimum = 0
	maximum = 0
Injected packet rate average = 0.0500234
	minimum = 0.0405 (at node 54)
	maximum = 0.057 (at node 63)
Accepted packet rate average = 0.0490937
	minimum = 0.034 (at node 57)
	maximum = 0.062 (at node 28)
Injected flit rate average = 0.0500234
	minimum = 0.0405 (at node 54)
	maximum = 0.057 (at node 63)
Accepted flit rate average= 0.0490937
	minimum = 0.034 (at node 57)
	maximum = 0.062 (at node 28)
Injected packet length average = 1
Accepted packet length average = 1
Total in-flight flits = 119 (0 measured)
latency change    = 0.00439258
throughput change = 0.0117759
Class 0:
Packet latency average = 37.7662
	minimum = 7
	maximum = 115
Network latency average = 37.764
	minimum = 7
	maximum = 115
Slowest packet = 146448
Flit latency average = 37.764
	minimum = 7
	maximum = 115
Slowest flit = 146448
Fragmentation average = 0
	minimum = 0
	maximum = 0
Injected packet rate average = 0.0499844
	minimum = 0.033 (at node 63)
	maximum = 0.068 (at node 13)
Accepted packet rate average = 0.0499844
	minimum = 0.037 (at node 29)
	maximum = 0.067 (at node 48)
Injected flit rate average = 0.0499844
	minimum = 0.033 (at node 63)
	maximum = 0.068 (at node 13)
Accepted flit rate average= 0.0499844
	minimum = 0.037 (at node 29)
	maximum = 0.067 (at node 48)
Injected packet length average = 1
Accepted packet length average = 1
Total in-flight flits = 119 (0 measured)
latency change    = 0.00992596
throughput change = 0.0178181
Warmed up ...Time used is 3000 cycles
Class 0:
Packet latency average = 37.6104
	minimum = 7
	maximum = 121
Network latency average = 37.6104
	minimum = 7
	maximum = 121
Slowest packet = 149095
Flit latency average = 38.1115
	minimum = 7
	maximum = 126
Slowest flit = 149044
Fragmentation average = 0
	minimum = 0
	maximum = 0
Injected packet rate average = 0.0497812
	minimum = 0.036 (at node 35)
	maximum = 0.063 (at node 13)
Accepted packet rate average = 0.04975
	minimum = 0.035 (at node 11)
	maximum = 0.066 (at node 20)
Injected flit rate average = 0.0497812
	minimum = 0.036 (at node 35)
	maximum = 0.063 (at node 13)
Accepted flit rate average= 0.04975
	minimum = 0.035 (at node 11)
	maximum = 0.066 (at node 20)
Injected packet length average = 1
Accepted packet length average = 1
Total in-flight flits = 121 (121 measured)
latency change    = 0.00414078
throughput change = 0.00471106
Class 0:
Packet latency average = 37.5206
	minimum = 7
	maximum = 149
Network latency average = 37.5197
	minimum = 7
	maximum = 149
Slowest packet = 152996
Flit latency average = 37.7745
	minimum = 7
	maximum = 149
Slowest flit = 152996
Fragmentation average = 0
	minimum = 0
	maximum = 0
Injected packet rate average = 0.0491484
	minimum = 0.0355 (at node 40)
	maximum = 0.063 (at node 39)
Accepted packet rate average = 0.0492344
	minimum = 0.0395 (at node 60)
	maximum = 0.059 (at node 20)
Injected flit rate average = 0.0491484
	minimum = 0.0355 (at node 40)
	maximum = 0.063 (at node 39)
Accepted flit rate average= 0.0492344
	minimum = 0.0395 (at node 60)
	maximum = 0.059 (at node 20)
Injected packet length average = 1
Accepted packet length average = 1
Total in-flight flits = 108 (108 measured)
latency change    = 0.00239387
throughput change = 0.0104729
Class 0:
Packet latency average = 37.5279
	minimum = 7
	maximum = 149
Network latency average = 37.5269
	minimum = 7
	maximum = 149
Slowest packet = 152996
Flit latency average = 37.6971
	minimum = 7
	maximum = 149
Slowest flit = 152996
Fragmentation average = 0
	minimum = 0
	maximum = 0
Injected packet rate average = 0.0491198
	minimum = 0.0353333 (at node 40)
	maximum = 0.0573333 (at node 50)
Accepted packet rate average = 0.0491354
	minimum = 0.0403333 (at node 16)
	maximum = 0.0573333 (at node 41)
Injected flit rate average = 0.0491198
	minimum = 0.0353333 (at node 40)
	maximum = 0.0573333 (at node 50)
Accepted flit rate average= 0.0491354
	minimum = 0.0403333 (at node 16)
	maximum = 0.0573333 (at node 41)
Injected packet length average = 1
Accepted packet length average = 1
Total in-flight flits = 116 (116 measured)
latency change    = 0.00019285
throughput change = 0.00201399
Draining all recorded packets ...
Draining remaining packets ...
Time taken is 6146 cycles
Class 0:
Packet latency average = 38.9826
	minimum = 7
	maximum = 169
Network latency average = 38.9767
	minimum = 7
	maximum = 169
Slowest packet = 159665
Flit latency average = 38.9767
	minimum = 7
	maximum = 169
Slowest flit = 159665
Fragmentation average = 0
	minimum = 0
	maximum = 0
Injected packet rate average = 0.0495469
	minimum = 0.036 (at node 42)
	maximum = 0.064 (at node 54)
Accepted packet rate average = 0.047625
	minimum = 0.033 (at node 47)
	maximum = 0.068 (at node 0)
Injected flit rate average = 0.0495469
	minimum = 0.036 (at node 42)
	maximum = 0.064 (at node 54)
Accepted flit rate average= 0.047625
	minimum = 0.033 (at node 47)
	maximum = 0.068 (at node 0)
Injected packet length average = 1
Accepted packet length average = 1
Total in-flight flits = 123 (0 measured)
latency change    = 1
throughput change = 1
Class 0:
Packet latency average = 38.303
	minimum = 7
	maximum = 169
Network latency average = 38.2994
	minimum = 7
	maximum = 169
Slowest packet = 159665
Flit latency average = 38.2994
	minimum = 7
	maximum = 169
Slowest flit = 159665
Fragmentation average = 0
	minimum = 0
	maximum = 0
Injected packet rate average = 0.049875
	minimum = 0.04 (at node 12)
	maximum = 0.0585 (at node 11)
Accepted packet rate average = 0.0489297
	minimum = 0.0355 (at node 12)
	maximum = 0.06 (at node 13)
Injected flit rate average = 0.049875
	minimum = 0.04 (at node 12)
	maximum = 0.0585 (at node 11)
Accepted flit rate average= 0.0489297
	minimum = 0.0355 (at node 12)
	maximum = 0.06 (at node 13)
Injected packet length average = 1
Accepted packet length average = 1
Total in-flight flits = 121 (0 measured)
latency change    = 0.0177417
throughput change = 0.0266645
Class 0:
Packet latency average = 38.5486
	minimum = 7
	maximum = 226
Network latency average = 38.4591
	minimum = 7
	maximum = 226
Slowest packet = 165685
Flit latency average = 38.4591
	minimum = 7
	maximum = 226
Slowest flit = 165685
Fragmentation average = 0
	minimum = 0
	maximum = 0
Injected packet rate average = 0.0504219
	minimum = 0.034 (at node 15)
	maximum = 0.072 (at node 54)
Accepted packet rate average = 0.0506094
	minimum = 0.038 (at node 10)
	maximum = 0.065 (at node 50)
Injected flit rate average = 0.0504219
	minimum = 0.034 (at node 15)
	maximum = 0.072 (at node 54)
Accepted flit rate average= 0.0506094
	minimum = 0.038 (at node 10)
	maximum = 0.065 (at node 50)
Injected packet length average = 1
Accepted packet length average = 1
Total in-flight flits = 109 (0 measured)
latency change    = 0.00637056
throughput change = 0.0331893
Warmed up ...Time used is 3000 cycles
Class 0:
Packet latency average = 37.2669
	minimum = 7
	maximum = 117
Network latency average = 37.2669
	minimum = 7
	maximum = 117
Slowest packet = 169146
Flit latency average = 37.4414
	minimum = 7
	maximum = 117
Slowest flit = 169146
Fragmentation average = 0
	minimum = 0
	maximum = 0
Injected packet rate average = 0.0510938
	minimum = 0.036 (at node 7)
	maximum = 0.062 (at node 12)
Accepted packet rate average = 0.0509375
	minimum = 0.035 (at node 19)
	maximum = 0.067 (at node 25)
Injected flit rate average = 0.0510938
	minimum = 0.036 (at node 7)
	maximum = 0.062 (at node 12)
Accepted flit rate average= 0.0509375
	minimum = 0.035 (at node 19)
	maximum = 0.067 (at node 25)
Injected packet length average = 1
Accepted packet length average = 1
Total in-flight flits = 119 (119 measured)
latency change    = 0.0343932
throughput change = 0.00644172
Class 0:
Packet latency average = 38.0285
	minimum = 7
	maximum = 135
Network latency average = 38.0272
	minimum = 7
	maximum = 135
Slowest packet = 173577
Flit latency average = 38.1021
	minimum = 7
	maximum = 135
Slowest flit = 173577
Fragmentation average = 0
	minimum = 0
	maximum = 0
Injected packet rate average = 0.0507422
	minimum = 0.0425 (at node 52)
	maximum = 0.06 (at node 32)
Accepted packet rate average = 0.0507422
	minimum = 0.0385 (at node 19)
	maximum = 0.0595 (at node 1)
Injected flit rate average = 0.0507422
	minimum = 0.0425 (at node 52)
	maximum = 0.06 (at node 32)
Accepted flit rate average= 0.0507422
	minimum = 0.0385 (at node 19)
	maximum = 0.0595 (at node 1)
Injected packet length average = 1
Accepted packet length average = 1
Total in-flight flits = 109 (109 measured)
latency change    = 0.0200271
throughput change = 0.00384911
Class 0:
Packet latency average = 37.7397
	minimum = 7
	maximum = 135
Network latency average = 37.7367
	minimum = 7
	maximum = 135
Slowest packet = 173577
Flit latency average = 37.7903
	minimum = 7
	maximum = 135
Slowest flit = 173577
Fragmentation average = 0
	minimum = 0
	maximum = 0
Injected packet rate average = 0.0503385
	minimum = 0.0416667 (at node 50)
	maximum = 0.057 (at node 32)
Accepted packet rate average = 0.05025
	minimum = 0.0423333 (at node 19)
	maximum = 0.059 (at node 31)
Injected flit rate average = 0.0503385
	minimum = 0.0416667 (at node 50)
	maximum = 0.057 (at node 32)
Accepted flit rate average= 0.05025
	minimum = 0.0423333 (at node 19)
	maximum = 0.059 (at node 31)
Injected packet length average = 1
Accepted packet length average = 1
Total in-flight flits = 126 (126 measured)
latency change    = 0.00765241
throughput change = 0.00979478
Draining all recorded packets ...
Draining remaining packets ...
Time taken is 6152 cycles
Class 0:
Packet latency average = 37.7792
	minimum = 7
	maximum = 124
Network latency average = 37.7532
	minimum = 7
	maximum = 124
Slowest packet = 178544
Flit latency average = 37.7532
	minimum = 7
	maximum = 124
Slowest flit = 178544
Fragmentation average = 0
	minimum = 0
	maximum = 0
Injected packet rate average = 0.0509531
	minimum = 0.033 (at node 0)
	maximum = 0.072 (at node 7)
Accepted packet rate average = 0.04875
	minimum = 0.034 (at node 17)
	maximum = 0.065 (at node 60)
Injected flit rate average = 0.0509531
	minimum = 0.033 (at node 0)
	maximum = 0.072 (at node 7)
Accepted flit rate average= 0.04875
	minimum = 0.034 (at node 17)
	maximum = 0.065 (at node 60)
Injected packet length average = 1
Accepted packet length average = 1
Total in-flight flits = 141 (0 measured)
latency change    = 1
throughput change = 1
Class 0:
Packet latency average = 37.7554
	minimum = 7
	maximum = 124
Network latency average = 37.7427
	minimum = 7
	maximum = 124
Slowest packet = 178544
Flit latency average = 37.7427
	minimum = 7
	maximum = 124
Slowest flit = 178544
Fragmentation average = 0
	minimum = 0
	maximum = 0
Injected packet rate average = 0.0506328
	minimum = 0.04 (at node 0)
	maximum = 0.065 (at node 7)
Accepted packet rate average = 0.0497266
	minimum = 0.0395 (at node 3)
	maximum = 0.06 (at node 60)
Injected flit rate average = 0.0506328
	minimum = 0.04 (at node 0)
	maximum = 0.065 (at node 7)
Accepted flit rate average= 0.0497266
	minimum = 0.0395 (at node 3)
	maximum = 0.06 (at node 60)
Injected packet length average = 1
Accepted packet length average = 1
Total in-flight flits = 116 (0 measured)
latency change    = 0.000629994
throughput change = 0.0196386
Class 0:
Packet latency average = 37.9624
	minimum = 7
	maximum = 113
Network latency average = 37.9624
	minimum = 7
	maximum = 113
Slowest packet = 185927
Flit latency average = 37.9624
	minimum = 7
	maximum = 113
Slowest flit = 185927
Fragmentation average = 0
	minimum = 0
	maximum = 0
Injected packet rate average = 0.0510625
	minimum = 0.036 (at node 20)
	maximum = 0.069 (at node 38)
Accepted packet rate average = 0.0507656
	minimum = 0.034 (at node 27)
	maximum = 0.067 (at node 49)
Injected flit rate average = 0.0510625
	minimum = 0.036 (at node 20)
	maximum = 0.069 (at node 38)
Accepted flit rate average= 0.0507656
	minimum = 0.034 (at node 27)
	maximum = 0.067 (at node 49)
Injected packet length average = 1
Accepted packet length average = 1
Total in-flight flits = 135 (0 measured)
latency change    = 0.00545457
throughput change = 0.0204678
Warmed up ...Time used is 3000 cycles
Class 0:
Packet latency average = 37.9245
	minimum = 7
	maximum = 126
Network latency average = 37.9245
	minimum = 7
	maximum = 126
Slowest packet = 188086
Flit latency average = 38.317
	minimum = 7
	maximum = 127
Slowest flit = 187778
Fragmentation average = 0
	minimum = 0
	maximum = 0
Injected packet rate average = 0.0493906
	minimum = 0.032 (at node 14)
	maximum = 0.073 (at node 19)
Accepted packet rate average = 0.0499375
	minimum = 0.034 (at node 44)
	maximum = 0.067 (at node 43)
Injected flit rate average = 0.0493906
	minimum = 0.032 (at node 14)
	maximum = 0.073 (at node 19)
Accepted flit rate average= 0.0499375
	minimum = 0.034 (at node 44)
	maximum = 0.067 (at node 43)
Injected packet length average = 1
Accepted packet length average = 1
Total in-flight flits = 100 (100 measured)
latency change    = 0.000999762
throughput change = 0.0165832
Class 0:
Packet latency average = 37.6915
	minimum = 7
	maximum = 126
Network latency average = 37.6915
	minimum = 7
	maximum = 126
Slowest packet = 188086
Flit latency average = 37.8895
	minimum = 7
	maximum = 127
Slowest flit = 187778
Fragmentation average = 0
	minimum = 0
	maximum = 0
Injected packet rate average = 0.0505859
	minimum = 0.0395 (at node 14)
	maximum = 0.065 (at node 19)
Accepted packet rate average = 0.0507422
	minimum = 0.0385 (at node 44)
	maximum = 0.069 (at node 6)
Injected flit rate average = 0.0505859
	minimum = 0.0395 (at node 14)
	maximum = 0.065 (at node 19)
Accepted flit rate average= 0.0507422
	minimum = 0.0385 (at node 44)
	maximum = 0.069 (at node 6)
Injected packet length average = 1
Accepted packet length average = 1
Total in-flight flits = 115 (115 measured)
latency change    = 0.00618243
throughput change = 0.0158584
Class 0:
Packet latency average = 37.4643
	minimum = 7
	maximum = 126
Network latency average = 37.4627
	minimum = 7
	maximum = 126
Slowest packet = 188086
Flit latency average = 37.5996
	minimum = 7
	maximum = 127
Slowest flit = 187778
Fragmentation average = 0
	minimum = 0
	maximum = 0
Injected packet rate average = 0.0499896
	minimum = 0.0406667 (at node 14)
	maximum = 0.0593333 (at node 19)
Accepted packet rate average = 0.0501146
	minimum = 0.041 (at node 44)
	maximum = 0.061 (at node 32)
Injected flit rate average = 0.0499896
	minimum = 0.0406667 (at node 14)
	maximum = 0.0593333 (at node 19)
Accepted flit rate average= 0.0501146
	minimum = 0.041 (at node 44)
	maximum = 0.061 (at node 32)
Injected packet length average = 1
Accepted packet length average = 1
Total in-flight flits = 111 (111 measured)
latency change    = 0.00606417
throughput change = 0.0125234
Draining all recorded packets ...
Draining remaining packets ...
Time taken is 6135 cycles
Class 0:
Packet latency average = 37.7132
	minimum = 7
	maximum = 143
Network latency average = 37.711
	minimum = 7
	maximum = 143
Slowest packet = 198382
Flit latency average = 37.711
	minimum = 7
	maximum = 143
Slowest flit = 198382
Fragmentation average = 0
	minimum = 0
	maximum = 0
Injected packet rate average = 0.0514531
	minimum = 0.035 (at node 36)
	maximum = 0.066 (at node 3)
Accepted packet rate average = 0.0496875
	minimum = 0.033 (at node 56)
	maximum = 0.066 (at node 19)
Injected flit rate average = 0.0514531
	minimum = 0.035 (at node 36)
	maximum = 0.066 (at node 3)
Accepted flit rate average= 0.0496875
	minimum = 0.033 (at node 56)
	maximum = 0.066 (at node 19)
Injected packet length average = 1
Accepted packet length average = 1
Total in-flight flits = 113 (0 measured)
latency change    = 1
throughput change = 1
Class 0:
Packet latency average = 37.5123
	minimum = 7
	maximum = 143
Network latency average = 37.5112
	minimum = 7
	maximum = 143
Slowest packet = 198382
Flit latency average = 37.5112
	minimum = 7
	maximum = 143
Slowest flit = 198382
Fragmentation average = 0
	minimum = 0
	maximum = 0
Injected packet rate average = 0.0501875
	minimum = 0.0345 (at node 36)
	maximum = 0.062 (at node 33)
Accepted packet rate average = 0.0490859
	minimum = 0.038 (at node 37)
	maximum = 0.061 (at node 47)
Injected flit rate average = 0.0501875
	minimum = 0.0345 (at node 36)
	maximum = 0.062 (at node 33)
Accepted flit rate average= 0.0490859
	minimum = 0.038 (at node 37)
	maximum = 0.061 (at node 47)
Injected packet length average = 1
Accepted packet length average = 1
Total in-flight flits = 142 (0 measured)
latency change    = 0.00535484
throughput change = 0.0122553
Class 0:
Packet latency average = 38.4972
	minimum = 7
	maximum = 214
Network latency average = 38.3773
	minimum = 7
	maximum = 214
Slowest packet = 203894
Flit latency average = 38.3773
	minimum = 7
	maximum = 214
Slowest flit = 203894
Fragmentation average = 0
	minimum = 0
	maximum = 0
Injected packet rate average = 0.04975
	minimum = 0.033 (at node 30)
	maximum = 0.066 (at node 42)
Accepted packet rate average = 0.0502812
	minimum = 0.037 (at node 14)
	maximum = 0.065 (at node 41)
Injected flit rate average = 0.04975
	minimum = 0.033 (at node 30)
	maximum = 0.066 (at node 42)
Accepted flit rate average= 0.0502812
	minimum = 0.037 (at node 14)
	maximum = 0.065 (at node 41)
Injected packet length average = 1
Accepted packet length average = 1
Total in-flight flits = 107 (0 measured)
latency change    = 0.0255829
throughput change = 0.0237725
Warmed up ...Time used is 3000 cycles
Class 0:
Packet latency average = 38.3491
	minimum = 7
	maximum = 139
Network latency average = 38.3472
	minimum = 7
	maximum = 139
Slowest packet = 210242
Flit latency average = 38.5685
	minimum = 7
	maximum = 139
Slowest flit = 210242
Fragmentation average = 0
	minimum = 0
	maximum = 0
Injected packet rate average = 0.0500625
	minimum = 0.036 (at node 59)
	maximum = 0.065 (at node 16)
Accepted packet rate average = 0.0498281
	minimum = 0.04 (at node 17)
	maximum = 0.061 (at node 48)
Injected flit rate average = 0.0500625
	minimum = 0.036 (at node 59)
	maximum = 0.065 (at node 16)
Accepted flit rate average= 0.0498281
	minimum = 0.04 (at node 17)
	maximum = 0.061 (at node 48)
Injected packet length average = 1
Accepted packet length average = 1
Total in-flight flits = 122 (122 measured)
latency change    = 0.00386135
throughput change = 0.00909376
Class 0:
Packet latency average = 37.9393
	minimum = 7
	maximum = 140
Network latency average = 37.933
	minimum = 7
	maximum = 139
Slowest packet = 210242
Flit latency average = 38.0499
	minimum = 7
	maximum = 139
Slowest flit = 210242
Fragmentation average = 0
	minimum = 0
	maximum = 0
Injected packet rate average = 0.0503594
	minimum = 0.042 (at node 63)
	maximum = 0.064 (at node 30)
Accepted packet rate average = 0.0501328
	minimum = 0.0385 (at node 18)
	maximum = 0.057 (at node 27)
Injected flit rate average = 0.0503594
	minimum = 0.042 (at node 63)
	maximum = 0.064 (at node 30)
Accepted flit rate average= 0.0501328
	minimum = 0.0385 (at node 18)
	maximum = 0.057 (at node 27)
Injected packet length average = 1
Accepted packet length average = 1
Total in-flight flits = 136 (136 measured)
latency change    = 0.010802
throughput change = 0.00607761
Class 0:
Packet latency average = 37.8266
	minimum = 7
	maximum = 140
Network latency average = 37.8223
	minimum = 7
	maximum = 139
Slowest packet = 210242
Flit latency average = 37.9021
	minimum = 7
	maximum = 139
Slowest flit = 210242
Fragmentation average = 0
	minimum = 0
	maximum = 0
Injected packet rate average = 0.0497812
	minimum = 0.0413333 (at node 11)
	maximum = 0.061 (at node 45)
Accepted packet rate average = 0.0497448
	minimum = 0.0443333 (at node 7)
	maximum = 0.057 (at node 27)
Injected flit rate average = 0.0497812
	minimum = 0.0413333 (at node 11)
	maximum = 0.061 (at node 45)
Accepted flit rate average= 0.0497448
	minimum = 0.0443333 (at node 7)
	maximum = 0.057 (at node 27)
Injected packet length average = 1
Accepted packet length average = 1
Total in-flight flits = 114 (114 measured)
latency change    = 0.00298061
throughput change = 0.00780023
Draining all recorded packets ...
Draining remaining packets ...
Time taken is 6160 cycles
Class 0:
Packet latency average = 37.1661
	minimum = 7
	maximum = 104
Network latency average = 37.1655
	minimum = 7
	maximum = 104
Slowest packet = 219280
Flit latency average = 37.1655
	minimum = 7
	maximum = 104
Slowest flit = 219280
Fragmentation average = 0
	minimum = 0
	maximum = 0
Injected packet rate average = 0.0498281
	minimum = 0.036 (at node 37)
	maximum = 0.067 (at node 3)
Accepted packet rate average = 0.0481562
	minimum = 0.036 (at node 22)
	maximum = 0.064 (at node 13)
Injected flit rate average = 0.0498281
	minimum = 0.036 (at node 37)
	maximum = 0.067 (at node 3)
Accepted flit rate average= 0.0481562
	minimum = 0.036 (at node 22)
	maximum = 0.064 (at node 13)
Injected packet length average = 1
Accepted packet length average = 1
Total in-flight flits = 107 (0 measured)
latency change    = 1
throughput change = 1
Class 0:
Packet latency average = 37.4729
	minimum = 7
	maximum = 158
Network latency average = 37.4667
	minimum = 7
	maximum = 158
Slowest packet = 221234
Flit latency average = 37.4667
	minimum = 7
	maximum = 158
Slowest flit = 221234
Fragmentation average = 0
	minimum = 0
	maximum = 0
Injected packet rate average = 0.0504375
	minimum = 0.04 (at node 31)
	maximum = 0.064 (at node 3)
Accepted packet rate average = 0.0494297
	minimum = 0.0375 (at node 45)
	maximum = 0.061 (at node 13)
Injected flit rate average = 0.0504375
	minimum = 0.04 (at node 31)
	maximum = 0.064 (at node 3)
Accepted flit rate average= 0.0494297
	minimum = 0.0375 (at node 45)
	maximum = 0.061 (at node 13)
Injected packet length average = 1
Accepted packet length average = 1
Total in-flight flits = 129 (0 measured)
latency change    = 0.0081864
throughput change = 0.0257626
Class 0:
Packet latency average = 38.1924
	minimum = 7
	maximum = 109
Network latency average = 38.1845
	minimum = 7
	maximum = 109
Slowest packet = 223940
Flit latency average = 38.1845
	minimum = 7
	maximum = 109
Slowest flit = 223940
Fragmentation average = 0
	minimum = 0
	maximum = 0
Injected packet rate average = 0.04925
	minimum = 0.033 (at node 20)
	maximum = 0.065 (at node 57)
Accepted packet rate average = 0.0497031
	minimum = 0.038 (at node 6)
	maximum = 0.065 (at node 14)
Injected flit rate average = 0.04925
	minimum = 0.033 (at node 20)
	maximum = 0.065 (at node 57)
Accepted flit rate average= 0.0497031
	minimum = 0.038 (at node 6)
	maximum = 0.065 (at node 14)
Injected packet length average = 1
Accepted packet length average = 1
Total in-flight flits = 100 (0 measured)
latency change    = 0.0188388
throughput change = 0.00550141
Warmed up ...Time used is 3000 cycles
Class 0:
Packet latency average = 36.1278
	minimum = 7
	maximum = 106
Network latency average = 36.1278
	minimum = 7
	maximum = 106
Slowest packet = 227018
Flit latency average = 36.3378
	minimum = 7
	maximum = 106
Slowest flit = 227018
Fragmentation average = 0
	minimum = 0
	maximum = 0
Injected packet rate average = 0.0482187
	minimum = 0.035 (at node 22)
	maximum = 0.061 (at node 17)
Accepted packet rate average = 0.0480156
	minimum = 0.031 (at node 2)
	maximum = 0.066 (at node 9)
Injected flit rate average = 0.0482187
	minimum = 0.035 (at node 22)
	maximum = 0.061 (at node 17)
Accepted flit rate average= 0.0480156
	minimum = 0.031 (at node 2)
	maximum = 0.066 (at node 9)
Injected packet length average = 1
Accepted packet length average = 1
Total in-flight flits = 113 (113 measured)
latency change    = 0.0571464
throughput change = 0.0351448
Class 0:
Packet latency average = 36.4211
	minimum = 7
	maximum = 132
Network latency average = 36.4211
	minimum = 7
	maximum = 132
Slowest packet = 229823
Flit latency average = 36.5201
	minimum = 7
	maximum = 132
Slowest flit = 229823
Fragmentation average = 0
	minimum = 0
	maximum = 0
Injected packet rate average = 0.0489219
	minimum = 0.038 (at node 22)
	maximum = 0.058 (at node 60)
Accepted packet rate average = 0.0486094
	minimum = 0.036 (at node 2)
	maximum = 0.0625 (at node 9)
Injected flit rate average = 0.0489219
	minimum = 0.038 (at node 22)
	maximum = 0.058 (at node 60)
Accepted flit rate average= 0.0486094
	minimum = 0.036 (at node 2)
	maximum = 0.0625 (at node 9)
Injected packet length average = 1
Accepted packet length average = 1
Total in-flight flits = 140 (140 measured)
latency change    = 0.00805267
throughput change = 0.0122147
Class 0:
Packet latency average = 36.797
	minimum = 7
	maximum = 132
Network latency average = 36.7915
	minimum = 7
	maximum = 132
Slowest packet = 229823
Flit latency average = 36.8526
	minimum = 7
	maximum = 132
Slowest flit = 229823
Fragmentation average = 0
	minimum = 0
	maximum = 0
Injected packet rate average = 0.0493646
	minimum = 0.0413333 (at node 22)
	maximum = 0.058 (at node 60)
Accepted packet rate average = 0.0493229
	minimum = 0.039 (at node 25)
	maximum = 0.0583333 (at node 36)
Injected flit rate average = 0.0493646
	minimum = 0.0413333 (at node 22)
	maximum = 0.058 (at node 60)
Accepted flit rate average= 0.0493229
	minimum = 0.039 (at node 25)
	maximum = 0.0583333 (at node 36)
Injected packet length average = 1
Accepted packet length average = 1
Total in-flight flits = 108 (108 measured)
latency change    = 0.0102157
throughput change = 0.0144667
Class 0:
Packet latency average = 36.8044
	minimum = 7
	maximum = 132
Network latency average = 36.8002
	minimum = 7
	maximum = 132
Slowest packet = 229823
Flit latency average = 36.846
	minimum = 7
	maximum = 132
Slowest flit = 229823
Fragmentation average = 0
	minimum = 0
	maximum = 0
Injected packet rate average = 0.0494375
	minimum = 0.04 (at node 22)
	maximum = 0.05775 (at node 17)
Accepted packet rate average = 0.0492773
	minimum = 0.04075 (at node 5)
	maximum = 0.05725 (at node 51)
Injected flit rate average = 0.0494375
	minimum = 0.04 (at node 22)
	maximum = 0.05775 (at node 17)
Accepted flit rate average= 0.0492773
	minimum = 0.04075 (at node 5)
	maximum = 0.05725 (at node 51)
Injected packet length average = 1
Accepted packet length average = 1
Total in-flight flits = 141 (141 measured)
latency change    = 0.000200601
throughput change = 0.000924825
Draining all recorded packets ...
Draining remaining packets ...
Time taken is 7189 cycles
Class 0:
Packet latency average = 37.1549
	minimum = 7
	maximum = 136
Network latency average = 37.1549
	minimum = 7
	maximum = 136
Slowest packet = 241634
Flit latency average = 37.1549
	minimum = 7
	maximum = 136
Slowest flit = 241634
Fragmentation average = 0
	minimum = 0
	maximum = 0
Injected packet rate average = 0.0496094
	minimum = 0.035 (at node 19)
	maximum = 0.069 (at node 51)
Accepted packet rate average = 0.0477031
	minimum = 0.032 (at node 56)
	maximum = 0.062 (at node 10)
Injected flit rate average = 0.0496094
	minimum = 0.035 (at node 19)
	maximum = 0.069 (at node 51)
Accepted flit rate average= 0.0477031
	minimum = 0.032 (at node 56)
	maximum = 0.062 (at node 10)
Injected packet length average = 1
Accepted packet length average = 1
Total in-flight flits = 122 (0 measured)
latency change    = 1
throughput change = 1
Class 0:
Packet latency average = 38.2026
	minimum = 7
	maximum = 180
Network latency average = 38.1885
	minimum = 7
	maximum = 180
Slowest packet = 245562
Flit latency average = 38.1885
	minimum = 7
	maximum = 180
Slowest flit = 245562
Fragmentation average = 0
	minimum = 0
	maximum = 0
Injected packet rate average = 0.0503203
	minimum = 0.041 (at node 55)
	maximum = 0.06 (at node 32)
Accepted packet rate average = 0.0492422
	minimum = 0.036 (at node 8)
	maximum = 0.061 (at node 36)
Injected flit rate average = 0.0503203
	minimum = 0.041 (at node 55)
	maximum = 0.06 (at node 32)
Accepted flit rate average= 0.0492422
	minimum = 0.036 (at node 8)
	maximum = 0.061 (at node 36)
Injected packet length average = 1
Accepted packet length average = 1
Total in-flight flits = 138 (0 measured)
latency change    = 0.0274241
throughput change = 0.031255
Class 0:
Packet latency average = 38.9755
	minimum = 7
	maximum = 171
Network latency average = 38.8823
	minimum = 7
	maximum = 168
Slowest packet = 248239
Flit latency average = 38.8823
	minimum = 7
	maximum = 168
Slowest flit = 248239
Fragmentation average = 0
	minimum = 0
	maximum = 0
Injected packet rate average = 0.0517656
	minimum = 0.037 (at node 39)
	maximum = 0.068 (at node 31)
Accepted packet rate average = 0.051625
	minimum = 0.036 (at node 21)
	maximum = 0.069 (at node 47)
Injected flit rate average = 0.0517656
	minimum = 0.037 (at node 39)
	maximum = 0.068 (at node 31)
Accepted flit rate average= 0.051625
	minimum = 0.036 (at node 21)
	maximum = 0.069 (at node 47)
Injected packet length average = 1
Accepted packet length average = 1
Total in-flight flits = 147 (0 measured)
latency change    = 0.01983
throughput change = 0.0461562
Warmed up ...Time used is 3000 cycles
Class 0:
Packet latency average = 38.2212
	minimum = 7
	maximum = 160
Network latency average = 38.2155
	minimum = 7
	maximum = 160
Slowest packet = 252398
Flit latency average = 38.8037
	minimum = 7
	maximum = 160
Slowest flit = 252398
Fragmentation average = 0
	minimum = 0
	maximum = 0
Injected packet rate average = 0.0512188
	minimum = 0.038 (at node 53)
	maximum = 0.068 (at node 59)
Accepted packet rate average = 0.0511719
	minimum = 0.033 (at node 59)
	maximum = 0.065 (at node 7)
Injected flit rate average = 0.0512188
	minimum = 0.038 (at node 53)
	maximum = 0.068 (at node 59)
Accepted flit rate average= 0.0511719
	minimum = 0.033 (at node 59)
	maximum = 0.065 (at node 7)
Injected packet length average = 1
Accepted packet length average = 1
Total in-flight flits = 150 (150 measured)
latency change    = 0.019734
throughput change = 0.00885496
Class 0:
Packet latency average = 38.6131
	minimum = 7
	maximum = 235
Network latency average = 38.5697
	minimum = 7
	maximum = 235
Slowest packet = 253071
Flit latency average = 38.8584
	minimum = 7
	maximum = 235
Slowest flit = 253071
Fragmentation average = 0
	minimum = 0
	maximum = 0
Injected packet rate average = 0.0506406
	minimum = 0.042 (at node 53)
	maximum = 0.0605 (at node 13)
Accepted packet rate average = 0.0507187
	minimum = 0.0345 (at node 59)
	maximum = 0.066 (at node 18)
Injected flit rate average = 0.0506406
	minimum = 0.042 (at node 53)
	maximum = 0.0605 (at node 13)
Accepted flit rate average= 0.0507187
	minimum = 0.0345 (at node 59)
	maximum = 0.066 (at node 18)
Injected packet length average = 1
Accepted packet length average = 1
Total in-flight flits = 137 (137 measured)
latency change    = 0.0101482
throughput change = 0.00893407
Class 0:
Packet latency average = 38.3957
	minimum = 7
	maximum = 235
Network latency average = 38.3664
	minimum = 7
	maximum = 235
Slowest packet = 253071
Flit latency average = 38.5633
	minimum = 7
	maximum = 235
Slowest flit = 253071
Fragmentation average = 0
	minimum = 0
	maximum = 0
Injected packet rate average = 0.0502917
	minimum = 0.044 (at node 22)
	maximum = 0.058 (at node 13)
Accepted packet rate average = 0.0503854
	minimum = 0.0366667 (at node 59)
	maximum = 0.061 (at node 18)
Injected flit rate average = 0.0502917
	minimum = 0.044 (at node 22)
	maximum = 0.058 (at node 13)
Accepted flit rate average= 0.0503854
	minimum = 0.0366667 (at node 59)
	maximum = 0.061 (at node 18)
Injected packet length average = 1
Accepted packet length average = 1
Total in-flight flits = 129 (129 measured)
latency change    = 0.00566115
throughput change = 0.00661567
Draining all recorded packets ...
Draining remaining packets ...
Time taken is 6153 cycles
Class 0:
Packet latency average = 38.0093
	minimum = 7
	maximum = 115
Network latency average = 38.008
	minimum = 7
	maximum = 115
Slowest packet = 261735
Flit latency average = 38.008
	minimum = 7
	maximum = 115
Slowest flit = 261735
Fragmentation average = 0
	minimum = 0
	maximum = 0
Injected packet rate average = 0.049125
	minimum = 0.026 (at node 18)
	maximum = 0.068 (at node 2)
Accepted packet rate average = 0.0469062
	minimum = 0.029 (at node 32)
	maximum = 0.063 (at node 28)
Injected flit rate average = 0.049125
	minimum = 0.026 (at node 18)
	maximum = 0.068 (at node 2)
Accepted flit rate average= 0.0469062
	minimum = 0.029 (at node 32)
	maximum = 0.063 (at node 28)
Injected packet length average = 1
Accepted packet length average = 1
Total in-flight flits = 143 (0 measured)
latency change    = 1
throughput change = 1
Class 0:
Packet latency average = 38.4317
	minimum = 7
	maximum = 178
Network latency average = 38.3981
	minimum = 7
	maximum = 169
Slowest packet = 263779
Flit latency average = 38.3981
	minimum = 7
	maximum = 169
Slowest flit = 265232
Fragmentation average = 0
	minimum = 0
	maximum = 0
Injected packet rate average = 0.0497734
	minimum = 0.035 (at node 18)
	maximum = 0.0635 (at node 2)
Accepted packet rate average = 0.0488203
	minimum = 0.0375 (at node 12)
	maximum = 0.06 (at node 3)
Injected flit rate average = 0.0497734
	minimum = 0.035 (at node 18)
	maximum = 0.0635 (at node 2)
Accepted flit rate average= 0.0488203
	minimum = 0.0375 (at node 12)
	maximum = 0.06 (at node 3)
Injected packet length average = 1
Accepted packet length average = 1
Total in-flight flits = 122 (0 measured)
latency change    = 0.0109915
throughput change = 0.0392063
Class 0:
Packet latency average = 37.8291
	minimum = 7
	maximum = 115
Network latency average = 37.8197
	minimum = 7
	maximum = 115
Slowest packet = 268309
Flit latency average = 37.8197
	minimum = 7
	maximum = 115
Slowest flit = 268309
Fragmentation average = 0
	minimum = 0
	maximum = 0
Injected packet rate average = 0.0497187
	minimum = 0.035 (at node 26)
	maximum = 0.065 (at node 20)
Accepted packet rate average = 0.0500156
	minimum = 0.036 (at node 5)
	maximum = 0.078 (at node 62)
Injected flit rate average = 0.0497187
	minimum = 0.035 (at node 26)
	maximum = 0.065 (at node 20)
Accepted flit rate average= 0.0500156
	minimum = 0.036 (at node 5)
	maximum = 0.078 (at node 62)
Injected packet length average = 1
Accepted packet length average = 1
Total in-flight flits = 103 (0 measured)
latency change    = 0.0159304
throughput change = 0.0238988
Warmed up ...Time used is 3000 cycles
Class 0:
Packet latency average = 38.0754
	minimum = 7
	maximum = 136
Network latency average = 38.0754
	minimum = 7
	maximum = 136
Slowest packet = 271497
Flit latency average = 38.2011
	minimum = 7
	maximum = 136
Slowest flit = 271497
Fragmentation average = 0
	minimum = 0
	maximum = 0
Injected packet rate average = 0.0506719
	minimum = 0.034 (at node 20)
	maximum = 0.068 (at node 61)
Accepted packet rate average = 0.0505
	minimum = 0.037 (at node 43)
	maximum = 0.078 (at node 41)
Injected flit rate average = 0.0506719
	minimum = 0.034 (at node 20)
	maximum = 0.068 (at node 61)
Accepted flit rate average= 0.0505
	minimum = 0.037 (at node 43)
	maximum = 0.078 (at node 41)
Injected packet length average = 1
Accepted packet length average = 1
Total in-flight flits = 114 (114 measured)
latency change    = 0.00646894
throughput change = 0.00959158
Class 0:
Packet latency average = 38.0124
	minimum = 7
	maximum = 136
Network latency average = 38.0044
	minimum = 7
	maximum = 136
Slowest packet = 271497
Flit latency average = 38.0685
	minimum = 7
	maximum = 136
Slowest flit = 271497
Fragmentation average = 0
	minimum = 0
	maximum = 0
Injected packet rate average = 0.0507812
	minimum = 0.0395 (at node 3)
	maximum = 0.06 (at node 34)
Accepted packet rate average = 0.0504141
	minimum = 0.0415 (at node 52)
	maximum = 0.061 (at node 41)
Injected flit rate average = 0.0507812
	minimum = 0.0395 (at node 3)
	maximum = 0.06 (at node 34)
Accepted flit rate average= 0.0504141
	minimum = 0.0415 (at node 52)
	maximum = 0.061 (at node 41)
Injected packet length average = 1
Accepted packet length average = 1
Total in-flight flits = 151 (151 measured)
latency change    = 0.00165689
throughput change = 0.00170463
Class 0:
Packet latency average = 38.3633
	minimum = 7
	maximum = 210
Network latency average = 38.289
	minimum = 7
	maximum = 210
Slowest packet = 275722
Flit latency average = 38.3288
	minimum = 7
	maximum = 210
Slowest flit = 275722
Fragmentation average = 0
	minimum = 0
	maximum = 0
Injected packet rate average = 0.0502604
	minimum = 0.0426667 (at node 4)
	maximum = 0.0583333 (at node 34)
Accepted packet rate average = 0.0502083
	minimum = 0.0406667 (at node 25)
	maximum = 0.0586667 (at node 49)
Injected flit rate average = 0.0502604
	minimum = 0.0426667 (at node 4)
	maximum = 0.0583333 (at node 34)
Accepted flit rate average= 0.0502083
	minimum = 0.0406667 (at node 25)
	maximum = 0.0586667 (at node 49)
Injected packet length average = 1
Accepted packet length average = 1
Total in-flight flits = 113 (113 measured)
latency change    = 0.00914626
throughput change = 0.00409751
Draining all recorded packets ...
Draining remaining packets ...
Time taken is 6125 cycles
Class 0:
Packet latency average = 36.7567
	minimum = 7
	maximum = 124
Network latency average = 36.7537
	minimum = 7
	maximum = 124
Slowest packet = 281422
Flit latency average = 36.7537
	minimum = 7
	maximum = 124
Slowest flit = 281422
Fragmentation average = 0
	minimum = 0
	maximum = 0
Injected packet rate average = 0.049625
	minimum = 0.03 (at node 29)
	maximum = 0.068 (at node 5)
Accepted packet rate average = 0.0479687
	minimum = 0.035 (at node 6)
	maximum = 0.064 (at node 26)
Injected flit rate average = 0.049625
	minimum = 0.03 (at node 29)
	maximum = 0.068 (at node 5)
Accepted flit rate average= 0.0479687
	minimum = 0.035 (at node 6)
	maximum = 0.064 (at node 26)
Injected packet length average = 1
Accepted packet length average = 1
Total in-flight flits = 106 (0 measured)
latency change    = 1
throughput change = 1
Class 0:
Packet latency average = 37.2937
	minimum = 7
	maximum = 125
Network latency average = 37.2922
	minimum = 7
	maximum = 125
Slowest packet = 284501
Flit latency average = 37.2922
	minimum = 7
	maximum = 125
Slowest flit = 284501
Fragmentation average = 0
	minimum = 0
	maximum = 0
Injected packet rate average = 0.0489375
	minimum = 0.037 (at node 61)
	maximum = 0.06 (at node 5)
Accepted packet rate average = 0.0479922
	minimum = 0.036 (at node 58)
	maximum = 0.0625 (at node 36)
Injected flit rate average = 0.0489375
	minimum = 0.037 (at node 61)
	maximum = 0.06 (at node 5)
Accepted flit rate average= 0.0479922
	minimum = 0.036 (at node 58)
	maximum = 0.0625 (at node 36)
Injected packet length average = 1
Accepted packet length average = 1
Total in-flight flits = 121 (0 measured)
latency change    = 0.014399
throughput change = 0.000488361
Class 0:
Packet latency average = 37.7003
	minimum = 7
	maximum = 121
Network latency average = 37.7
	minimum = 7
	maximum = 121
Slowest packet = 285740
Flit latency average = 37.7
	minimum = 7
	maximum = 121
Slowest flit = 285740
Fragmentation average = 0
	minimum = 0
	maximum = 0
Injected packet rate average = 0.0501406
	minimum = 0.039 (at node 21)
	maximum = 0.068 (at node 4)
Accepted packet rate average = 0.0501094
	minimum = 0.036 (at node 9)
	maximum = 0.07 (at node 43)
Injected flit rate average = 0.0501406
	minimum = 0.039 (at node 21)
	maximum = 0.068 (at node 4)
Accepted flit rate average= 0.0501094
	minimum = 0.036 (at node 9)
	maximum = 0.07 (at node 43)
Injected packet length average = 1
Accepted packet length average = 1
Total in-flight flits = 123 (0 measured)
latency change    = 0.010787
throughput change = 0.0422513
Warmed up ...Time used is 3000 cycles
Class 0:
Packet latency average = 36.9103
	minimum = 7
	maximum = 119
Network latency average = 36.9083
	minimum = 7
	maximum = 119
Slowest packet = 291183
Flit latency average = 37.3116
	minimum = 7
	maximum = 119
Slowest flit = 291183
Fragmentation average = 0
	minimum = 0
	maximum = 0
Injected packet rate average = 0.0492187
	minimum = 0.033 (at node 5)
	maximum = 0.073 (at node 49)
Accepted packet rate average = 0.0492969
	minimum = 0.038 (at node 5)
	maximum = 0.068 (at node 11)
Injected flit rate average = 0.0492187
	minimum = 0.033 (at node 5)
	maximum = 0.073 (at node 49)
Accepted flit rate average= 0.0492969
	minimum = 0.038 (at node 5)
	maximum = 0.068 (at node 11)
Injected packet length average = 1
Accepted packet length average = 1
Total in-flight flits = 118 (118 measured)
latency change    = 0.0214047
throughput change = 0.0164818
Class 0:
Packet latency average = 36.8141
	minimum = 7
	maximum = 149
Network latency average = 36.8127
	minimum = 7
	maximum = 149
Slowest packet = 291252
Flit latency average = 37.0136
	minimum = 7
	maximum = 149
Slowest flit = 291252
Fragmentation average = 0
	minimum = 0
	maximum = 0
[...]
	minimum = 0.035 (at node 7)
	maximum = 0.071 (at node 22)
Injected packet length average = 1
Accepted packet length average = 1
Total in-flight flits = 113 (0 measured)
latency change    = 0.00015645
throughput change = 0.00304195
Warmed up ...Time used is 3000 cycles
Class 0:
Packet latency average = 38.6472
	minimum = 7
	maximum = 141
Network latency average = 38.6439
	minimum = 7
	maximum = 141
Slowest packet = 1918318
Flit latency average = 38.8946
	minimum = 7
	maximum = 141
Slowest flit = 1918318
Fragmentation average = 0
	minimum = 0
	maximum = 0
Injected packet rate average = 0.0500625
	minimum = 0.03 (at node 32)
	maximum = 0.068 (at node 46)
Accepted packet rate average = 0.0496406
	minimum = 0.036 (at node 1)
	maximum = 0.072 (at node 56)
Injected flit rate average = 0.0500625
	minimum = 0.03 (at node 32)
	maximum = 0.068 (at node 46)
Accepted flit rate average= 0.0496406
	minimum = 0.036 (at node 1)
	maximum = 0.072 (at node 56)
Injected packet length average = 1
Accepted packet length average = 1
Total in-flight flits = 140 (140 measured)
latency change    = 0.0379318
throughput change = 0.0169972
Class 0:
Packet latency average = 38.3025
	minimum = 7
	maximum = 166
Network latency average = 38.3003
	minimum = 7
	maximum = 166
Slowest packet = 1919933
Flit latency average = 38.4306
	minimum = 7
	maximum = 166
Slowest flit = 1919933
Fragmentation average = 0
	minimum = 0
	maximum = 0
Injected packet rate average = 0.0499844
	minimum = 0.04 (at node 43)
	maximum = 0.067 (at node 11)
Accepted packet rate average = 0.0500781
	minimum = 0.0395 (at node 39)
	maximum = 0.06 (at node 56)
Injected flit rate average = 0.0499844
	minimum = 0.04 (at node 43)
	maximum = 0.067 (at node 11)
Accepted flit rate average= 0.0500781
	minimum = 0.0395 (at node 39)
	maximum = 0.06 (at node 56)
Injected packet length average = 1
Accepted packet length average = 1
Total in-flight flits = 101 (101 measured)
latency change    = 0.00899858
throughput change = 0.00873635
Class 0:
Packet latency average = 38.7142
	minimum = 7
	maximum = 231
Network latency average = 38.7061
	minimum = 7
	maximum = 231
Slowest packet = 1924509
Flit latency average = 38.7875
	minimum = 7
	maximum = 231
Slowest flit = 1924509
Fragmentation average = 0
	minimum = 0
	maximum = 0
Injected packet rate average = 0.0506094
	minimum = 0.041 (at node 19)
	maximum = 0.0623333 (at node 11)
Accepted packet rate average = 0.0505312
	minimum = 0.04 (at node 39)
	maximum = 0.061 (at node 14)
Injected flit rate average = 0.0506094
	minimum = 0.041 (at node 19)
	maximum = 0.0623333 (at node 11)
Accepted flit rate average= 0.0505312
	minimum = 0.04 (at node 39)
	maximum = 0.061 (at node 14)
Injected packet length average = 1
Accepted packet length average = 1
Total in-flight flits = 128 (128 measured)
latency change    = 0.0106325
throughput change = 0.00896722
Draining all recorded packets ...
Draining remaining packets ...
Time taken is 6143 cycles
Class 0:
Packet latency average = 36.6511
	minimum = 7
	maximum = 118
Network latency average = 36.6511
	minimum = 7
	maximum = 118
Slowest packet = 1927434
Flit latency average = 36.6511
	minimum = 7
	maximum = 118
Slowest flit = 1927434
Fragmentation average = 0
	minimum = 0
	maximum = 0
Injected packet rate average = 0.0500156
	minimum = 0.039 (at node 26)
	maximum = 0.064 (at node 42)
Accepted packet rate average = 0.0482344
	minimum = 0.029 (at node 22)
	maximum = 0.063 (at node 36)
Injected flit rate average = 0.0500156
	minimum = 0.039 (at node 26)
	maximum = 0.064 (at node 42)
Accepted flit rate average= 0.0482344
	minimum = 0.029 (at node 22)
	maximum = 0.063 (at node 36)
Injected packet length average = 1
Accepted packet length average = 1
Total in-flight flits = 114 (0 measured)
latency change    = 1
throughput change = 1
Class 0:
Packet latency average = 36.9716
	minimum = 7
	maximum = 165
Network latency average = 36.9716
	minimum = 7
	maximum = 165
Slowest packet = 1931268
Flit latency average = 36.9716
	minimum = 7
	maximum = 165
Slowest flit = 1931268
Fragmentation average = 0
	minimum = 0
	maximum = 0
Injected packet rate average = 0.0503516
	minimum = 0.044 (at node 0)
	maximum = 0.058 (at node 60)
Accepted packet rate average = 0.0494766
	minimum = 0.0335 (at node 22)
	maximum = 0.061 (at node 36)
Injected flit rate average = 0.0503516
	minimum = 0.044 (at node 0)
	maximum = 0.058 (at node 60)
Accepted flit rate average= 0.0494766
	minimum = 0.0335 (at node 22)
	maximum = 0.061 (at node 36)
Injected packet length average = 1
Accepted packet length average = 1
Total in-flight flits = 112 (0 measured)
latency change    = 0.00866774
throughput change = 0.0251066
Class 0:
Packet latency average = 38.0518
	minimum = 7
	maximum = 108
Network latency average = 38.0483
	minimum = 7
	maximum = 108
Slowest packet = 1933699
Flit latency average = 38.0483
	minimum = 7
	maximum = 108
Slowest flit = 1933699
Fragmentation average = 0
	minimum = 0
	maximum = 0
Injected packet rate average = 0.04975
	minimum = 0.036 (at node 18)
	maximum = 0.064 (at node 46)
Accepted packet rate average = 0.0495156
	minimum = 0.037 (at node 60)
	maximum = 0.062 (at node 24)
Injected flit rate average = 0.04975
	minimum = 0.036 (at node 18)
	maximum = 0.064 (at node 46)
Accepted flit rate average= 0.0495156
	minimum = 0.037 (at node 60)
	maximum = 0.062 (at node 24)
Injected packet length average = 1
Accepted packet length average = 1
Total in-flight flits = 127 (0 measured)
latency change    = 0.028387
throughput change = 0.000788892
Warmed up ...Time used is 3000 cycles
Class 0:
Packet latency average = 37.5884
	minimum = 7
	maximum = 115
Network latency average = 37.5874
	minimum = 7
	maximum = 115
Slowest packet = 1936393
Flit latency average = 37.9191
	minimum = 7
	maximum = 115
Slowest flit = 1936393
Fragmentation average = 0
	minimum = 0
	maximum = 0
Injected packet rate average = 0.0495625
	minimum = 0.038 (at node 40)
	maximum = 0.068 (at node 56)
Accepted packet rate average = 0.0498125
	minimum = 0.037 (at node 2)
	maximum = 0.064 (at node 16)
Injected flit rate average = 0.0495625
	minimum = 0.038 (at node 40)
	maximum = 0.068 (at node 56)
Accepted flit rate average= 0.0498125
	minimum = 0.037 (at node 2)
	maximum = 0.064 (at node 16)
Injected packet length average = 1
Accepted packet length average = 1
Total in-flight flits = 111 (111 measured)
latency change    = 0.0123278
throughput change = 0.00595985
Class 0:
Packet latency average = 37.8474
	minimum = 7
	maximum = 130
Network latency average = 37.8459
	minimum = 7
	maximum = 130
Slowest packet = 1940220
Flit latency average = 38.0076
	minimum = 7
	maximum = 130
Slowest flit = 1940220
Fragmentation average = 0
	minimum = 0
	maximum = 0
Injected packet rate average = 0.0495703
	minimum = 0.04 (at node 40)
	maximum = 0.059 (at node 10)
Accepted packet rate average = 0.0495156
	minimum = 0.0385 (at node 8)
	maximum = 0.062 (at node 3)
Injected flit rate average = 0.0495703
	minimum = 0.04 (at node 40)
	maximum = 0.059 (at node 10)
Accepted flit rate average= 0.0495156
	minimum = 0.0385 (at node 8)
	maximum = 0.062 (at node 3)
Injected packet length average = 1
Accepted packet length average = 1
Total in-flight flits = 135 (135 measured)
latency change    = 0.00684322
throughput change = 0.00599558
Class 0:
Packet latency average = 38.0077
	minimum = 7
	maximum = 154
Network latency average = 37.9987
	minimum = 7
	maximum = 154
Slowest packet = 1941748
Flit latency average = 38.1043
	minimum = 7
	maximum = 154
Slowest flit = 1941748
Fragmentation average = 0
	minimum = 0
	maximum = 0
Injected packet rate average = 0.0495625
	minimum = 0.0406667 (at node 40)
	maximum = 0.056 (at node 56)
Accepted packet rate average = 0.0495729
	minimum = 0.04 (at node 2)
	maximum = 0.061 (at node 3)
Injected flit rate average = 0.0495625
	minimum = 0.0406667 (at node 40)
	maximum = 0.056 (at node 56)
Accepted flit rate average= 0.0495729
	minimum = 0.04 (at node 2)
	maximum = 0.061 (at node 3)
Injected packet length average = 1
Accepted packet length average = 1
Total in-flight flits = 125 (125 measured)
latency change    = 0.00421755
throughput change = 0.0011557
Draining all recorded packets ...
Draining remaining packets ...
Time taken is 6132 cycles
Class 0:
Packet latency average = 37.6801
	minimum = 7
	maximum = 128
Network latency average = 37.6765
	minimum = 7
	maximum = 128
Slowest packet = 1945663
Flit latency average = 37.6765
	minimum = 7
	maximum = 128
Slowest flit = 1945663
Fragmentation average = 0
	minimum = 0
	maximum = 0
Injected packet rate average = 0.0495469
	minimum = 0.038 (at node 13)
	maximum = 0.063 (at node 6)
Accepted packet rate average = 0.0478594
	minimum = 0.033 (at node 35)
	maximum = 0.061 (at node 60)
Injected flit rate average = 0.0495469
	minimum = 0.038 (at node 13)
	maximum = 0.063 (at node 6)
Accepted flit rate average= 0.0478594
	minimum = 0.033 (at node 35)
	maximum = 0.061 (at node 60)
Injected packet length average = 1
Accepted packet length average = 1
Total in-flight flits = 108 (0 measured)
latency change    = 1
throughput change = 1
Class 0:
Packet latency average = 37.8135
	minimum = 7
	maximum = 128
Network latency average = 37.8118
	minimum = 7
	maximum = 128
Slowest packet = 1945663
Flit latency average = 37.8118
	minimum = 7
	maximum = 128
Slowest flit = 1945663
Fragmentation average = 0
	minimum = 0
	maximum = 0
Injected packet rate average = 0.0498359
	minimum = 0.0385 (at node 16)
	maximum = 0.061 (at node 43)
Accepted packet rate average = 0.0489766
	minimum = 0.037 (at node 35)
	maximum = 0.0595 (at node 6)
Injected flit rate average = 0.0498359
	minimum = 0.0385 (at node 16)
	maximum = 0.061 (at node 43)
Accepted flit rate average= 0.0489766
	minimum = 0.037 (at node 35)
	maximum = 0.0595 (at node 6)
Injected packet length average = 1
Accepted packet length average = 1
Total in-flight flits = 110 (0 measured)
latency change    = 0.00352981
throughput change = 0.0228107
Class 0:
Packet latency average = 37.0772
	minimum = 7
	maximum = 116
Network latency average = 37.0757
	minimum = 7
	maximum = 116
Slowest packet = 1953610
Flit latency average = 37.0757
	minimum = 7
	maximum = 116
Slowest flit = 1953610
Fragmentation average = 0
	minimum = 0
	maximum = 0
Injected packet rate average = 0.0496406
	minimum = 0.035 (at node 7)
	maximum = 0.065 (at node 50)
Accepted packet rate average = 0.0491562
	minimum = 0.033 (at node 45)
	maximum = 0.072 (at node 57)
Injected flit rate average = 0.0496406
	minimum = 0.035 (at node 7)
	maximum = 0.065 (at node 50)
Accepted flit rate average= 0.0491562
	minimum = 0.033 (at node 45)
	maximum = 0.072 (at node 57)
Injected packet length average = 1
Accepted packet length average = 1
Total in-flight flits = 141 (0 measured)
latency change    = 0.0198582
throughput change = 0.00365544
Warmed up ...Time used is 3000 cycles
Class 0:
Packet latency average = 37.4703
	minimum = 7
	maximum = 137
Network latency average = 37.4637
	minimum = 7
	maximum = 137
Slowest packet = 1955779
Flit latency average = 37.9494
	minimum = 7
	maximum = 137
Slowest flit = 1955779
Fragmentation average = 0
	minimum = 0
	maximum = 0
Injected packet rate average = 0.0495469
	minimum = 0.033 (at node 0)
	maximum = 0.065 (at node 40)
Accepted packet rate average = 0.0500469
	minimum = 0.031 (at node 56)
	maximum = 0.063 (at node 46)
Injected flit rate average = 0.0495469
	minimum = 0.033 (at node 0)
	maximum = 0.065 (at node 40)
Accepted flit rate average= 0.0500469
	minimum = 0.031 (at node 56)
	maximum = 0.063 (at node 46)
Injected packet length average = 1
Accepted packet length average = 1
Total in-flight flits = 109 (109 measured)
latency change    = 0.0104894
throughput change = 0.0177958
Class 0:
Packet latency average = 37.3638
	minimum = 7
	maximum = 137
Network latency average = 37.3603
	minimum = 7
	maximum = 137
Slowest packet = 1955779
Flit latency average = 37.6073
	minimum = 7
	maximum = 137
Slowest flit = 1955779
Fragmentation average = 0
	minimum = 0
	maximum = 0
Injected packet rate average = 0.0494844
	minimum = 0.039 (at node 2)
	maximum = 0.0585 (at node 40)
Accepted packet rate average = 0.0496562
	minimum = 0.038 (at node 13)
	maximum = 0.0615 (at node 29)
Injected flit rate average = 0.0494844
	minimum = 0.039 (at node 2)
	maximum = 0.0585 (at node 40)
Accepted flit rate average= 0.0496562
	minimum = 0.038 (at node 13)
	maximum = 0.0615 (at node 29)
Injected packet length average = 1
Accepted packet length average = 1
Total in-flight flits = 119 (119 measured)
latency change    = 0.00284991
throughput change = 0.00786658
Class 0:
Packet latency average = 37.6299
	minimum = 7
	maximum = 137
Network latency average = 37.6272
	minimum = 7
	maximum = 137
Slowest packet = 1955779
Flit latency average = 37.7877
	minimum = 7
	maximum = 137
Slowest flit = 1955779
Fragmentation average = 0
	minimum = 0
	maximum = 0
Injected packet rate average = 0.0496302
	minimum = 0.0403333 (at node 48)
	maximum = 0.0576667 (at node 8)
Accepted packet rate average = 0.049724
	minimum = 0.0423333 (at node 20)
	maximum = 0.0583333 (at node 29)
Injected flit rate average = 0.0496302
	minimum = 0.0403333 (at node 48)
	maximum = 0.0576667 (at node 8)
Accepted flit rate average= 0.049724
	minimum = 0.0423333 (at node 20)
	maximum = 0.0583333 (at node 29)
Injected packet length average = 1
Accepted packet length average = 1
Total in-flight flits = 123 (123 measured)
latency change    = 0.00707203
throughput change = 0.00136168
Draining all recorded packets ...
Draining remaining packets ...
Time taken is 6169 cycles
Class 0:
Packet latency average = 37.6206
	minimum = 7
	maximum = 131
Network latency average = 37.6206
	minimum = 7
	maximum = 131
Slowest packet = 1965604
Flit latency average = 37.6206
	minimum = 7
	maximum = 131
Slowest flit = 1965604
Fragmentation average = 0
	minimum = 0
	maximum = 0
Injected packet rate average = 0.0502187
	minimum = 0.032 (at node 23)
	maximum = 0.067 (at node 41)
Accepted packet rate average = 0.0485156
	minimum = 0.03 (at node 46)
	maximum = 0.067 (at node 39)
Injected flit rate average = 0.0502187
	minimum = 0.032 (at node 23)
	maximum = 0.067 (at node 41)
Accepted flit rate average= 0.0485156
	minimum = 0.03 (at node 46)
	maximum = 0.067 (at node 39)
Injected packet length average = 1
Accepted packet length average = 1
Total in-flight flits = 109 (0 measured)
latency change    = 1
throughput change = 1
Class 0:
Packet latency average = 37.408
	minimum = 7
	maximum = 131
Network latency average = 37.4056
	minimum = 7
	maximum = 131
Slowest packet = 1965604
Flit latency average = 37.4056
	minimum = 7
	maximum = 131
Slowest flit = 1965604
Fragmentation average = 0
	minimum = 0
	maximum = 0
Injected packet rate average = 0.0503984
	minimum = 0.0415 (at node 11)
	maximum = 0.062 (at node 24)
Accepted packet rate average = 0.0493125
	minimum = 0.039 (at node 46)
	maximum = 0.062 (at node 51)
Injected flit rate average = 0.0503984
	minimum = 0.0415 (at node 11)
	maximum = 0.062 (at node 24)
Accepted flit rate average= 0.0493125
	minimum = 0.039 (at node 46)
	maximum = 0.062 (at node 51)
Injected packet length average = 1
Accepted packet length average = 1
Total in-flight flits = 139 (0 measured)
latency change    = 0.00568486
throughput change = 0.0161597
Class 0:
Packet latency average = 39.6414
	minimum = 7
	maximum = 186
Network latency average = 39.6013
	minimum = 7
	maximum = 186
Slowest packet = 1971778
Flit latency average = 39.6013
	minimum = 7
	maximum = 186
Slowest flit = 1971778
Fragmentation average = 0
	minimum = 0
	maximum = 0
Injected packet rate average = 0.0515313
	minimum = 0.037 (at node 58)
	maximum = 0.067 (at node 22)
Accepted packet rate average = 0.0518438
	minimum = 0.035 (at node 63)
	maximum = 0.072 (at node 48)
Injected flit rate average = 0.0515313
	minimum = 0.037 (at node 58)
	maximum = 0.067 (at node 22)
Accepted flit rate average= 0.0518438
	minimum = 0.035 (at node 63)
	maximum = 0.072 (at node 48)
Injected packet length average = 1
Accepted packet length average = 1
Total in-flight flits = 119 (0 measured)
latency change    = 0.0563401
throughput change = 0.0488246
Warmed up ...Time used is 3000 cycles
Class 0:
Packet latency average = 38.229
	minimum = 7
	maximum = 189
Network latency average = 38.2267
	minimum = 7
	maximum = 189
Slowest packet = 1976116
Flit latency average = 38.372
	minimum = 7
	maximum = 189
Slowest flit = 1976116
Fragmentation average = 0
	minimum = 0
	maximum = 0
Injected packet rate average = 0.0504062
	minimum = 0.034 (at node 9)
	maximum = 0.065 (at node 3)
Accepted packet rate average = 0.0502344
	minimum = 0.029 (at node 59)
	maximum = 0.068 (at node 15)
Injected flit rate average = 0.0504062
	minimum = 0.034 (at node 9)
	maximum = 0.065 (at node 3)
Accepted flit rate average= 0.0502344
	minimum = 0.029 (at node 59)
	maximum = 0.068 (at node 15)
Injected packet length average = 1
Accepted packet length average = 1
Total in-flight flits = 130 (130 measured)
latency change    = 0.0369443
throughput change = 0.0320373
Class 0:
Packet latency average = 37.8232
	minimum = 7
	maximum = 189
Network latency average = 37.8221
	minimum = 7
	maximum = 189
Slowest packet = 1976116
Flit latency average = 37.9028
	minimum = 7
	maximum = 189
Slowest flit = 1976116
Fragmentation average = 0
	minimum = 0
	maximum = 0
Injected packet rate average = 0.0499141
	minimum = 0.0365 (at node 9)
	maximum = 0.062 (at node 3)
Accepted packet rate average = 0.0498437
	minimum = 0.038 (at node 45)
	maximum = 0.06 (at node 7)
Injected flit rate average = 0.0499141
	minimum = 0.0365 (at node 9)
	maximum = 0.062 (at node 3)
Accepted flit rate average= 0.0498437
	minimum = 0.038 (at node 45)
	maximum = 0.06 (at node 7)
Injected packet length average = 1
Accepted packet length average = 1
Total in-flight flits = 128 (128 measured)
latency change    = 0.0107292
throughput change = 0.00783699
Class 0:
Packet latency average = 38.2329
	minimum = 7
	maximum = 189
Network latency average = 38.231
	minimum = 7
	maximum = 189
Slowest packet = 1976116
Flit latency average = 38.2794
	minimum = 7
	maximum = 189
Slowest flit = 1976116
Fragmentation average = 0
	minimum = 0
	maximum = 0
Injected packet rate average = 0.0502448
	minimum = 0.039 (at node 52)
	maximum = 0.058 (at node 41)
Accepted packet rate average = 0.0502031
	minimum = 0.0423333 (at node 6)
	maximum = 0.0586667 (at node 7)
Injected flit rate average = 0.0502448
	minimum = 0.039 (at node 52)
	maximum = 0.058 (at node 41)
Accepted flit rate average= 0.0502031
	minimum = 0.0423333 (at node 6)
	maximum = 0.0586667 (at node 7)
Injected packet length average = 1
Accepted packet length average = 1
Total in-flight flits = 127 (127 measured)
latency change    = 0.0107156
throughput change = 0.00715842
Draining all recorded packets ...
Draining remaining packets ...
Time taken is 6155 cycles
====== Overall Traffic Statistics ======
====== Traffic class 0 ======
Packet latency average = 37.8625 (100 samples)
	minimum = 7 (100 samples)
	maximum = 159.57 (100 samples)
Network latency average = 37.8523 (100 samples)
	minimum = 7 (100 samples)
	maximum = 158.74 (100 samples)
Flit latency average = 37.9375 (100 samples)
	minimum = 7 (100 samples)
	maximum = 160.91 (100 samples)
Fragmentation average = 0 (100 samples)
	minimum = 0 (100 samples)
	maximum = 0 (100 samples)
Injected packet rate average = 0.0500496 (100 samples)
	minimum = 0.0410883 (100 samples)
	maximum = 0.0590625 (100 samples)
Accepted packet rate average = 0.0500438 (100 samples)
	minimum = 0.040745 (100 samples)
	maximum = 0.0598575 (100 samples)
Injected flit rate average = 0.0500496 (100 samples)
	minimum = 0.0410883 (100 samples)
	maximum = 0.0590625 (100 samples)
Accepted flit rate average = 0.0500438 (100 samples)
	minimum = 0.040745 (100 samples)
	maximum = 0.0598575 (100 samples)
Injected packet size average = 1 (100 samples)
Accepted packet size average = 1 (100 samples)
Hops average = 6.24892 (100 samples)
Total run time 57.4408
