BEGIN Configuration File: /tmp/tmpwnnubmv7.cfg
topology = mesh;
k = 4;
n = 2;
routing_function = planar_adapt;
num_vcs = 4;
vc_buf_size = 4;
wait_for_tail_credit = 1;
vc_allocator = islip;
sw_allocator = islip;
alloc_iters = 1;
credit_delay = 2;
routing_delay = 1;
vc_alloc_delay = 1;
sw_alloc_delay = 1;
input_speedup = 2;
output_speedup = 1;
internal_speedup = 1.0;
traffic = transpose;
packet_size = 1;
sim_type = latency;
injection_rate = 0.02;
warmup_periods = 3;
sample_period = 1000;
sim_count = 100;
seed = 3;

END Configuration File: /tmp/tmpwnnubmv7.cfg
Class 0:
Packet latency average = 19.4934
	minimum = 7
	maximum = 42
Network latency average = 19.4934
	minimum = 7
	maximum = 42
Slowest packet = 19
Flit latency average = 19.4934
	minimum = 7
	maximum = 42
Slowest flit = 19
Fragmentation average = 0
	minimum = 0
	maximum = 0
Injected packet rate average = 0.0194375
	minimum = 0.011 (at node 12)
	maximum = 0.032 (at node 13)
Accepted packet rate average = 0.019
	minimum = 0.01 (at node 3)
	maximum = 0.03 (at node 7)
Injected flit rate average = 0.0194375
	minimum = 0.011 (at node 12)
	maximum = 0.032 (at node 13)
Accepted flit rate average= 0.019
	minimum = 0.01 (at node 3)
	maximum = 0.03 (at node 7)
Injected packet length average = 1
Accepted packet length average = 1
Total in-flight flits = 7 (0 measured)
latency change    = 1
throughput change = 1
Class 0:
Packet latency average = 19.2421
	minimum = 7
	maximum = 50
Network latency average = 19.2421
	minimum = 7
	maximum = 50
Slowest packet = 379
Flit latency average = 19.2421
	minimum = 7
	maximum = 50
Slowest flit = 379
Fragmentation average = 0
	minimum = 0
	maximum = 0
Injected packet rate average = 0.019
	minimum = 0.014 (at node 12)
	maximum = 0.025 (at node 11)
Accepted packet rate average = 0.0188437
	minimum = 0.014 (at node 3)
	maximum = 0.0245 (at node 14)
Injected flit rate average = 0.019
	minimum = 0.014 (at node 12)
	maximum = 0.025 (at node 11)
Accepted flit rate average= 0.0188437
	minimum = 0.014 (at node 3)
	maximum = 0.0245 (at node 14)
Injected packet length average = 1
Accepted packet length average = 1
Total in-flight flits = 5 (0 measured)
latency change    = 0.0130598
throughput change = 0.00829187
Class 0:
Packet latency average = 20.8408
	minimum = 7
	maximum = 57
Network latency average = 20.8408
	minimum = 7
	maximum = 57
Slowest packet = 655
Flit latency average = 20.8408
	minimum = 7
	maximum = 57
Slowest flit = 655
Fragmentation average = 0
	minimum = 0
	maximum = 0
Injected packet rate average = 0.019625
	minimum = 0.013 (at node 9)
	maximum = 0.027 (at node 12)
Accepted packet rate average = 0.019625
	minimum = 0.013 (at node 6)
	maximum = 0.026 (at node 3)
Injected flit rate average = 0.019625
	minimum = 0.013 (at node 9)
	maximum = 0.027 (at node 12)
Accepted flit rate average= 0.019625
	minimum = 0.013 (at node 6)
	maximum = 0.026 (at node 3)
Injected packet length average = 1
Accepted packet length average = 1
Total in-flight flits = 5 (0 measured)
latency change    = 0.0767074
throughput change = 0.0398089
Warmed up ...Time used is 3000 cycles
Class 0:
Packet latency average = 19.9085
	minimum = 7
	maximum = 44
Network latency average = 19.9085
	minimum = 7
	maximum = 44
Slowest packet = 1167
Flit latency average = 20.0267
	minimum = 7
	maximum = 44
Slowest flit = 1167
Fragmentation average = 0
	minimum = 0
	maximum = 0
Injected packet rate average = 0.018875
	minimum = 0.01 (at node 2)
	maximum = 0.027 (at node 8)
Accepted packet rate average = 0.01875
	minimum = 0.01 (at node 8)
	maximum = 0.028 (at node 2)
Injected flit rate average = 0.018875
	minimum = 0.01 (at node 2)
	maximum = 0.027 (at node 8)
Accepted flit rate average= 0.01875
	minimum = 0.01 (at node 8)
	maximum = 0.028 (at node 2)
Injected packet length average = 1
Accepted packet length average = 1
Total in-flight flits = 7 (7 measured)
latency change    = 0.0468288
throughput change = 0.0466667
Class 0:
Packet latency average = 19.7489
	minimum = 7
	maximum = 45
Network latency average = 19.7489
	minimum = 7
	maximum = 45
Slowest packet = 1544
Flit latency average = 19.8036
	minimum = 7
	maximum = 45
Slowest flit = 1544
Fragmentation average = 0
	minimum = 0
	maximum = 0
Injected packet rate average = 0.0207188
	minimum = 0.0155 (at node 2)
	maximum = 0.025 (at node 10)
Accepted packet rate average = 0.0206875
	minimum = 0.0155 (at node 8)
	maximum = 0.025 (at node 10)
Injected flit rate average = 0.0207188
	minimum = 0.0155 (at node 2)
	maximum = 0.025 (at node 10)
Accepted flit rate average= 0.0206875
	minimum = 0.0155 (at node 8)
	maximum = 0.025 (at node 10)
Injected packet length average = 1
Accepted packet length average = 1
Total in-flight flits = 6 (6 measured)
latency change    = 0.0080823
throughput change = 0.0936556
Class 0:
Packet latency average = 19.7043
	minimum = 7
	maximum = 45
Network latency average = 19.7043
	minimum = 7
	maximum = 45
Slowest packet = 1544
Flit latency average = 19.7412
	minimum = 7
	maximum = 45
Slowest flit = 1544
Fragmentation average = 0
	minimum = 0
	maximum = 0
Injected packet rate average = 0.0208125
	minimum = 0.015 (at node 2)
	maximum = 0.0246667 (at node 9)
Accepted packet rate average = 0.0206042
	minimum = 0.015 (at node 8)
	maximum = 0.0243333 (at node 6)
Injected flit rate average = 0.0208125
	minimum = 0.015 (at node 2)
	maximum = 0.0246667 (at node 9)
Accepted flit rate average= 0.0206042
	minimum = 0.015 (at node 8)
	maximum = 0.0243333 (at node 6)
Injected packet length average = 1
Accepted packet length average = 1
Total in-flight flits = 15 (15 measured)
latency change    = 0.00226297
throughput change = 0.00404449
Class 0:
Packet latency average = 19.472
	minimum = 7
	maximum = 45
Network latency average = 19.472
	minimum = 7
	maximum = 45
Slowest packet = 1544
Flit latency average = 19.5008
	minimum = 7
	maximum = 45
Slowest flit = 1544
Fragmentation average = 0
	minimum = 0
	maximum = 0
Injected packet rate average = 0.0204531
	minimum = 0.01625 (at node 3)
	maximum = 0.02375 (at node 10)
Accepted packet rate average = 0.0204375
	minimum = 0.0165 (at node 12)
	maximum = 0.02375 (at node 10)
Injected flit rate average = 0.0204531
	minimum = 0.01625 (at node 3)
	maximum = 0.02375 (at node 10)
Accepted flit rate average= 0.0204375
	minimum = 0.0165 (at node 12)
	maximum = 0.02375 (at node 10)
Injected packet length average = 1
Accepted packet length average = 1
Total in-flight flits = 6 (6 measured)
latency change    = 0.011929
throughput change = 0.00815494
Class 0:
Packet latency average = 19.3358
	minimum = 7
	maximum = 53
Network latency average = 19.3358
	minimum = 7
	maximum = 53
Slowest packet = 2423
Flit latency average = 19.3591
	minimum = 7
	maximum = 53
Slowest flit = 2423
Fragmentation average = 0
	minimum = 0
	maximum = 0
Injected packet rate average = 0.020575
	minimum = 0.0166 (at node 3)
	maximum = 0.0234 (at node 5)
Accepted packet rate average = 0.020575
	minimum = 0.0166 (at node 12)
	maximum = 0.0234 (at node 5)
Injected flit rate average = 0.020575
	minimum = 0.0166 (at node 3)
	maximum = 0.0234 (at node 5)
Accepted flit rate average= 0.020575
	minimum = 0.0166 (at node 12)
	maximum = 0.0234 (at node 5)
Injected packet length average = 1
Accepted packet length average = 1
Total in-flight flits = 5 (5 measured)
latency change    = 0.00704481
throughput change = 0.00668287
Draining all recorded packets ...
Draining remaining packets ...
Time taken is 8044 cycles
Class 0:
Packet latency average = 19.8352
	minimum = 7
	maximum = 46
Network latency average = 19.8352
	minimum = 7
	maximum = 46
Slowest packet = 2833
Flit latency average = 19.8352
	minimum = 7
	maximum = 46
Slowest flit = 2833
Fragmentation average = 0
	minimum = 0
	maximum = 0
Injected packet rate average = 0.022375
	minimum = 0.01 (at node 8)
	maximum = 0.029 (at node 6)
Accepted packet rate average = 0.022
	minimum = 0.01 (at node 2)
	maximum = 0.029 (at node 9)
Injected flit rate average = 0.022375
	minimum = 0.01 (at node 8)
	maximum = 0.029 (at node 6)
Accepted flit rate average= 0.022
	minimum = 0.01 (at node 2)
	maximum = 0.029 (at node 9)
Injected packet length average = 1
Accepted packet length average = 1
Total in-flight flits = 6 (0 measured)
latency change    = 1
throughput change = 1
Class 0:
Packet latency average = 19.6372
	minimum = 7
	maximum = 46
Network latency average = 19.6372
	minimum = 7
	maximum = 46
Slowest packet = 2833
Flit latency average = 19.6372
	minimum = 7
	maximum = 46
Slowest flit = 2833
Fragmentation average = 0
	minimum = 0
	maximum = 0
Injected packet rate average = 0.0214375
	minimum = 0.013 (at node 8)
	maximum = 0.024 (at node 2)
Accepted packet rate average = 0.0211875
	minimum = 0.013 (at node 2)
	maximum = 0.0235 (at node 1)
Injected flit rate average = 0.0214375
	minimum = 0.013 (at node 8)
	maximum = 0.024 (at node 2)
Accepted flit rate average= 0.0211875
	minimum = 0.013 (at node 2)
	maximum = 0.0235 (at node 1)
Injected packet length average = 1
Accepted packet length average = 1
Total in-flight flits = 8 (0 measured)
latency change    = 0.0100859
throughput change = 0.0383481
Class 0:
Packet latency average = 19.8447
	minimum = 7
	maximum = 43
Network latency average = 19.8447
	minimum = 7
	maximum = 43
Slowest packet = 3264
Flit latency average = 19.8447
	minimum = 7
	maximum = 43
Slowest flit = 3264
Fragmentation average = 0
	minimum = 0
	maximum = 0
Injected packet rate average = 0.019875
	minimum = 0.013 (at node 1)
	maximum = 0.028 (at node 14)
Accepted packet rate average = 0.020125
	minimum = 0.013 (at node 4)
	maximum = 0.026 (at node 11)
Injected flit rate average = 0.019875
	minimum = 0.013 (at node 1)
	maximum = 0.028 (at node 14)
Accepted flit rate average= 0.020125
	minimum = 0.013 (at node 4)
	maximum = 0.026 (at node 11)
Injected packet length average = 1
Accepted packet length average = 1
Total in-flight flits = 4 (0 measured)
latency change    = 0.0104588
throughput change = 0.052795
Warmed up ...Time used is 3000 cycles
Class 0:
Packet latency average = 19.3564
	minimum = 7
	maximum = 42
Network latency average = 19.3564
	minimum = 7
	maximum = 42
Slowest packet = 3577
Flit latency average = 19.3925
	minimum = 7
	maximum = 42
Slowest flit = 3577
Fragmentation average = 0
	minimum = 0
	maximum = 0
Injected packet rate average = 0.0181875
	minimum = 0.014 (at node 2)
	maximum = 0.026 (at node 1)
Accepted packet rate average = 0.0183125
	minimum = 0.014 (at node 7)
	maximum = 0.026 (at node 4)
Injected flit rate average = 0.0181875
	minimum = 0.014 (at node 2)
	maximum = 0.026 (at node 1)
Accepted flit rate average= 0.0183125
	minimum = 0.014 (at node 7)
	maximum = 0.026 (at node 4)
Injected packet length average = 1
Accepted packet length average = 1
Total in-flight flits = 2 (2 measured)
latency change    = 0.0252278
throughput change = 0.0989761
Class 0:
Packet latency average = 20.3891
	minimum = 7
	maximum = 60
Network latency average = 20.3891
	minimum = 7
	maximum = 60
Slowest packet = 4047
Flit latency average = 20.3994
	minimum = 7
	maximum = 60
Slowest flit = 4047
Fragmentation average = 0
	minimum = 0
	maximum = 0
Injected packet rate average = 0.0195312
	minimum = 0.015 (at node 14)
	maximum = 0.0265 (at node 1)
Accepted packet rate average = 0.0195625
	minimum = 0.015 (at node 15)
	maximum = 0.0265 (at node 4)
Injected flit rate average = 0.0195312
	minimum = 0.015 (at node 14)
	maximum = 0.0265 (at node 1)
Accepted flit rate average= 0.0195625
	minimum = 0.015 (at node 15)
	maximum = 0.0265 (at node 4)
Injected packet length average = 1
Accepted packet length average = 1
Total in-flight flits = 3 (3 measured)
latency change    = 0.050648
throughput change = 0.0638978
Class 0:
Packet latency average = 20.1634
	minimum = 7
	maximum = 60
Network latency average = 20.1634
	minimum = 7
	maximum = 60
Slowest packet = 4047
Flit latency average = 20.171
	minimum = 7
	maximum = 60
Slowest flit = 4047
Fragmentation average = 0
	minimum = 0
	maximum = 0
Injected packet rate average = 0.02025
	minimum = 0.017 (at node 10)
	maximum = 0.0246667 (at node 1)
Accepted packet rate average = 0.0202292
	minimum = 0.017 (at node 7)
	maximum = 0.0246667 (at node 4)
Injected flit rate average = 0.02025
	minimum = 0.017 (at node 10)
	maximum = 0.0246667 (at node 1)
Accepted flit rate average= 0.0202292
	minimum = 0.017 (at node 7)
	maximum = 0.0246667 (at node 4)
Injected packet length average = 1
Accepted packet length average = 1
Total in-flight flits = 5 (5 measured)
latency change    = 0.0111923
throughput change = 0.0329557
Class 0:
Packet latency average = 20.1659
	minimum = 7
	maximum = 60
Network latency average = 20.1659
	minimum = 7
	maximum = 60
Slowest packet = 4047
Flit latency average = 20.1716
	minimum = 7
	maximum = 60
Slowest flit = 4047
Fragmentation average = 0
	minimum = 0
	maximum = 0
Injected packet rate average = 0.0200781
	minimum = 0.01575 (at node 13)
	maximum = 0.02475 (at node 5)
Accepted packet rate average = 0.0200313
	minimum = 0.01575 (at node 7)
	maximum = 0.0245 (at node 5)
Injected flit rate average = 0.0200781
	minimum = 0.01575 (at node 13)
	maximum = 0.02475 (at node 5)
Accepted flit rate average= 0.0200313
	minimum = 0.01575 (at node 7)
	maximum = 0.0245 (at node 5)
Injected packet length average = 1
Accepted packet length average = 1
Total in-flight flits = 7 (7 measured)
latency change    = 0.000123588
throughput change = 0.0098804
Class 0:
Packet latency average = 20.0689
	minimum = 7
	maximum = 60
Network latency average = 20.0689
	minimum = 7
	maximum = 60
Slowest packet = 4047
Flit latency average = 20.0738
	minimum = 7
	maximum = 60
Slowest flit = 4047
Fragmentation average = 0
	minimum = 0
	maximum = 0
Injected packet rate average = 0.0200625
	minimum = 0.017 (at node 11)
	maximum = 0.024 (at node 1)
Accepted packet rate average = 0.02
	minimum = 0.017 (at node 14)
	maximum = 0.024 (at node 4)
Injected flit rate average = 0.0200625
	minimum = 0.017 (at node 11)
	maximum = 0.024 (at node 1)
Accepted flit rate average= 0.02
	minimum = 0.017 (at node 14)
	maximum = 0.024 (at node 4)
Injected packet length average = 1
Accepted packet length average = 1
Total in-flight flits = 9 (9 measured)
latency change    = 0.00483144
throughput change = 0.0015625
Draining all recorded packets ...
Draining remaining packets ...
Time taken is 8063 cycles
Class 0:
Packet latency average = 20.2321
	minimum = 7
	maximum = 51
Network latency average = 20.2321
	minimum = 7
	maximum = 51
Slowest packet = 5455
Flit latency average = 20.2321
	minimum = 7
	maximum = 51
Slowest flit = 5455
Fragmentation average = 0
	minimum = 0
	maximum = 0
Injected packet rate average = 0.0221875
	minimum = 0.013 (at node 5)
	maximum = 0.03 (at node 11)
Accepted packet rate average = 0.0218125
	minimum = 0.013 (at node 5)
	maximum = 0.029 (at node 14)
Injected flit rate average = 0.0221875
	minimum = 0.013 (at node 5)
	maximum = 0.03 (at node 11)
Accepted flit rate average= 0.0218125
	minimum = 0.013 (at node 5)
	maximum = 0.029 (at node 14)
Injected packet length average = 1
Accepted packet length average = 1
Total in-flight flits = 6 (0 measured)
latency change    = 1
throughput change = 1
Class 0:
Packet latency average = 20.484
	minimum = 7
	maximum = 73
Network latency average = 20.484
	minimum = 7
	maximum = 73
Slowest packet = 5643
Flit latency average = 20.484
	minimum = 7
	maximum = 73
Slowest flit = 5643
Fragmentation average = 0
	minimum = 0
	maximum = 0
Injected packet rate average = 0.02075
	minimum = 0.0145 (at node 5)
	maximum = 0.0285 (at node 11)
Accepted packet rate average = 0.0205313
	minimum = 0.0145 (at node 5)
	maximum = 0.0285 (at node 14)
Injected flit rate average = 0.02075
	minimum = 0.0145 (at node 5)
	maximum = 0.0285 (at node 11)
Accepted flit rate average= 0.0205313
	minimum = 0.0145 (at node 5)
	maximum = 0.0285 (at node 14)
Injected packet length average = 1
Accepted packet length average = 1
Total in-flight flits = 7 (0 measured)
latency change    = 0.0122987
throughput change = 0.0624049
Class 0:
Packet latency average = 19.7418
	minimum = 7
	maximum = 44
Network latency average = 19.7418
	minimum = 7
	maximum = 44
Slowest packet = 6043
Flit latency average = 19.7418
	minimum = 7
	maximum = 44
Slowest flit = 6043
Fragmentation average = 0
	minimum = 0
	maximum = 0
Injected packet rate average = 0.021
	minimum = 0.014 (at node 9)
	maximum = 0.027 (at node 3)
Accepted packet rate average = 0.0210625
	minimum = 0.014 (at node 6)
	maximum = 0.026 (at node 1)
Injected flit rate average = 0.021
	minimum = 0.014 (at node 9)
	maximum = 0.027 (at node 3)
Accepted flit rate average= 0.0210625
	minimum = 0.014 (at node 6)
	maximum = 0.026 (at node 1)
Injected packet length average = 1
Accepted packet length average = 1
Total in-flight flits = 6 (0 measured)
latency change    = 0.0375942
throughput change = 0.0252226
Warmed up ...Time used is 3000 cycles
Class 0:
Packet latency average = 19.3152
	minimum = 7
	maximum = 44
Network latency average = 19.3152
	minimum = 7
	maximum = 44
Slowest packet = 6266
Flit latency average = 19.5446
	minimum = 7
	maximum = 44
Slowest flit = 6266
Fragmentation average = 0
	minimum = 0
	maximum = 0
Injected packet rate average = 0.020875
	minimum = 0.015 (at node 1)
	maximum = 0.032 (at node 5)
Accepted packet rate average = 0.021
	minimum = 0.014 (at node 1)
	maximum = 0.032 (at node 5)
Injected flit rate average = 0.020875
	minimum = 0.015 (at node 1)
	maximum = 0.032 (at node 5)
Accepted flit rate average= 0.021
	minimum = 0.014 (at node 1)
	maximum = 0.032 (at node 5)
Injected packet length average = 1
Accepted packet length average = 1
Total in-flight flits = 4 (4 measured)
latency change    = 0.0220909
throughput change = 0.00297619
Class 0:
Packet latency average = 20.0285
	minimum = 7
	maximum = 53
Network latency average = 20.0285
	minimum = 7
	maximum = 53
Slowest packet = 6549
Flit latency average = 20.1369
	minimum = 7
	maximum = 53
Slowest flit = 6549
Fragmentation average = 0
	minimum = 0
	maximum = 0
Injected packet rate average = 0.021
	minimum = 0.017 (at node 15)
	maximum = 0.0255 (at node 5)
Accepted packet rate average = 0.021
	minimum = 0.0165 (at node 15)
	maximum = 0.026 (at node 7)
Injected flit rate average = 0.021
	minimum = 0.017 (at node 15)
	maximum = 0.0255 (at node 5)
Accepted flit rate average= 0.021
	minimum = 0.0165 (at node 15)
	maximum = 0.026 (at node 7)
Injected packet length average = 1
Accepted packet length average = 1
Total in-flight flits = 6 (6 measured)
latency change    = 0.035618
throughput change = 0
Class 0:
Packet latency average = 19.8645
	minimum = 7
	maximum = 56
Network latency average = 19.8645
	minimum = 7
	maximum = 56
Slowest packet = 7091
Flit latency average = 19.9381
	minimum = 7
	maximum = 56
Slowest flit = 7091
Fragmentation average = 0
	minimum = 0
	maximum = 0
Injected packet rate average = 0.0208333
	minimum = 0.0183333 (at node 2)
	maximum = 0.0243333 (at node 5)
Accepted packet rate average = 0.020875
	minimum = 0.0183333 (at node 13)
	maximum = 0.0246667 (at node 3)
Injected flit rate average = 0.0208333
	minimum = 0.0183333 (at node 2)
	maximum = 0.0243333 (at node 5)
Accepted flit rate average= 0.020875
	minimum = 0.0183333 (at node 13)
	maximum = 0.0246667 (at node 3)
Injected packet length average = 1
Accepted packet length average = 1
Total in-flight flits = 4 (4 measured)
latency change    = 0.00825951
throughput change = 0.00598802
Draining all recorded packets ...
Draining remaining packets ...
Time taken is 6035 cycles
Class 0:
Packet latency average = 19.6646
	minimum = 7
	maximum = 52
Network latency average = 19.6646
	minimum = 7
	maximum = 52
Slowest packet = 7210
Flit latency average = 19.6646
	minimum = 7
	maximum = 52
Slowest flit = 7210
Fragmentation average = 0
	minimum = 0
	maximum = 0
Injected packet rate average = 0.020625
	minimum = 0.014 (at node 7)
	maximum = 0.027 (at node 9)
Accepted packet rate average = 0.0203125
	minimum = 0.013 (at node 13)
	maximum = 0.027 (at node 6)
Injected flit rate average = 0.020625
	minimum = 0.014 (at node 7)
	maximum = 0.027 (at node 9)
Accepted flit rate average= 0.0203125
	minimum = 0.013 (at node 13)
	maximum = 0.027 (at node 6)
Injected packet length average = 1
Accepted packet length average = 1
Total in-flight flits = 5 (0 measured)
latency change    = 1
throughput change = 1
Class 0:
Packet latency average = 19.7793
	minimum = 7
	maximum = 58
Network latency average = 19.7793
	minimum = 7
	maximum = 58
Slowest packet = 7645
Flit latency average = 19.7793
	minimum = 7
	maximum = 58
Slowest flit = 7645
Fragmentation average = 0
	minimum = 0
	maximum = 0
Injected packet rate average = 0.0206875
	minimum = 0.0145 (at node 7)
	maximum = 0.03 (at node 2)
Accepted packet rate average = 0.0205313
	minimum = 0.0145 (at node 13)
	maximum = 0.029 (at node 8)
Injected flit rate average = 0.0206875
	minimum = 0.0145 (at node 7)
	maximum = 0.03 (at node 2)
Accepted flit rate average= 0.0205313
	minimum = 0.0145 (at node 13)
	maximum = 0.029 (at node 8)
Injected packet length average = 1
Accepted packet length average = 1
Total in-flight flits = 5 (0 measured)
latency change    = 0.00579821
throughput change = 0.0106545
Class 0:
Packet latency average = 20.6037
	minimum = 7
	maximum = 50
Network latency average = 20.6037
	minimum = 7
	maximum = 50
Slowest packet = 8018
Flit latency average = 20.6037
	minimum = 7
	maximum = 50
Slowest flit = 8018
Fragmentation average = 0
	minimum = 0
	maximum = 0
Injected packet rate average = 0.02
	minimum = 0.011 (at node 10)
	maximum = 0.025 (at node 9)
Accepted packet rate average = 0.0201875
	minimum = 0.011 (at node 10)
	maximum = 0.026 (at node 11)
Injected flit rate average = 0.02
	minimum = 0.011 (at node 10)
	maximum = 0.025 (at node 9)
Accepted flit rate average= 0.0201875
	minimum = 0.011 (at node 10)
	maximum = 0.026 (at node 11)
Injected packet length average = 1
Accepted packet length average = 1
Total in-flight flits = 2 (0 measured)
latency change    = 0.0400129
throughput change = 0.0170279
Warmed up ...Time used is 3000 cycles
Class 0:
Packet latency average = 19.9256
	minimum = 7
	maximum = 43
Network latency average = 19.9256
	minimum = 7
	maximum = 43
Slowest packet = 8253
Flit latency average = 19.9711
	minimum = 7
	maximum = 43
Slowest flit = 8253
Fragmentation average = 0
	minimum = 0
	maximum = 0
Injected packet rate average = 0.0196875
	minimum = 0.014 (at node 1)
	maximum = 0.023 (at node 3)
Accepted packet rate average = 0.0194375
	minimum = 0.014 (at node 4)
	maximum = 0.023 (at node 1)
Injected flit rate average = 0.0196875
	minimum = 0.014 (at node 1)
	maximum = 0.023 (at node 3)
Accepted flit rate average= 0.0194375
	minimum = 0.014 (at node 4)
	maximum = 0.023 (at node 1)
Injected packet length average = 1
Accepted packet length average = 1
Total in-flight flits = 6 (6 measured)
latency change    = 0.0340341
throughput change = 0.0385852
Class 0:
Packet latency average = 20.1564
	minimum = 7
	maximum = 47
Network latency average = 20.1564
	minimum = 7
	maximum = 47
Slowest packet = 8520
Flit latency average = 20.1769
	minimum = 7
	maximum = 47
Slowest flit = 8520
Fragmentation average = 0
	minimum = 0
	maximum = 0
Injected packet rate average = 0.0209063
	minimum = 0.0145 (at node 1)
	maximum = 0.025 (at node 8)
Accepted packet rate average = 0.0208438
	minimum = 0.0145 (at node 4)
	maximum = 0.0245 (at node 2)
Injected flit rate average = 0.0209063
	minimum = 0.0145 (at node 1)
	maximum = 0.025 (at node 8)
Accepted flit rate average= 0.0208438
	minimum = 0.0145 (at node 4)
	maximum = 0.0245 (at node 2)
Injected packet length average = 1
Accepted packet length average = 1
Total in-flight flits = 4 (4 measured)
latency change    = 0.0114517
throughput change = 0.0674663
Class 0:
Packet latency average = 20.1065
	minimum = 7
	maximum = 47
Network latency average = 20.1065
	minimum = 7
	maximum = 47
Slowest packet = 8520
Flit latency average = 20.1204
	minimum = 7
	maximum = 47
Slowest flit = 8520
Fragmentation average = 0
	minimum = 0
	maximum = 0
Injected packet rate average = 0.0206875
	minimum = 0.0146667 (at node 1)
	maximum = 0.0236667 (at node 7)
Accepted packet rate average = 0.0205833
	minimum = 0.0146667 (at node 4)
	maximum = 0.0233333 (at node 7)
Injected flit rate average = 0.0206875
	minimum = 0.0146667 (at node 1)
	maximum = 0.0236667 (at node 7)
Accepted flit rate average= 0.0205833
	minimum = 0.0146667 (at node 4)
	maximum = 0.0233333 (at node 7)
Injected packet length average = 1
Accepted packet length average = 1
Total in-flight flits = 7 (7 measured)
latency change    = 0.00248179
throughput change = 0.0126518
Class 0:
Packet latency average = 20.0746
	minimum = 7
	maximum = 47
Network latency average = 20.0746
	minimum = 7
	maximum = 47
Slowest packet = 8520
Flit latency average = 20.0853
	minimum = 7
	maximum = 47
Slowest flit = 8520
Fragmentation average = 0
	minimum = 0
	maximum = 0
Injected packet rate average = 0.0201875
	minimum = 0.015 (at node 1)
	maximum = 0.023 (at node 8)
Accepted packet rate average = 0.0201406
	minimum = 0.015 (at node 4)
	maximum = 0.0225 (at node 2)
Injected flit rate average = 0.0201875
	minimum = 0.015 (at node 1)
	maximum = 0.023 (at node 8)
Accepted flit rate average= 0.0201406
	minimum = 0.015 (at node 4)
	maximum = 0.0225 (at node 2)
Injected packet length average = 1
Accepted packet length average = 1
Total in-flight flits = 5 (5 measured)
latency change    = 0.00158901
throughput change = 0.0219809
Class 0:
Packet latency average = 19.6445
	minimum = 7
	maximum = 47
Network latency average = 19.6445
	minimum = 7
	maximum = 47
Slowest packet = 8520
Flit latency average = 19.6537
	minimum = 7
	maximum = 47
Slowest flit = 8520
Fragmentation average = 0
	minimum = 0
	maximum = 0
Injected packet rate average = 0.02005
	minimum = 0.018 (at node 1)
	maximum = 0.0222 (at node 6)
Accepted packet rate average = 0.0199625
	minimum = 0.018 (at node 4)
	maximum = 0.0216 (at node 9)
Injected flit rate average = 0.02005
	minimum = 0.018 (at node 1)
	maximum = 0.0222 (at node 6)
Accepted flit rate average= 0.0199625
	minimum = 0.018 (at node 4)
	maximum = 0.0216 (at node 9)
Injected packet length average = 1
Accepted packet length average = 1
Total in-flight flits = 9 (9 measured)
latency change    = 0.021893
throughput change = 0.00892298
Draining all recorded packets ...
Draining remaining packets ...
Time taken is 8049 cycles
Class 0:
Packet latency average = 19.7165
	minimum = 7
	maximum = 44
Network latency average = 19.7165
	minimum = 7
	maximum = 44
Slowest packet = 10002
Flit latency average = 19.7165
	minimum = 7
	maximum = 44
Slowest flit = 10002
Fragmentation average = 0
	minimum = 0
	maximum = 0
Injected packet rate average = 0.020375
	minimum = 0.016 (at node 3)
	maximum = 0.025 (at node 12)
Accepted packet rate average = 0.0200625
	minimum = 0.016 (at node 11)
	maximum = 0.024 (at node 3)
Injected flit rate average = 0.020375
	minimum = 0.016 (at node 3)
	maximum = 0.025 (at node 12)
Accepted flit rate average= 0.0200625
	minimum = 0.016 (at node 11)
	maximum = 0.024 (at node 3)
Injected packet length average = 1
Accepted packet length average = 1
Total in-flight flits = 5 (0 measured)
latency change    = 1
throughput change = 1
Class 0:
Packet latency average = 19.8373
	minimum = 7
	maximum = 45
Network latency average = 19.8373
	minimum = 7
	maximum = 45
Slowest packet = 10220
Flit latency average = 19.8373
	minimum = 7
	maximum = 45
Slowest flit = 10220
Fragmentation average = 0
	minimum = 0
	maximum = 0
Injected packet rate average = 0.0197188
	minimum = 0.0155 (at node 3)
	maximum = 0.026 (at node 12)
Accepted packet rate average = 0.0195938
	minimum = 0.0155 (at node 12)
	maximum = 0.0255 (at node 3)
Injected flit rate average = 0.0197188
	minimum = 0.0155 (at node 3)
	maximum = 0.026 (at node 12)
Accepted flit rate average= 0.0195938
	minimum = 0.0155 (at node 12)
	maximum = 0.0255 (at node 3)
Injected packet length average = 1
Accepted packet length average = 1
Total in-flight flits = 4 (0 measured)
latency change    = 0.00609002
throughput change = 0.0239234
Class 0:
Packet latency average = 19.6295
	minimum = 7
	maximum = 52
Network latency average = 19.6295
	minimum = 7
	maximum = 52
Slowest packet = 10607
Flit latency average = 19.6295
	minimum = 7
	maximum = 52
Slowest flit = 10607
Fragmentation average = 0
	minimum = 0
	maximum = 0
Injected packet rate average = 0.019125
	minimum = 0.012 (at node 8)
	maximum = 0.025 (at node 5)
Accepted packet rate average = 0.0190625
	minimum = 0.012 (at node 2)
	maximum = 0.025 (at node 5)
Injected flit rate average = 0.019125
	minimum = 0.012 (at node 8)
	maximum = 0.025 (at node 5)
Accepted flit rate average= 0.0190625
	minimum = 0.012 (at node 2)
	maximum = 0.025 (at node 5)
Injected packet length average = 1
Accepted packet length average = 1
Total in-flight flits = 5 (0 measured)
latency change    = 0.0105867
throughput change = 0.0278689
Warmed up ...Time used is 3000 cycles
Class 0:
Packet latency average = 20.5462
	minimum = 7
	maximum = 45
Network latency average = 20.5462
	minimum = 7
	maximum = 45
Slowest packet = 10857
Flit latency average = 20.6097
	minimum = 7
	maximum = 45
Slowest flit = 10857
Fragmentation average = 0
	minimum = 0
	maximum = 0
Injected packet rate average = 0.022
	minimum = 0.012 (at node 4)
	maximum = 0.03 (at node 13)
Accepted packet rate average = 0.0219375
	minimum = 0.013 (at node 1)
	maximum = 0.031 (at node 7)
Injected flit rate average = 0.022
	minimum = 0.012 (at node 4)
	maximum = 0.03 (at node 13)
Accepted flit rate average= 0.0219375
	minimum = 0.013 (at node 1)
	maximum = 0.031 (at node 7)
Injected packet length average = 1
Accepted packet length average = 1
Total in-flight flits = 6 (6 measured)
latency change    = 0.0446181
throughput change = 0.131054
Class 0:
Packet latency average = 20.1279
	minimum = 7
	maximum = 45
Network latency average = 20.1279
	minimum = 7
	maximum = 45
Slowest packet = 10857
Flit latency average = 20.1647
	minimum = 7
	maximum = 45
Slowest flit = 10857
Fragmentation average = 0
	minimum = 0
	maximum = 0
Injected packet rate average = 0.0207188
	minimum = 0.016 (at node 3)
	maximum = 0.0265 (at node 1)
Accepted packet rate average = 0.0206875
	minimum = 0.016 (at node 12)
	maximum = 0.0265 (at node 7)
Injected flit rate average = 0.0207188
	minimum = 0.016 (at node 3)
	maximum = 0.0265 (at node 1)
Accepted flit rate average= 0.0206875
	minimum = 0.016 (at node 12)
	maximum = 0.0265 (at node 7)
Injected packet length average = 1
Accepted packet length average = 1
Total in-flight flits = 6 (6 measured)
latency change    = 0.0207866
throughput change = 0.060423
Class 0:
Packet latency average = 19.857
	minimum = 7
	maximum = 47
Network latency average = 19.857
	minimum = 7
	maximum = 47
Slowest packet = 11577
Flit latency average = 19.8835
	minimum = 7
	maximum = 47
Slowest flit = 11577
Fragmentation average = 0
	minimum = 0
	maximum = 0
Injected packet rate average = 0.0203125
	minimum = 0.015 (at node 3)
	maximum = 0.0246667 (at node 6)
Accepted packet rate average = 0.0202083
	minimum = 0.0143333 (at node 12)
	maximum = 0.0246667 (at node 13)
Injected flit rate average = 0.0203125
	minimum = 0.015 (at node 3)
	maximum = 0.0246667 (at node 6)
Accepted flit rate average= 0.0202083
	minimum = 0.0143333 (at node 12)
	maximum = 0.0246667 (at node 13)
Injected packet length average = 1
Accepted packet length average = 1
Total in-flight flits = 10 (10 measured)
latency change    = 0.0136405
throughput change = 0.0237113
Class 0:
Packet latency average = 19.8036
	minimum = 7
	maximum = 47
Network latency average = 19.8036
	minimum = 7
	maximum = 47
Slowest packet = 11577
Flit latency average = 19.8237
	minimum = 7
	maximum = 47
Slowest flit = 11577
Fragmentation average = 0
	minimum = 0
	maximum = 0
Injected packet rate average = 0.0202188
	minimum = 0.0155 (at node 3)
	maximum = 0.0235 (at node 6)
Accepted packet rate average = 0.0202031
	minimum = 0.01525 (at node 12)
	maximum = 0.0235 (at node 9)
Injected flit rate average = 0.0202188
	minimum = 0.0155 (at node 3)
	maximum = 0.0235 (at node 6)
Accepted flit rate average= 0.0202031
	minimum = 0.01525 (at node 12)
	maximum = 0.0235 (at node 9)
Injected packet length average = 1
Accepted packet length average = 1
Total in-flight flits = 6 (6 measured)
latency change    = 0.00269766
throughput change = 0.000257798
Class 0:
Packet latency average = 19.8143
	minimum = 7
	maximum = 47
Network latency average = 19.8143
	minimum = 7
	maximum = 47
Slowest packet = 11577
Flit latency average = 19.83
	minimum = 7
	maximum = 47
Slowest flit = 11577
Fragmentation average = 0
	minimum = 0
	maximum = 0
Injected packet rate average = 0.0207125
	minimum = 0.0174 (at node 10)
	maximum = 0.0242 (at node 6)
Accepted packet rate average = 0.0206625
	minimum = 0.0174 (at node 10)
	maximum = 0.0242 (at node 9)
Injected flit rate average = 0.0207125
	minimum = 0.0174 (at node 10)
	maximum = 0.0242 (at node 6)
Accepted flit rate average= 0.0206625
	minimum = 0.0174 (at node 10)
	maximum = 0.0242 (at node 9)
Injected packet length average = 1
Accepted packet length average = 1
Total in-flight flits = 9 (9 measured)
latency change    = 0.000542484
throughput change = 0.0222323
Draining all recorded packets ...
Draining remaining packets ...
Time taken is 8044 cycles
Class 0:
Packet latency average = 19.6835
	minimum = 7
	maximum = 41
Network latency average = 19.6835
	minimum = 7
	maximum = 41
Slowest packet = 12492
Flit latency average = 19.6835
	minimum = 7
	maximum = 41
Slowest flit = 12492
Fragmentation average = 0
	minimum = 0
	maximum = 0
Injected packet rate average = 0.0205
	minimum = 0.015 (at node 15)
	maximum = 0.029 (at node 12)
Accepted packet rate average = 0.01975
	minimum = 0.015 (at node 2)
	maximum = 0.025 (at node 1)
Injected flit rate average = 0.0205
	minimum = 0.015 (at node 15)
	maximum = 0.029 (at node 12)
Accepted flit rate average= 0.01975
	minimum = 0.015 (at node 2)
	maximum = 0.025 (at node 1)
Injected packet length average = 1
Accepted packet length average = 1
Total in-flight flits = 12 (0 measured)
latency change    = 1
throughput change = 1
Class 0:
Packet latency average = 20.1324
	minimum = 7
	maximum = 44
Network latency average = 20.1324
	minimum = 7
	maximum = 44
Slowest packet = 12711
Flit latency average = 20.1324
	minimum = 7
	maximum = 44
Slowest flit = 12711
Fragmentation average = 0
	minimum = 0
	maximum = 0
Injected packet rate average = 0.0203125
	minimum = 0.017 (at node 13)
	maximum = 0.0235 (at node 12)
Accepted packet rate average = 0.0200625
	minimum = 0.0165 (at node 7)
	maximum = 0.0235 (at node 3)
Injected flit rate average = 0.0203125
	minimum = 0.017 (at node 13)
	maximum = 0.0235 (at node 12)
Accepted flit rate average= 0.0200625
	minimum = 0.0165 (at node 7)
	maximum = 0.0235 (at node 3)
Injected packet length average = 1
Accepted packet length average = 1
Total in-flight flits = 8 (0 measured)
latency change    = 0.0222951
throughput change = 0.0155763
Class 0:
Packet latency average = 19.9599
	minimum = 7
	maximum = 46
Network latency average = 19.9599
	minimum = 7
	maximum = 46
Slowest packet = 13046
Flit latency average = 19.9599
	minimum = 7
	maximum = 46
Slowest flit = 13046
Fragmentation average = 0
	minimum = 0
	maximum = 0
Injected packet rate average = 0.018375
	minimum = 0.012 (at node 4)
	maximum = 0.028 (at node 13)
Accepted packet rate average = 0.0186875
	minimum = 0.012 (at node 1)
	maximum = 0.028 (at node 7)
Injected flit rate average = 0.018375
	minimum = 0.012 (at node 4)
	maximum = 0.028 (at node 13)
Accepted flit rate average= 0.0186875
	minimum = 0.012 (at node 1)
	maximum = 0.028 (at node 7)
Injected packet length average = 1
Accepted packet length average = 1
Total in-flight flits = 3 (0 measured)
latency change    = 0.00864397
throughput change = 0.0735786
Warmed up ...Time used is 3000 cycles
Class 0:
Packet latency average = 19.1288
	minimum = 7
	maximum = 47
Network latency average = 19.1288
	minimum = 7
	maximum = 47
Slowest packet = 13463
Flit latency average = 19.231
	minimum = 7
	maximum = 47
Slowest flit = 13463
Fragmentation average = 0
	minimum = 0
	maximum = 0
Injected packet rate average = 0.020625
	minimum = 0.014 (at node 7)
	maximum = 0.028 (at node 6)
Accepted packet rate average = 0.0205625
	minimum = 0.014 (at node 13)
	maximum = 0.028 (at node 9)
Injected flit rate average = 0.020625
	minimum = 0.014 (at node 7)
	maximum = 0.028 (at node 6)
Accepted flit rate average= 0.0205625
	minimum = 0.014 (at node 13)
	maximum = 0.028 (at node 9)
Injected packet length average = 1
Accepted packet length average = 1
Total in-flight flits = 4 (4 measured)
latency change    = 0.0434439
throughput change = 0.0911854
Class 0:
Packet latency average = 19.1817
	minimum = 7
	maximum = 47
Network latency average = 19.1817
	minimum = 7
	maximum = 47
Slowest packet = 13463
Flit latency average = 19.2325
	minimum = 7
	maximum = 47
Slowest flit = 13463
Fragmentation average = 0
	minimum = 0
	maximum = 0
Injected packet rate average = 0.0205625
	minimum = 0.0175 (at node 4)
	maximum = 0.026 (at node 6)
Accepted packet rate average = 0.0205625
	minimum = 0.0175 (at node 1)
	maximum = 0.026 (at node 9)
Injected flit rate average = 0.0205625
	minimum = 0.0175 (at node 4)
	maximum = 0.026 (at node 6)
Accepted flit rate average= 0.0205625
	minimum = 0.0175 (at node 1)
	maximum = 0.026 (at node 9)
Injected packet length average = 1
Accepted packet length average = 1
Total in-flight flits = 3 (3 measured)
latency change    = 0.00275497
throughput change = 0
Class 0:
Packet latency average = 19.4393
	minimum = 7
	maximum = 55
Network latency average = 19.4393
	minimum = 7
	maximum = 55
Slowest packet = 14279
Flit latency average = 19.4726
	minimum = 7
	maximum = 55
Slowest flit = 14279
Fragmentation average = 0
	minimum = 0
	maximum = 0
Injected packet rate average = 0.0205833
	minimum = 0.018 (at node 0)
	maximum = 0.0253333 (at node 10)
Accepted packet rate average = 0.0205
	minimum = 0.0176667 (at node 11)
	maximum = 0.0253333 (at node 10)
Injected flit rate average = 0.0205833
	minimum = 0.018 (at node 0)
	maximum = 0.0253333 (at node 10)
Accepted flit rate average= 0.0205
	minimum = 0.0176667 (at node 11)
	maximum = 0.0253333 (at node 10)
Injected packet length average = 1
Accepted packet length average = 1
Total in-flight flits = 7 (7 measured)
latency change    = 0.013255
throughput change = 0.00304878
Class 0:
Packet latency average = 19.2977
	minimum = 7
	maximum = 55
Network latency average = 19.2977
	minimum = 7
	maximum = 55
Slowest packet = 14279
Flit latency average = 19.3231
	minimum = 7
	maximum = 55
Slowest flit = 14279
Fragmentation average = 0
	minimum = 0
	maximum = 0
Injected packet rate average = 0.0203594
	minimum = 0.01725 (at node 12)
	maximum = 0.02325 (at node 6)
Accepted packet rate average = 0.0203594
	minimum = 0.01725 (at node 3)
	maximum = 0.02325 (at node 10)
Injected flit rate average = 0.0203594
	minimum = 0.01725 (at node 12)
	maximum = 0.02325 (at node 6)
Accepted flit rate average= 0.0203594
	minimum = 0.01725 (at node 3)
	maximum = 0.02325 (at node 10)
Injected packet length average = 1
Accepted packet length average = 1
Total in-flight flits = 3 (3 measured)
latency change    = 0.00734053
throughput change = 0.00690714
Draining all recorded packets ...
Draining remaining packets ...
Time taken is 7036 cycles
Class 0:
Packet latency average = 18.4314
	minimum = 7
	maximum = 39
Network latency average = 18.4314
	minimum = 7
	maximum = 39
Slowest packet = 14765
Flit latency average = 18.4314
	minimum = 7
	maximum = 39
Slowest flit = 14765
Fragmentation average = 0
	minimum = 0
	maximum = 0
Injected packet rate average = 0.019625
	minimum = 0.013 (at node 11)
	maximum = 0.029 (at node 1)
Accepted packet rate average = 0.019125
	minimum = 0.013 (at node 12)
	maximum = 0.029 (at node 4)
Injected flit rate average = 0.019625
	minimum = 0.013 (at node 11)
	maximum = 0.029 (at node 1)
Accepted flit rate average= 0.019125
	minimum = 0.013 (at node 12)
	maximum = 0.029 (at node 4)
Injected packet length average = 1
Accepted packet length average = 1
Total in-flight flits = 8 (0 measured)
latency change    = 1
throughput change = 1
Class 0:
Packet latency average = 19.8642
	minimum = 7
	maximum = 44
Network latency average = 19.8642
	minimum = 7
	maximum = 44
Slowest packet = 15028
Flit latency average = 19.8642
	minimum = 7
	maximum = 44
Slowest flit = 15028
Fragmentation average = 0
	minimum = 0
	maximum = 0
Injected packet rate average = 0.0198438
	minimum = 0.014 (at node 11)
	maximum = 0.0265 (at node 1)
Accepted packet rate average = 0.0195625
	minimum = 0.014 (at node 14)
	maximum = 0.0265 (at node 4)
Injected flit rate average = 0.0198438
	minimum = 0.014 (at node 11)
	maximum = 0.0265 (at node 1)
Accepted flit rate average= 0.0195625
	minimum = 0.014 (at node 14)
	maximum = 0.0265 (at node 4)
Injected packet length average = 1
Accepted packet length average = 1
Total in-flight flits = 9 (0 measured)
latency change    = 0.0721319
throughput change = 0.0223642
Class 0:
Packet latency average = 19.3201
	minimum = 7
	maximum = 44
Network latency average = 19.3201
	minimum = 7
	maximum = 44
Slowest packet = 15263
Flit latency average = 19.3201
	minimum = 7
	maximum = 44
Slowest flit = 15263
Fragmentation average = 0
	minimum = 0
	maximum = 0
Injected packet rate average = 0.022125
	minimum = 0.008 (at node 4)
	maximum = 0.032 (at node 11)
Accepted packet rate average = 0.0220625
	minimum = 0.008 (at node 1)
	maximum = 0.03 (at node 10)
Injected flit rate average = 0.022125
	minimum = 0.008 (at node 4)
	maximum = 0.032 (at node 11)
Accepted flit rate average= 0.0220625
	minimum = 0.008 (at node 1)
	maximum = 0.03 (at node 10)
Injected packet length average = 1
Accepted packet length average = 1
Total in-flight flits = 10 (0 measured)
latency change    = 0.0281626
throughput change = 0.113314
Warmed up ...Time used is 3000 cycles
Class 0:
Packet latency average = 19.4187
	minimum = 7
	maximum = 42
Network latency average = 19.4187
	minimum = 7
	maximum = 42
Slowest packet = 15638
Flit latency average = 19.5455
	minimum = 7
	maximum = 42
Slowest flit = 15638
Fragmentation average = 0
	minimum = 0
	maximum = 0
Injected packet rate average = 0.0203125
	minimum = 0.013 (at node 10)
	maximum = 0.027 (at node 5)
Accepted packet rate average = 0.020625
	minimum = 0.013 (at node 10)
	maximum = 0.027 (at node 5)
Injected flit rate average = 0.0203125
	minimum = 0.013 (at node 10)
	maximum = 0.027 (at node 5)
Accepted flit rate average= 0.020625
	minimum = 0.013 (at node 10)
	maximum = 0.027 (at node 5)
Injected packet length average = 1
Accepted packet length average = 1
Total in-flight flits = 5 (5 measured)
latency change    = 0.00507946
throughput change = 0.069697
Class 0:
Packet latency average = 19.57
	minimum = 7
	maximum = 42
Network latency average = 19.57
	minimum = 7
	maximum = 42
Slowest packet = 15638
Flit latency average = 19.6339
	minimum = 7
	maximum = 42
Slowest flit = 15638
Fragmentation average = 0
	minimum = 0
	maximum = 0
Injected packet rate average = 0.0196563
	minimum = 0.015 (at node 10)
	maximum = 0.0255 (at node 13)
Accepted packet rate average = 0.0197188
	minimum = 0.014 (at node 10)
	maximum = 0.026 (at node 7)
Injected flit rate average = 0.0196563
	minimum = 0.015 (at node 10)
	maximum = 0.0255 (at node 13)
Accepted flit rate average= 0.0197188
	minimum = 0.014 (at node 10)
	maximum = 0.026 (at node 7)
Injected packet length average = 1
Accepted packet length average = 1
Total in-flight flits = 8 (8 measured)
latency change    = 0.00773112
throughput change = 0.0459588
Class 0:
Packet latency average = 19.8091
	minimum = 7
	maximum = 44
Network latency average = 19.8091
	minimum = 7
	maximum = 44
Slowest packet = 16542
Flit latency average = 19.8478
	minimum = 7
	maximum = 44
Slowest flit = 16542
Fragmentation average = 0
	minimum = 0
	maximum = 0
Injected packet rate average = 0.0202917
	minimum = 0.0163333 (at node 11)
	maximum = 0.026 (at node 13)
Accepted packet rate average = 0.0203958
	minimum = 0.017 (at node 10)
	maximum = 0.0263333 (at node 7)
Injected flit rate average = 0.0202917
	minimum = 0.0163333 (at node 11)
	maximum = 0.026 (at node 13)
Accepted flit rate average= 0.0203958
	minimum = 0.017 (at node 10)
	maximum = 0.0263333 (at node 7)
Injected packet length average = 1
Accepted packet length average = 1
Total in-flight flits = 5 (5 measured)
latency change    = 0.0120669
throughput change = 0.0331971
Class 0:
Packet latency average = 19.7775
	minimum = 7
	maximum = 44
Network latency average = 19.7775
	minimum = 7
	maximum = 44
Slowest packet = 16542
Flit latency average = 19.8069
	minimum = 7
	maximum = 44
Slowest flit = 16542
Fragmentation average = 0
	minimum = 0
	maximum = 0
Injected packet rate average = 0.0202656
	minimum = 0.01725 (at node 11)
	maximum = 0.02575 (at node 13)
Accepted packet rate average = 0.0203125
	minimum = 0.0175 (at node 14)
	maximum = 0.026 (at node 7)
Injected flit rate average = 0.0202656
	minimum = 0.01725 (at node 11)
	maximum = 0.02575 (at node 13)
Accepted flit rate average= 0.0203125
	minimum = 0.0175 (at node 14)
	maximum = 0.026 (at node 7)
Injected packet length average = 1
Accepted packet length average = 1
Total in-flight flits = 7 (7 measured)
latency change    = 0.00159586
throughput change = 0.00410256
Draining all recorded packets ...
Draining remaining packets ...
Time taken is 7061 cycles
Class 0:
Packet latency average = 19.2051
	minimum = 7
	maximum = 43
Network latency average = 19.2051
	minimum = 7
	maximum = 43
Slowest packet = 17135
Flit latency average = 19.2051
	minimum = 7
	maximum = 43
Slowest flit = 17135
Fragmentation average = 0
	minimum = 0
	maximum = 0
Injected packet rate average = 0.01975
	minimum = 0.008 (at node 4)
	maximum = 0.03 (at node 0)
Accepted packet rate average = 0.0195
	minimum = 0.008 (at node 1)
	maximum = 0.03 (at node 0)
Injected flit rate average = 0.01975
	minimum = 0.008 (at node 4)
	maximum = 0.03 (at node 0)
Accepted flit rate average= 0.0195
	minimum = 0.008 (at node 1)
	maximum = 0.03 (at node 0)
Injected packet length average = 1
Accepted packet length average = 1
Total in-flight flits = 4 (0 measured)
latency change    = 1
throughput change = 1
Class 0:
Packet latency average = 19.1531
	minimum = 7
	maximum = 45
Network latency average = 19.1531
	minimum = 7
	maximum = 45
Slowest packet = 17474
Flit latency average = 19.1531
	minimum = 7
	maximum = 45
Slowest flit = 17474
Fragmentation average = 0
	minimum = 0
	maximum = 0
Injected packet rate average = 0.02025
	minimum = 0.016 (at node 4)
	maximum = 0.026 (at node 0)
Accepted packet rate average = 0.02
	minimum = 0.016 (at node 1)
	maximum = 0.026 (at node 0)
Injected flit rate average = 0.02025
	minimum = 0.016 (at node 4)
	maximum = 0.026 (at node 0)
Accepted flit rate average= 0.02
	minimum = 0.016 (at node 1)
	maximum = 0.026 (at node 0)
Injected packet length average = 1
Accepted packet length average = 1
Total in-flight flits = 8 (0 measured)
latency change    = 0.00271513
throughput change = 0.025
Class 0:
Packet latency average = 19.9487
	minimum = 7
	maximum = 46
Network latency average = 19.9487
	minimum = 7
	maximum = 46
Slowest packet = 17737
Flit latency average = 19.9487
	minimum = 7
	maximum = 46
Slowest flit = 17737
Fragmentation average = 0
	minimum = 0
	maximum = 0
Injected packet rate average = 0.01925
	minimum = 0.013 (at node 1)
	maximum = 0.026 (at node 9)
Accepted packet rate average = 0.0195
	minimum = 0.012 (at node 4)
	maximum = 0.026 (at node 2)
Injected flit rate average = 0.01925
	minimum = 0.013 (at node 1)
	maximum = 0.026 (at node 9)
Accepted flit rate average= 0.0195
	minimum = 0.012 (at node 4)
	maximum = 0.026 (at node 2)
Injected packet length average = 1
Accepted packet length average = 1
Total in-flight flits = 4 (0 measured)
latency change    = 0.0398819
throughput change = 0.025641
Warmed up ...Time used is 3000 cycles
Class 0:
Packet latency average = 20.9667
	minimum = 7
	maximum = 54
Network latency average = 20.9667
	minimum = 7
	maximum = 54
Slowest packet = 18174
Flit latency average = 20.9491
	minimum = 7
	maximum = 54
Slowest flit = 18174
Fragmentation average = 0
	minimum = 0
	maximum = 0
Injected packet rate average = 0.0208125
	minimum = 0.012 (at node 10)
	maximum = 0.03 (at node 2)
Accepted packet rate average = 0.020875
	minimum = 0.012 (at node 10)
	maximum = 0.031 (at node 8)
Injected flit rate average = 0.0208125
	minimum = 0.012 (at node 10)
	maximum = 0.03 (at node 2)
Accepted flit rate average= 0.020875
	minimum = 0.012 (at node 10)
	maximum = 0.031 (at node 8)
Injected packet length average = 1
Accepted packet length average = 1
Total in-flight flits = 3 (3 measured)
latency change    = 0.0485508
throughput change = 0.0658683
Class 0:
Packet latency average = 20.2845
	minimum = 7
	maximum = 54
Network latency average = 20.2845
	minimum = 7
	maximum = 54
Slowest packet = 18174
Flit latency average = 20.2794
	minimum = 7
	maximum = 54
Slowest flit = 18174
Fragmentation average = 0
	minimum = 0
	maximum = 0
Injected packet rate average = 0.0191875
	minimum = 0.014 (at node 10)
	maximum = 0.024 (at node 2)
Accepted packet rate average = 0.019125
	minimum = 0.014 (at node 10)
	maximum = 0.0245 (at node 8)
Injected flit rate average = 0.0191875
	minimum = 0.014 (at node 10)
	maximum = 0.024 (at node 2)
Accepted flit rate average= 0.019125
	minimum = 0.014 (at node 10)
	maximum = 0.0245 (at node 8)
Injected packet length average = 1
Accepted packet length average = 1
Total in-flight flits = 6 (6 measured)
latency change    = 0.0336279
throughput change = 0.0915033
Class 0:
Packet latency average = 20.1432
	minimum = 7
	maximum = 54
Network latency average = 20.1432
	minimum = 7
	maximum = 54
Slowest packet = 18174
Flit latency average = 20.1403
	minimum = 7
	maximum = 54
Slowest flit = 18174
Fragmentation average = 0
	minimum = 0
	maximum = 0
Injected packet rate average = 0.01875
	minimum = 0.015 (at node 6)
	maximum = 0.0223333 (at node 3)
Accepted packet rate average = 0.0187083
	minimum = 0.015 (at node 9)
	maximum = 0.0223333 (at node 5)
Injected flit rate average = 0.01875
	minimum = 0.015 (at node 6)
	maximum = 0.0223333 (at node 3)
Accepted flit rate average= 0.0187083
	minimum = 0.015 (at node 9)
	maximum = 0.0223333 (at node 5)
Injected packet length average = 1
Accepted packet length average = 1
Total in-flight flits = 6 (6 measured)
latency change    = 0.0070179
throughput change = 0.0222717
Class 0:
Packet latency average = 20.0872
	minimum = 7
	maximum = 54
Network latency average = 20.0872
	minimum = 7
	maximum = 54
Slowest packet = 18174
Flit latency average = 20.0852
	minimum = 7
	maximum = 54
Slowest flit = 18174
Fragmentation average = 0
	minimum = 0
	maximum = 0
Injected packet rate average = 0.0190781
	minimum = 0.01475 (at node 15)
	maximum = 0.02275 (at node 5)
Accepted packet rate average = 0.0190625
	minimum = 0.01475 (at node 15)
	maximum = 0.02275 (at node 5)
Injected flit rate average = 0.0190781
	minimum = 0.01475 (at node 15)
	maximum = 0.02275 (at node 5)
Accepted flit rate average= 0.0190625
	minimum = 0.01475 (at node 15)
	maximum = 0.02275 (at node 5)
Injected packet length average = 1
Accepted packet length average = 1
Total in-flight flits = 5 (5 measured)
latency change    = 0.00278813
throughput change = 0.0185792
Class 0:
Packet latency average = 19.9704
	minimum = 7
	maximum = 54
Network latency average = 19.9704
	minimum = 7
	maximum = 54
Slowest packet = 18174
Flit latency average = 19.9692
	minimum = 7
	maximum = 54
Slowest flit = 18174
Fragmentation average = 0
	minimum = 0
	maximum = 0
Injected packet rate average = 0.0194625
	minimum = 0.0142 (at node 15)
	maximum = 0.022 (at node 2)
Accepted packet rate average = 0.0194875
	minimum = 0.0142 (at node 15)
	maximum = 0.0222 (at node 8)
Injected flit rate average = 0.0194625
	minimum = 0.0142 (at node 15)
	maximum = 0.022 (at node 2)
Accepted flit rate average= 0.0194875
	minimum = 0.0142 (at node 15)
	maximum = 0.0222 (at node 8)
Injected packet length average = 1
Accepted packet length average = 1
Total in-flight flits = 2 (2 measured)
latency change    = 0.0058463
throughput change = 0.0218089
Draining all recorded packets ...
Draining remaining packets ...
Time taken is 8007 cycles
Class 0:
Packet latency average = 19.9406
	minimum = 7
	maximum = 42
Network latency average = 19.9406
	minimum = 7
	maximum = 42
Slowest packet = 19466
Flit latency average = 19.9406
	minimum = 7
	maximum = 42
Slowest flit = 19466
Fragmentation average = 0
	minimum = 0
	maximum = 0
Injected packet rate average = 0.0183125
	minimum = 0.011 (at node 6)
	maximum = 0.026 (at node 13)
Accepted packet rate average = 0.017875
	minimum = 0.011 (at node 9)
	maximum = 0.025 (at node 7)
Injected flit rate average = 0.0183125
	minimum = 0.011 (at node 6)
	maximum = 0.026 (at node 13)
Accepted flit rate average= 0.017875
	minimum = 0.011 (at node 9)
	maximum = 0.025 (at node 7)
Injected packet length average = 1
Accepted packet length average = 1
Total in-flight flits = 7 (0 measured)
latency change    = 1
throughput change = 1
Class 0:
Packet latency average = 19.8764
	minimum = 7
	maximum = 42
Network latency average = 19.8764
	minimum = 7
	maximum = 42
Slowest packet = 19466
Flit latency average = 19.8764
	minimum = 7
	maximum = 42
Slowest flit = 19466
Fragmentation average = 0
	minimum = 0
	maximum = 0
Injected packet rate average = 0.0192187
	minimum = 0.014 (at node 8)
	maximum = 0.0265 (at node 0)
Accepted packet rate average = 0.0189687
	minimum = 0.0135 (at node 2)
	maximum = 0.0265 (at node 0)
Injected flit rate average = 0.0192187
	minimum = 0.014 (at node 8)
	maximum = 0.0265 (at node 0)
Accepted flit rate average= 0.0189687
	minimum = 0.0135 (at node 2)
	maximum = 0.0265 (at node 0)
Injected packet length average = 1
Accepted packet length average = 1
Total in-flight flits = 8 (0 measured)
latency change    = 0.00322583
throughput change = 0.0576606
Class 0:
Packet latency average = 19.0581
	minimum = 7
	maximum = 40
Network latency average = 19.0581
	minimum = 7
	maximum = 40
Slowest packet = 20137
Flit latency average = 19.0581
	minimum = 7
	maximum = 40
Slowest flit = 20137
Fragmentation average = 0
	minimum = 0
	maximum = 0
Injected packet rate average = 0.0214375
	minimum = 0.011 (at node 2)
	maximum = 0.035 (at node 14)
Accepted packet rate average = 0.0215
	minimum = 0.012 (at node 8)
	maximum = 0.034 (at node 11)
Injected flit rate average = 0.0214375
	minimum = 0.011 (at node 2)
	maximum = 0.035 (at node 14)
Accepted flit rate average= 0.0215
	minimum = 0.012 (at node 8)
	maximum = 0.034 (at node 11)
Injected packet length average = 1
Accepted packet length average = 1
Total in-flight flits = 7 (0 measured)
latency change    = 0.0429371
throughput change = 0.117733
Warmed up ...Time used is 3000 cycles
Class 0:
Packet latency average = 18.9379
	minimum = 7
	maximum = 45
Network latency average = 18.9379
	minimum = 7
	maximum = 45
Slowest packet = 20459
Flit latency average = 19.1616
	minimum = 7
	maximum = 45
Slowest flit = 20459
Fragmentation average = 0
	minimum = 0
	maximum = 0
Injected packet rate average = 0.0186875
	minimum = 0.01 (at node 14)
	maximum = 0.03 (at node 10)
Accepted packet rate average = 0.0185625
	minimum = 0.011 (at node 11)
	maximum = 0.028 (at node 10)
Injected flit rate average = 0.0186875
	minimum = 0.01 (at node 14)
	maximum = 0.03 (at node 10)
Accepted flit rate average= 0.0185625
	minimum = 0.011 (at node 11)
	maximum = 0.028 (at node 10)
Injected packet length average = 1
Accepted packet length average = 1
Total in-flight flits = 9 (9 measured)
latency change    = 0.0063475
throughput change = 0.158249
Class 0:
Packet latency average = 19.4779
	minimum = 7
	maximum = 50
Network latency average = 19.4779
	minimum = 7
	maximum = 50
Slowest packet = 20775
Flit latency average = 19.5793
	minimum = 7
	maximum = 50
Slowest flit = 20775
Fragmentation average = 0
	minimum = 0
	maximum = 0
Injected packet rate average = 0.0191562
	minimum = 0.0155 (at node 15)
	maximum = 0.0235 (at node 1)
Accepted packet rate average = 0.0193125
	minimum = 0.0155 (at node 15)
	maximum = 0.0235 (at node 4)
Injected flit rate average = 0.0191562
	minimum = 0.0155 (at node 15)
	maximum = 0.0235 (at node 1)
Accepted flit rate average= 0.0193125
	minimum = 0.0155 (at node 15)
	maximum = 0.0235 (at node 4)
Injected packet length average = 1
Accepted packet length average = 1
Total in-flight flits = 2 (2 measured)
latency change    = 0.0277224
throughput change = 0.038835
Class 0:
Packet latency average = 19.3776
	minimum = 7
	maximum = 50
Network latency average = 19.3776
	minimum = 7
	maximum = 50
Slowest packet = 20775
Flit latency average = 19.4454
	minimum = 7
	maximum = 50
Slowest flit = 20775
Fragmentation average = 0
	minimum = 0
	maximum = 0
Injected packet rate average = 0.0194375
	minimum = 0.0166667 (at node 15)
	maximum = 0.0236667 (at node 0)
Accepted packet rate average = 0.0194583
	minimum = 0.0166667 (at node 15)
	maximum = 0.0236667 (at node 0)
Injected flit rate average = 0.0194375
	minimum = 0.0166667 (at node 15)
	maximum = 0.0236667 (at node 0)
Accepted flit rate average= 0.0194583
	minimum = 0.0166667 (at node 15)
	maximum = 0.0236667 (at node 0)
Injected packet length average = 1
Accepted packet length average = 1
Total in-flight flits = 6 (6 measured)
latency change    = 0.00517831
throughput change = 0.00749465
Class 0:
Packet latency average = 19.7549
	minimum = 7
	maximum = 50
Network latency average = 19.7549
	minimum = 7
	maximum = 50
Slowest packet = 20775
Flit latency average = 19.8037
	minimum = 7
	maximum = 50
Slowest flit = 20775
Fragmentation average = 0
	minimum = 0
	maximum = 0
Injected packet rate average = 0.0193906
	minimum = 0.01575 (at node 15)
	maximum = 0.0225 (at node 1)
Accepted packet rate average = 0.0194219
	minimum = 0.01575 (at node 15)
	maximum = 0.0225 (at node 4)
Injected flit rate average = 0.0193906
	minimum = 0.01575 (at node 15)
	maximum = 0.0225 (at node 1)
Accepted flit rate average= 0.0194219
	minimum = 0.01575 (at node 15)
	maximum = 0.0225 (at node 4)
Injected packet length average = 1
Accepted packet length average = 1
Total in-flight flits = 5 (5 measured)
latency change    = 0.0190987
throughput change = 0.00187718
Draining all recorded packets ...
Draining remaining packets ...
Time taken is 7065 cycles
Class 0:
Packet latency average = 19.1195
	minimum = 7
	maximum = 48
Network latency average = 19.1195
	minimum = 7
	maximum = 48
Slowest packet = 21808
Flit latency average = 19.1195
	minimum = 7
	maximum = 48
Slowest flit = 21808
Fragmentation average = 0
	minimum = 0
	maximum = 0
Injected packet rate average = 0.0203125
	minimum = 0.014 (at node 0)
	maximum = 0.027 (at node 10)
Accepted packet rate average = 0.019875
	minimum = 0.014 (at node 0)
	maximum = 0.027 (at node 10)
Injected flit rate average = 0.0203125
	minimum = 0.014 (at node 0)
	maximum = 0.027 (at node 10)
Accepted flit rate average= 0.019875
	minimum = 0.014 (at node 0)
	maximum = 0.027 (at node 10)
Injected packet length average = 1
Accepted packet length average = 1
Total in-flight flits = 7 (0 measured)
latency change    = 1
throughput change = 1
Class 0:
Packet latency average = 19.7593
	minimum = 7
	maximum = 48
Network latency average = 19.7593
	minimum = 7
	maximum = 48
Slowest packet = 21808
Flit latency average = 19.7593
	minimum = 7
	maximum = 48
Slowest flit = 21808
Fragmentation average = 0
	minimum = 0
	maximum = 0
Injected packet rate average = 0.0204063
	minimum = 0.0155 (at node 6)
	maximum = 0.025 (at node 14)
Accepted packet rate average = 0.02025
	minimum = 0.0155 (at node 1)
	maximum = 0.0245 (at node 4)
Injected flit rate average = 0.0204063
	minimum = 0.0155 (at node 6)
	maximum = 0.025 (at node 14)
Accepted flit rate average= 0.02025
	minimum = 0.0155 (at node 1)
	maximum = 0.0245 (at node 4)
Injected packet length average = 1
Accepted packet length average = 1
Total in-flight flits = 5 (0 measured)
latency change    = 0.0323779
throughput change = 0.0185185
Class 0:
Packet latency average = 18.966
	minimum = 7
	maximum = 41
Network latency average = 18.966
	minimum = 7
	maximum = 41
Slowest packet = 22339
Flit latency average = 18.966
	minimum = 7
	maximum = 41
Slowest flit = 22339
Fragmentation average = 0
	minimum = 0
	maximum = 0
Injected packet rate average = 0.0204375
	minimum = 0.011 (at node 5)
	maximum = 0.026 (at node 0)
Accepted packet rate average = 0.02025
	minimum = 0.011 (at node 5)
	maximum = 0.026 (at node 0)
Injected flit rate average = 0.0204375
	minimum = 0.011 (at node 5)
	maximum = 0.026 (at node 0)
Accepted flit rate average= 0.02025
	minimum = 0.011 (at node 5)
	maximum = 0.026 (at node 0)
Injected packet length average = 1
Accepted packet length average = 1
Total in-flight flits = 8 (0 measured)
latency change    = 0.0418226
throughput change = 0
Warmed up ...Time used is 3000 cycles
Class 0:
Packet latency average = 20.0313
	minimum = 7
	maximum = 52
Network latency average = 20.0313
	minimum = 7
	maximum = 52
Slowest packet = 22932
Flit latency average = 20.1498
	minimum = 7
	maximum = 52
Slowest flit = 22932
Fragmentation average = 0
	minimum = 0
	maximum = 0
Injected packet rate average = 0.0201875
	minimum = 0.012 (at node 9)
	maximum = 0.028 (at node 8)
Accepted packet rate average = 0.0204375
	minimum = 0.012 (at node 6)
	maximum = 0.028 (at node 2)
Injected flit rate average = 0.0201875
	minimum = 0.012 (at node 9)
	maximum = 0.028 (at node 8)
Accepted flit rate average= 0.0204375
	minimum = 0.012 (at node 6)
	maximum = 0.028 (at node 2)
Injected packet length average = 1
Accepted packet length average = 1
Total in-flight flits = 4 (4 measured)
latency change    = 0.0531816
throughput change = 0.00917431
Class 0:
Packet latency average = 20.0905
	minimum = 7
	maximum = 52
Network latency average = 20.0905
	minimum = 7
	maximum = 52
Slowest packet = 22932
Flit latency average = 20.1526
	minimum = 7
	maximum = 52
Slowest flit = 22932
Fragmentation average = 0
	minimum = 0
	maximum = 0
Injected packet rate average = 0.0191562
	minimum = 0.012 (at node 9)
	maximum = 0.0235 (at node 6)
Accepted packet rate average = 0.01925
	minimum = 0.012 (at node 6)
	maximum = 0.0245 (at node 9)
Injected flit rate average = 0.0191562
	minimum = 0.012 (at node 9)
	maximum = 0.0235 (at node 6)
Accepted flit rate average= 0.01925
	minimum = 0.012 (at node 6)
	maximum = 0.0245 (at node 9)
Injected packet length average = 1
Accepted packet length average = 1
Total in-flight flits = 5 (5 measured)
latency change    = 0.00294232
throughput change = 0.0616883
Class 0:
Packet latency average = 20.0293
	minimum = 7
	maximum = 52
Network latency average = 20.0293
	minimum = 7
	maximum = 52
Slowest packet = 22932
Flit latency average = 20.0696
	minimum = 7
	maximum = 52
Slowest flit = 22932
Fragmentation average = 0
	minimum = 0
	maximum = 0
Injected packet rate average = 0.0200833
	minimum = 0.0156667 (at node 5)
	maximum = 0.0246667 (at node 8)
Accepted packet rate average = 0.0200625
	minimum = 0.0156667 (at node 5)
	maximum = 0.0246667 (at node 2)
Injected flit rate average = 0.0200833
	minimum = 0.0156667 (at node 5)
	maximum = 0.0246667 (at node 8)
Accepted flit rate average= 0.0200625
	minimum = 0.0156667 (at node 5)
	maximum = 0.0246667 (at node 2)
Injected packet length average = 1
Accepted packet length average = 1
Total in-flight flits = 9 (9 measured)
latency change    = 0.00305258
throughput change = 0.0404984
Class 0:
Packet latency average = 19.8784
	minimum = 7
	maximum = 52
Network latency average = 19.8784
	minimum = 7
	maximum = 52
Slowest packet = 22932
Flit latency average = 19.909
	minimum = 7
	maximum = 52
Slowest flit = 22932
Fragmentation average = 0
	minimum = 0
	maximum = 0
Injected packet rate average = 0.0203594
	minimum = 0.016 (at node 5)
	maximum = 0.0245 (at node 8)
Accepted packet rate average = 0.0204219
	minimum = 0.016 (at node 5)
	maximum = 0.0245 (at node 2)
Injected flit rate average = 0.0203594
	minimum = 0.016 (at node 5)
	maximum = 0.0245 (at node 8)
Accepted flit rate average= 0.0204219
	minimum = 0.016 (at node 5)
	maximum = 0.0245 (at node 2)
Injected packet length average = 1
Accepted packet length average = 1
Total in-flight flits = 4 (4 measured)
latency change    = 0.00759375
throughput change = 0.0175976
Class 0:
Packet latency average = 20.1217
	minimum = 7
	maximum = 54
Network latency average = 20.1217
	minimum = 7
	maximum = 54
Slowest packet = 23987
Flit latency average = 20.1449
	minimum = 7
	maximum = 54
Slowest flit = 23987
Fragmentation average = 0
	minimum = 0
	maximum = 0
Injected packet rate average = 0.020525
	minimum = 0.0156 (at node 5)
	maximum = 0.025 (at node 8)
Accepted packet rate average = 0.0205375
	minimum = 0.0156 (at node 5)
	maximum = 0.025 (at node 2)
Injected flit rate average = 0.020525
	minimum = 0.0156 (at node 5)
	maximum = 0.025 (at node 8)
Accepted flit rate average= 0.0205375
	minimum = 0.0156 (at node 5)
	maximum = 0.025 (at node 2)
Injected packet length average = 1
Accepted packet length average = 1
Total in-flight flits = 7 (7 measured)
latency change    = 0.0120936
throughput change = 0.00562995
Draining all recorded packets ...
Draining remaining packets ...
Time taken is 8055 cycles
Class 0:
Packet latency average = 19.0825
	minimum = 7
	maximum = 51
Network latency average = 19.0825
	minimum = 7
	maximum = 51
Slowest packet = 24352
Flit latency average = 19.0825
	minimum = 7
	maximum = 51
Slowest flit = 24352
Fragmentation average = 0
	minimum = 0
	maximum = 0
Injected packet rate average = 0.01875
	minimum = 0.012 (at node 7)
	maximum = 0.027 (at node 14)
Accepted packet rate average = 0.0181875
	minimum = 0.011 (at node 13)
	maximum = 0.026 (at node 11)
Injected flit rate average = 0.01875
	minimum = 0.012 (at node 7)
	maximum = 0.027 (at node 14)
Accepted flit rate average= 0.0181875
	minimum = 0.011 (at node 13)
	maximum = 0.026 (at node 11)
Injected packet length average = 1
Accepted packet length average = 1
Total in-flight flits = 9 (0 measured)
latency change    = 1
throughput change = 1
Class 0:
Packet latency average = 19.4107
	minimum = 7
	maximum = 52
Network latency average = 19.4107
	minimum = 7
	maximum = 52
Slowest packet = 24747
Flit latency average = 19.4107
	minimum = 7
	maximum = 52
Slowest flit = 24747
Fragmentation average = 0
	minimum = 0
	maximum = 0
Injected packet rate average = 0.0195625
	minimum = 0.014 (at node 7)
	maximum = 0.026 (at node 14)
Accepted packet rate average = 0.01925
	minimum = 0.014 (at node 13)
	maximum = 0.0255 (at node 11)
Injected flit rate average = 0.0195625
	minimum = 0.014 (at node 7)
	maximum = 0.026 (at node 14)
Accepted flit rate average= 0.01925
	minimum = 0.014 (at node 13)
	maximum = 0.0255 (at node 11)
Injected packet length average = 1
Accepted packet length average = 1
Total in-flight flits = 10 (0 measured)
latency change    = 0.0169103
throughput change = 0.0551948
Class 0:
Packet latency average = 20.2939
	minimum = 7
	maximum = 44
Network latency average = 20.2939
	minimum = 7
	maximum = 44
Slowest packet = 24971
Flit latency average = 20.2939
	minimum = 7
	maximum = 44
Slowest flit = 24971
Fragmentation average = 0
	minimum = 0
	maximum = 0
Injected packet rate average = 0.01925
	minimum = 0.015 (at node 5)
	maximum = 0.025 (at node 2)
Accepted packet rate average = 0.0195625
	minimum = 0.016 (at node 0)
	maximum = 0.028 (at node 8)
Injected flit rate average = 0.01925
	minimum = 0.015 (at node 5)
	maximum = 0.025 (at node 2)
Accepted flit rate average= 0.0195625
	minimum = 0.016 (at node 0)
	maximum = 0.028 (at node 8)
Injected packet length average = 1
Accepted packet length average = 1
Total in-flight flits = 5 (0 measured)
latency change    = 0.0435212
throughput change = 0.0159744
Warmed up ...Time used is 3000 cycles
Class 0:
Packet latency average = 18.3763
	minimum = 7
	maximum = 41
Network latency average = 18.3763
	minimum = 7
	maximum = 41
Slowest packet = 25448
Flit latency average = 18.4212
	minimum = 7
	maximum = 41
Slowest flit = 25448
Fragmentation average = 0
	minimum = 0
	maximum = 0
Injected packet rate average = 0.0183125
	minimum = 0.01 (at node 12)
	maximum = 0.028 (at node 1)
Accepted packet rate average = 0.01825
	minimum = 0.009 (at node 3)
	maximum = 0.029 (at node 4)
Injected flit rate average = 0.0183125
	minimum = 0.01 (at node 12)
	maximum = 0.028 (at node 1)
Accepted flit rate average= 0.01825
	minimum = 0.009 (at node 3)
	maximum = 0.029 (at node 4)
Injected packet length average = 1
Accepted packet length average = 1
Total in-flight flits = 6 (6 measured)
latency change    = 0.104353
throughput change = 0.0719178
Class 0:
Packet latency average = 18.9684
	minimum = 7
	maximum = 43
Network latency average = 18.9684
	minimum = 7
	maximum = 43
Slowest packet = 25629
Flit latency average = 18.9843
	minimum = 7
	maximum = 43
Slowest flit = 25629
Fragmentation average = 0
	minimum = 0
	maximum = 0
Injected packet rate average = 0.0199063
	minimum = 0.015 (at node 4)
	maximum = 0.0265 (at node 1)
Accepted packet rate average = 0.0199375
	minimum = 0.015 (at node 1)
	maximum = 0.028 (at node 4)
Injected flit rate average = 0.0199063
	minimum = 0.015 (at node 4)
	maximum = 0.0265 (at node 1)
Accepted flit rate average= 0.0199375
	minimum = 0.015 (at node 1)
	maximum = 0.028 (at node 4)
Injected packet length average = 1
Accepted packet length average = 1
Total in-flight flits = 4 (4 measured)
latency change    = 0.031215
throughput change = 0.0846395
Class 0:
Packet latency average = 19.3572
	minimum = 7
	maximum = 46
Network latency average = 19.3572
	minimum = 7
	maximum = 46
Slowest packet = 26106
Flit latency average = 19.3658
	minimum = 7
	maximum = 46
Slowest flit = 26106
Fragmentation average = 0
	minimum = 0
	maximum = 0
Injected packet rate average = 0.0198542
	minimum = 0.0163333 (at node 4)
	maximum = 0.024 (at node 10)
Accepted packet rate average = 0.019875
	minimum = 0.0163333 (at node 1)
	maximum = 0.024 (at node 10)
Injected flit rate average = 0.0198542
	minimum = 0.0163333 (at node 4)
	maximum = 0.024 (at node 10)
Accepted flit rate average= 0.019875
	minimum = 0.0163333 (at node 1)
	maximum = 0.024 (at node 10)
Injected packet length average = 1
Accepted packet length average = 1
Total in-flight flits = 4 (4 measured)
latency change    = 0.0200862
throughput change = 0.00314465
Class 0:
Packet latency average = 19.2342
	minimum = 7
	maximum = 46
Network latency average = 19.2342
	minimum = 7
	maximum = 46
Slowest packet = 26106
Flit latency average = 19.2411
	minimum = 7
	maximum = 46
Slowest flit = 26106
Fragmentation average = 0
	minimum = 0
	maximum = 0
Injected packet rate average = 0.0198438
	minimum = 0.01675 (at node 4)
	maximum = 0.02425 (at node 10)
Accepted packet rate average = 0.0198281
	minimum = 0.01675 (at node 1)
	maximum = 0.02425 (at node 10)
Injected flit rate average = 0.0198438
	minimum = 0.01675 (at node 4)
	maximum = 0.02425 (at node 10)
Accepted flit rate average= 0.0198281
	minimum = 0.01675 (at node 1)
	maximum = 0.02425 (at node 10)
Injected packet length average = 1
Accepted packet length average = 1
Total in-flight flits = 6 (6 measured)
latency change    = 0.00639699
throughput change = 0.00236407
Class 0:
Packet latency average = 19.265
	minimum = 7
	maximum = 46
Network latency average = 19.265
	minimum = 7
	maximum = 46
Slowest packet = 26106
Flit latency average = 19.2705
	minimum = 7
	maximum = 46
Slowest flit = 26106
Fragmentation average = 0
	minimum = 0
	maximum = 0
Injected packet rate average = 0.02
	minimum = 0.0166 (at node 4)
	maximum = 0.0232 (at node 10)
Accepted packet rate average = 0.0200125
	minimum = 0.0166 (at node 1)
	maximum = 0.023 (at node 10)
Injected flit rate average = 0.02
	minimum = 0.0166 (at node 4)
	maximum = 0.0232 (at node 10)
Accepted flit rate average= 0.0200125
	minimum = 0.0166 (at node 1)
	maximum = 0.023 (at node 10)
Injected packet length average = 1
Accepted packet length average = 1
Total in-flight flits = 4 (4 measured)
latency change    = 0.00160189
throughput change = 0.00921299
Draining all recorded packets ...
Draining remaining packets ...
Time taken is 8050 cycles
Class 0:
Packet latency average = 20.1392
	minimum = 7
	maximum = 48
Network latency average = 20.1392
	minimum = 7
	maximum = 48
Slowest packet = 26876
Flit latency average = 20.1392
	minimum = 7
	maximum = 48
Slowest flit = 26876
Fragmentation average = 0
	minimum = 0
	maximum = 0
Injected packet rate average = 0.0199375
	minimum = 0.009 (at node 14)
	maximum = 0.028 (at node 13)
Accepted packet rate average = 0.0193125
	minimum = 0.009 (at node 11)
	maximum = 0.028 (at node 7)
Injected flit rate average = 0.0199375
	minimum = 0.009 (at node 14)
	maximum = 0.028 (at node 13)
Accepted flit rate average= 0.0193125
	minimum = 0.009 (at node 11)
	maximum = 0.028 (at node 7)
Injected packet length average = 1
Accepted packet length average = 1
Total in-flight flits = 10 (0 measured)
latency change    = 1
throughput change = 1
Class 0:
Packet latency average = 19.899
	minimum = 7
	maximum = 64
Network latency average = 19.899
	minimum = 7
	maximum = 64
Slowest packet = 27412
Flit latency average = 19.899
	minimum = 7
	maximum = 64
Slowest flit = 27412
Fragmentation average = 0
	minimum = 0
	maximum = 0
Injected packet rate average = 0.0195938
	minimum = 0.0125 (at node 14)
	maximum = 0.025 (at node 12)
Accepted packet rate average = 0.0195
	minimum = 0.0125 (at node 11)
	maximum = 0.0245 (at node 3)
Injected flit rate average = 0.0195938
	minimum = 0.0125 (at node 14)
	maximum = 0.025 (at node 12)
Accepted flit rate average= 0.0195
	minimum = 0.0125 (at node 11)
	maximum = 0.0245 (at node 3)
Injected packet length average = 1
Accepted packet length average = 1
Total in-flight flits = 3 (0 measured)
latency change    = 0.0120669
throughput change = 0.00961538
Class 0:
Packet latency average = 20.4358
	minimum = 7
	maximum = 51
Network latency average = 20.4358
	minimum = 7
	maximum = 51
Slowest packet = 27570
Flit latency average = 20.4358
	minimum = 7
	maximum = 51
Slowest flit = 27570
Fragmentation average = 0
	minimum = 0
	maximum = 0
Injected packet rate average = 0.02125
	minimum = 0.014 (at node 10)
	maximum = 0.035 (at node 3)
Accepted packet rate average = 0.0209375
	minimum = 0.014 (at node 10)
	maximum = 0.033 (at node 12)
Injected flit rate average = 0.02125
	minimum = 0.014 (at node 10)
	maximum = 0.035 (at node 3)
Accepted flit rate average= 0.0209375
	minimum = 0.014 (at node 10)
	maximum = 0.033 (at node 12)
Injected packet length average = 1
Accepted packet length average = 1
Total in-flight flits = 8 (0 measured)
latency change    = 0.0262667
throughput change = 0.0686567
Warmed up ...Time used is 3000 cycles
Class 0:
Packet latency average = 19.5486
	minimum = 7
	maximum = 41
Network latency average = 19.5486
	minimum = 7
	maximum = 41
Slowest packet = 28075
Flit latency average = 19.7064
	minimum = 7
	maximum = 41
Slowest flit = 28075
Fragmentation average = 0
	minimum = 0
	maximum = 0
Injected packet rate average = 0.0204375
	minimum = 0.014 (at node 15)
	maximum = 0.029 (at node 4)
Accepted packet rate average = 0.0204375
	minimum = 0.014 (at node 15)
	maximum = 0.03 (at node 1)
Injected flit rate average = 0.0204375
	minimum = 0.014 (at node 15)
	maximum = 0.029 (at node 4)
Accepted flit rate average= 0.0204375
	minimum = 0.014 (at node 15)
	maximum = 0.03 (at node 1)
Injected packet length average = 1
Accepted packet length average = 1
Total in-flight flits = 8 (8 measured)
latency change    = 0.045386
throughput change = 0.0244648
Class 0:
Packet latency average = 19.0419
	minimum = 7
	maximum = 45
Network latency average = 19.0419
	minimum = 7
	maximum = 45
Slowest packet = 28391
Flit latency average = 19.1306
	minimum = 7
	maximum = 45
Slowest flit = 28391
Fragmentation average = 0
	minimum = 0
	maximum = 0
Injected packet rate average = 0.0194687
	minimum = 0.0155 (at node 3)
	maximum = 0.0255 (at node 4)
Accepted packet rate average = 0.019625
	minimum = 0.016 (at node 13)
	maximum = 0.026 (at node 1)
Injected flit rate average = 0.0194687
	minimum = 0.0155 (at node 3)
	maximum = 0.0255 (at node 4)
Accepted flit rate average= 0.019625
	minimum = 0.016 (at node 13)
	maximum = 0.026 (at node 1)
Injected packet length average = 1
Accepted packet length average = 1
Total in-flight flits = 3 (3 measured)
latency change    = 0.0266073
throughput change = 0.0414013
Class 0:
Packet latency average = 19.2552
	minimum = 7
	maximum = 45
Network latency average = 19.2552
	minimum = 7
	maximum = 45
Slowest packet = 28391
Flit latency average = 19.3141
	minimum = 7
	maximum = 45
Slowest flit = 28391
Fragmentation average = 0
	minimum = 0
	maximum = 0
Injected packet rate average = 0.0189792
	minimum = 0.015 (at node 3)
	maximum = 0.022 (at node 5)
Accepted packet rate average = 0.0191042
	minimum = 0.0156667 (at node 12)
	maximum = 0.0216667 (at node 1)
Injected flit rate average = 0.0189792
	minimum = 0.015 (at node 3)
	maximum = 0.022 (at node 5)
Accepted flit rate average= 0.0191042
	minimum = 0.0156667 (at node 12)
	maximum = 0.0216667 (at node 1)
Injected packet length average = 1
Accepted packet length average = 1
Total in-flight flits = 2 (2 measured)
latency change    = 0.011077
throughput change = 0.0272628
Draining all recorded packets ...
Draining remaining packets ...
Time taken is 6047 cycles
Class 0:
Packet latency average = 19.3864
	minimum = 7
	maximum = 42
Network latency average = 19.3864
	minimum = 7
	maximum = 42
Slowest packet = 28752
Flit latency average = 19.3864
	minimum = 7
	maximum = 42
Slowest flit = 28752
Fragmentation average = 0
	minimum = 0
	maximum = 0
Injected packet rate average = 0.019
	minimum = 0.011 (at node 2)
	maximum = 0.026 (at node 10)
Accepted packet rate average = 0.0184375
	minimum = 0.011 (at node 8)
	maximum = 0.026 (at node 10)
Injected flit rate average = 0.019
	minimum = 0.011 (at node 2)
	maximum = 0.026 (at node 10)
Accepted flit rate average= 0.0184375
	minimum = 0.011 (at node 8)
	maximum = 0.026 (at node 10)
Injected packet length average = 1
Accepted packet length average = 1
Total in-flight flits = 9 (0 measured)
latency change    = 1
throughput change = 1
Class 0:
Packet latency average = 19.7344
	minimum = 7
	maximum = 44
Network latency average = 19.7344
	minimum = 7
	maximum = 44
Slowest packet = 29097
Flit latency average = 19.7344
	minimum = 7
	maximum = 44
Slowest flit = 29097
Fragmentation average = 0
	minimum = 0
	maximum = 0
Injected packet rate average = 0.02025
	minimum = 0.014 (at node 7)
	maximum = 0.0245 (at node 3)
Accepted packet rate average = 0.02
	minimum = 0.014 (at node 13)
	maximum = 0.0235 (at node 12)
Injected flit rate average = 0.02025
	minimum = 0.014 (at node 7)
	maximum = 0.0245 (at node 3)
Accepted flit rate average= 0.02
	minimum = 0.014 (at node 13)
	maximum = 0.0235 (at node 12)
Injected packet length average = 1
Accepted packet length average = 1
Total in-flight flits = 8 (0 measured)
latency change    = 0.0176309
throughput change = 0.078125
Class 0:
Packet latency average = 20.0603
	minimum = 7
	maximum = 46
Network latency average = 20.0603
	minimum = 7
	maximum = 46
Slowest packet = 29564
Flit latency average = 20.0603
	minimum = 7
	maximum = 46
Slowest flit = 29564
Fragmentation average = 0
	minimum = 0
	maximum = 0
Injected packet rate average = 0.019875
	minimum = 0.012 (at node 8)
	maximum = 0.029 (at node 6)
Accepted packet rate average = 0.0196875
	minimum = 0.012 (at node 2)
	maximum = 0.028 (at node 9)
Injected flit rate average = 0.019875
	minimum = 0.012 (at node 8)
	maximum = 0.029 (at node 6)
Accepted flit rate average= 0.0196875
	minimum = 0.012 (at node 2)
	maximum = 0.028 (at node 9)
Injected packet length average = 1
Accepted packet length average = 1
Total in-flight flits = 11 (0 measured)
latency change    = 0.0162481
throughput change = 0.015873
Warmed up ...Time used is 3000 cycles
Class 0:
[...]
	minimum = 0
	maximum = 0
Injected packet rate average = 0.0200313
	minimum = 0.015 (at node 14)
	maximum = 0.024 (at node 1)
Accepted packet rate average = 0.019875
	minimum = 0.015 (at node 10)
	maximum = 0.024 (at node 4)
Injected flit rate average = 0.0200313
	minimum = 0.015 (at node 14)
	maximum = 0.024 (at node 1)
Accepted flit rate average= 0.019875
	minimum = 0.015 (at node 10)
	maximum = 0.024 (at node 4)
Injected packet length average = 1
Accepted packet length average = 1
Total in-flight flits = 5 (0 measured)
latency change    = 0.0501117
throughput change = 0.0220126
Class 0:
Packet latency average = 20.4732
	minimum = 7
	maximum = 40
Network latency average = 20.4732
	minimum = 7
	maximum = 40
Slowest packet = 217480
Flit latency average = 20.4732
	minimum = 7
	maximum = 40
Slowest flit = 217480
Fragmentation average = 0
	minimum = 0
	maximum = 0
Injected packet rate average = 0.021125
	minimum = 0.014 (at node 15)
	maximum = 0.03 (at node 3)
Accepted packet rate average = 0.021
	minimum = 0.014 (at node 15)
	maximum = 0.03 (at node 12)
Injected flit rate average = 0.021125
	minimum = 0.014 (at node 15)
	maximum = 0.03 (at node 3)
Accepted flit rate average= 0.021
	minimum = 0.014 (at node 15)
	maximum = 0.03 (at node 12)
Injected packet length average = 1
Accepted packet length average = 1
Total in-flight flits = 7 (0 measured)
latency change    = 0.0170467
throughput change = 0.0535714
Warmed up ...Time used is 3000 cycles
Class 0:
Packet latency average = 19.7204
	minimum = 7
	maximum = 38
Network latency average = 19.7204
	minimum = 7
	maximum = 38
Slowest packet = 217622
Flit latency average = 19.9441
	minimum = 7
	maximum = 40
Slowest flit = 217602
Fragmentation average = 0
	minimum = 0
	maximum = 0
Injected packet rate average = 0.0176875
	minimum = 0.014 (at node 8)
	maximum = 0.027 (at node 6)
Accepted packet rate average = 0.017875
	minimum = 0.013 (at node 2)
	maximum = 0.027 (at node 9)
Injected flit rate average = 0.0176875
	minimum = 0.014 (at node 8)
	maximum = 0.027 (at node 6)
Accepted flit rate average= 0.017875
	minimum = 0.013 (at node 2)
	maximum = 0.027 (at node 9)
Injected packet length average = 1
Accepted packet length average = 1
Total in-flight flits = 4 (4 measured)
latency change    = 0.0381728
throughput change = 0.174825
Class 0:
Packet latency average = 19.9299
	minimum = 7
	maximum = 42
Network latency average = 19.9299
	minimum = 7
	maximum = 42
Slowest packet = 218188
Flit latency average = 20.033
	minimum = 7
	maximum = 42
Slowest flit = 218188
Fragmentation average = 0
	minimum = 0
	maximum = 0
Injected packet rate average = 0.0189687
	minimum = 0.0135 (at node 9)
	maximum = 0.024 (at node 7)
Accepted packet rate average = 0.0189375
	minimum = 0.013 (at node 6)
	maximum = 0.0245 (at node 13)
Injected flit rate average = 0.0189687
	minimum = 0.0135 (at node 9)
	maximum = 0.024 (at node 7)
Accepted flit rate average= 0.0189375
	minimum = 0.013 (at node 6)
	maximum = 0.0245 (at node 13)
Injected packet length average = 1
Accepted packet length average = 1
Total in-flight flits = 8 (8 measured)
latency change    = 0.0105095
throughput change = 0.0561056
Class 0:
Packet latency average = 20.1622
	minimum = 7
	maximum = 42
Network latency average = 20.1622
	minimum = 7
	maximum = 42
Slowest packet = 218188
Flit latency average = 20.2271
	minimum = 7
	maximum = 42
Slowest flit = 218188
Fragmentation average = 0
	minimum = 0
	maximum = 0
Injected packet rate average = 0.0195417
	minimum = 0.0156667 (at node 9)
	maximum = 0.0276667 (at node 7)
Accepted packet rate average = 0.0195417
	minimum = 0.0156667 (at node 6)
	maximum = 0.028 (at node 13)
Injected flit rate average = 0.0195417
	minimum = 0.0156667 (at node 9)
	maximum = 0.0276667 (at node 7)
Accepted flit rate average= 0.0195417
	minimum = 0.0156667 (at node 6)
	maximum = 0.028 (at node 13)
Injected packet length average = 1
Accepted packet length average = 1
Total in-flight flits = 7 (7 measured)
latency change    = 0.011522
throughput change = 0.0309168
Class 0:
Packet latency average = 19.677
	minimum = 7
	maximum = 48
Network latency average = 19.677
	minimum = 7
	maximum = 48
Slowest packet = 218753
Flit latency average = 19.7276
	minimum = 7
	maximum = 48
Slowest flit = 218753
Fragmentation average = 0
	minimum = 0
	maximum = 0
Injected packet rate average = 0.0198125
	minimum = 0.0155 (at node 9)
	maximum = 0.0265 (at node 7)
Accepted packet rate average = 0.0198438
	minimum = 0.0155 (at node 6)
	maximum = 0.02675 (at node 13)
Injected flit rate average = 0.0198125
	minimum = 0.0155 (at node 9)
	maximum = 0.0265 (at node 7)
Accepted flit rate average= 0.0198438
	minimum = 0.0155 (at node 6)
	maximum = 0.02675 (at node 13)
Injected packet length average = 1
Accepted packet length average = 1
Total in-flight flits = 5 (5 measured)
latency change    = 0.0246599
throughput change = 0.0152231
Class 0:
Packet latency average = 19.528
	minimum = 7
	maximum = 48
Network latency average = 19.528
	minimum = 7
	maximum = 48
Slowest packet = 218753
Flit latency average = 19.5693
	minimum = 7
	maximum = 48
Slowest flit = 218753
Fragmentation average = 0
	minimum = 0
	maximum = 0
Injected packet rate average = 0.019725
	minimum = 0.0166 (at node 9)
	maximum = 0.024 (at node 7)
Accepted packet rate average = 0.0197375
	minimum = 0.0164 (at node 6)
	maximum = 0.024 (at node 13)
Injected flit rate average = 0.019725
	minimum = 0.0166 (at node 9)
	maximum = 0.024 (at node 7)
Accepted flit rate average= 0.0197375
	minimum = 0.0164 (at node 6)
	maximum = 0.024 (at node 13)
Injected packet length average = 1
Accepted packet length average = 1
Total in-flight flits = 6 (6 measured)
latency change    = 0.00762853
throughput change = 0.00538315
Draining all recorded packets ...
Draining remaining packets ...
Time taken is 8065 cycles
Class 0:
Packet latency average = 20.6667
	minimum = 7
	maximum = 51
Network latency average = 20.6667
	minimum = 7
	maximum = 51
Slowest packet = 219408
Flit latency average = 20.6667
	minimum = 7
	maximum = 51
Slowest flit = 219408
Fragmentation average = 0
	minimum = 0
	maximum = 0
Injected packet rate average = 0.0176875
	minimum = 0.01 (at node 14)
	maximum = 0.026 (at node 9)
Accepted packet rate average = 0.0174375
	minimum = 0.01 (at node 11)
	maximum = 0.026 (at node 6)
Injected flit rate average = 0.0176875
	minimum = 0.01 (at node 14)
	maximum = 0.026 (at node 9)
Accepted flit rate average= 0.0174375
	minimum = 0.01 (at node 11)
	maximum = 0.026 (at node 6)
Injected packet length average = 1
Accepted packet length average = 1
Total in-flight flits = 4 (0 measured)
latency change    = 1
throughput change = 1
Class 0:
Packet latency average = 19.6922
	minimum = 7
	maximum = 51
Network latency average = 19.6922
	minimum = 7
	maximum = 51
Slowest packet = 219408
Flit latency average = 19.6922
	minimum = 7
	maximum = 51
Slowest flit = 219408
Fragmentation average = 0
	minimum = 0
	maximum = 0
Injected packet rate average = 0.019375
	minimum = 0.0135 (at node 14)
	maximum = 0.026 (at node 5)
Accepted packet rate average = 0.0191875
	minimum = 0.0135 (at node 11)
	maximum = 0.026 (at node 5)
Injected flit rate average = 0.019375
	minimum = 0.0135 (at node 14)
	maximum = 0.026 (at node 5)
Accepted flit rate average= 0.0191875
	minimum = 0.0135 (at node 11)
	maximum = 0.026 (at node 5)
Injected packet length average = 1
Accepted packet length average = 1
Total in-flight flits = 6 (0 measured)
latency change    = 0.0494858
throughput change = 0.0912052
Class 0:
Packet latency average = 19.9351
	minimum = 7
	maximum = 44
Network latency average = 19.9351
	minimum = 7
	maximum = 44
Slowest packet = 219966
Flit latency average = 19.9351
	minimum = 7
	maximum = 44
Slowest flit = 219966
Fragmentation average = 0
	minimum = 0
	maximum = 0
Injected packet rate average = 0.0215625
	minimum = 0.013 (at node 7)
	maximum = 0.034 (at node 13)
Accepted packet rate average = 0.0211875
	minimum = 0.012 (at node 13)
	maximum = 0.035 (at node 7)
Injected flit rate average = 0.0215625
	minimum = 0.013 (at node 7)
	maximum = 0.034 (at node 13)
Accepted flit rate average= 0.0211875
	minimum = 0.012 (at node 13)
	maximum = 0.035 (at node 7)
Injected packet length average = 1
Accepted packet length average = 1
Total in-flight flits = 12 (0 measured)
latency change    = 0.0121856
throughput change = 0.0943953
Warmed up ...Time used is 3000 cycles
Class 0:
Packet latency average = 20.1717
	minimum = 7
	maximum = 43
Network latency average = 20.1717
	minimum = 7
	maximum = 43
Slowest packet = 220212
Flit latency average = 20.1942
	minimum = 7
	maximum = 43
Slowest flit = 220212
Fragmentation average = 0
	minimum = 0
	maximum = 0
Injected packet rate average = 0.0189375
	minimum = 0.012 (at node 1)
	maximum = 0.031 (at node 2)
Accepted packet rate average = 0.0193125
	minimum = 0.013 (at node 4)
	maximum = 0.031 (at node 8)
Injected flit rate average = 0.0189375
	minimum = 0.012 (at node 1)
	maximum = 0.031 (at node 2)
Accepted flit rate average= 0.0193125
	minimum = 0.013 (at node 4)
	maximum = 0.031 (at node 8)
Injected packet length average = 1
Accepted packet length average = 1
Total in-flight flits = 6 (6 measured)
latency change    = 0.01173
throughput change = 0.0970874
Class 0:
Packet latency average = 20.195
	minimum = 7
	maximum = 43
Network latency average = 20.195
	minimum = 7
	maximum = 43
Slowest packet = 220212
Flit latency average = 20.2052
	minimum = 7
	maximum = 43
Slowest flit = 220212
Fragmentation average = 0
	minimum = 0
	maximum = 0
Injected packet rate average = 0.02025
	minimum = 0.0125 (at node 14)
	maximum = 0.0255 (at node 2)
Accepted packet rate average = 0.0204063
	minimum = 0.0125 (at node 11)
	maximum = 0.025 (at node 8)
Injected flit rate average = 0.02025
	minimum = 0.0125 (at node 14)
	maximum = 0.0255 (at node 2)
Accepted flit rate average= 0.0204063
	minimum = 0.0125 (at node 11)
	maximum = 0.025 (at node 8)
Injected packet length average = 1
Accepted packet length average = 1
Total in-flight flits = 7 (7 measured)
latency change    = 0.00115329
throughput change = 0.0535988
Class 0:
Packet latency average = 19.8978
	minimum = 7
	maximum = 49
Network latency average = 19.8978
	minimum = 7
	maximum = 49
Slowest packet = 220957
Flit latency average = 19.9085
	minimum = 7
	maximum = 49
Slowest flit = 220957
Fragmentation average = 0
	minimum = 0
	maximum = 0
Injected packet rate average = 0.0197083
	minimum = 0.013 (at node 14)
	maximum = 0.0226667 (at node 2)
Accepted packet rate average = 0.0198125
	minimum = 0.0126667 (at node 11)
	maximum = 0.0226667 (at node 8)
Injected flit rate average = 0.0197083
	minimum = 0.013 (at node 14)
	maximum = 0.0226667 (at node 2)
Accepted flit rate average= 0.0198125
	minimum = 0.0126667 (at node 11)
	maximum = 0.0226667 (at node 8)
Injected packet length average = 1
Accepted packet length average = 1
Total in-flight flits = 7 (7 measured)
latency change    = 0.0149386
throughput change = 0.0299685
Class 0:
Packet latency average = 20.0132
	minimum = 7
	maximum = 49
Network latency average = 20.0132
	minimum = 7
	maximum = 49
Slowest packet = 220957
Flit latency average = 20.02
	minimum = 7
	maximum = 49
Slowest flit = 220957
Fragmentation average = 0
	minimum = 0
	maximum = 0
Injected packet rate average = 0.0202344
	minimum = 0.015 (at node 14)
	maximum = 0.023 (at node 7)
Accepted packet rate average = 0.0203438
	minimum = 0.015 (at node 11)
	maximum = 0.02275 (at node 13)
Injected flit rate average = 0.0202344
	minimum = 0.015 (at node 14)
	maximum = 0.023 (at node 7)
Accepted flit rate average= 0.0203438
	minimum = 0.015 (at node 11)
	maximum = 0.02275 (at node 13)
Injected packet length average = 1
Accepted packet length average = 1
Total in-flight flits = 5 (5 measured)
latency change    = 0.00576694
throughput change = 0.0261137
Class 0:
Packet latency average = 20.0928
	minimum = 7
	maximum = 49
Network latency average = 20.0928
	minimum = 7
	maximum = 49
Slowest packet = 220957
Flit latency average = 20.0976
	minimum = 7
	maximum = 49
Slowest flit = 220957
Fragmentation average = 0
	minimum = 0
	maximum = 0
Injected packet rate average = 0.02045
	minimum = 0.0152 (at node 14)
	maximum = 0.0228 (at node 7)
Accepted packet rate average = 0.0204875
	minimum = 0.0152 (at node 11)
	maximum = 0.0226 (at node 8)
Injected flit rate average = 0.02045
	minimum = 0.0152 (at node 14)
	maximum = 0.0228 (at node 7)
Accepted flit rate average= 0.0204875
	minimum = 0.0152 (at node 11)
	maximum = 0.0226 (at node 8)
Injected packet length average = 1
Accepted packet length average = 1
Total in-flight flits = 9 (9 measured)
latency change    = 0.00396314
throughput change = 0.00701647
Draining all recorded packets ...
Draining remaining packets ...
Time taken is 8041 cycles
Class 0:
Packet latency average = 19.4968
	minimum = 7
	maximum = 46
Network latency average = 19.4968
	minimum = 7
	maximum = 46
Slowest packet = 222092
Flit latency average = 19.4968
	minimum = 7
	maximum = 46
Slowest flit = 222092
Fragmentation average = 0
	minimum = 0
	maximum = 0
Injected packet rate average = 0.01975
	minimum = 0.014 (at node 3)
	maximum = 0.027 (at node 6)
Accepted packet rate average = 0.019375
	minimum = 0.013 (at node 12)
	maximum = 0.026 (at node 9)
Injected flit rate average = 0.01975
	minimum = 0.014 (at node 3)
	maximum = 0.027 (at node 6)
Accepted flit rate average= 0.019375
	minimum = 0.013 (at node 12)
	maximum = 0.026 (at node 9)
Injected packet length average = 1
Accepted packet length average = 1
Total in-flight flits = 6 (0 measured)
latency change    = 1
throughput change = 1
Class 0:
Packet latency average = 19.3567
	minimum = 7
	maximum = 46
Network latency average = 19.3567
	minimum = 7
	maximum = 46
Slowest packet = 222092
Flit latency average = 19.3567
	minimum = 7
	maximum = 46
Slowest flit = 222092
Fragmentation average = 0
	minimum = 0
	maximum = 0
Injected packet rate average = 0.0193125
	minimum = 0.0155 (at node 3)
	maximum = 0.024 (at node 6)
Accepted packet rate average = 0.0191875
	minimum = 0.0155 (at node 12)
	maximum = 0.0235 (at node 6)
Injected flit rate average = 0.0193125
	minimum = 0.0155 (at node 3)
	maximum = 0.024 (at node 6)
Accepted flit rate average= 0.0191875
	minimum = 0.0155 (at node 12)
	maximum = 0.0235 (at node 6)
Injected packet length average = 1
Accepted packet length average = 1
Total in-flight flits = 4 (0 measured)
latency change    = 0.00723764
throughput change = 0.00977199
Class 0:
Packet latency average = 18.1361
	minimum = 7
	maximum = 45
Network latency average = 18.1361
	minimum = 7
	maximum = 45
Slowest packet = 222475
Flit latency average = 18.1361
	minimum = 7
	maximum = 45
Slowest flit = 222475
Fragmentation average = 0
	minimum = 0
	maximum = 0
Injected packet rate average = 0.018375
	minimum = 0.008 (at node 12)
	maximum = 0.027 (at node 14)
Accepted packet rate average = 0.018375
	minimum = 0.009 (at node 8)
	maximum = 0.026 (at node 0)
Injected flit rate average = 0.018375
	minimum = 0.008 (at node 12)
	maximum = 0.027 (at node 14)
Accepted flit rate average= 0.018375
	minimum = 0.009 (at node 8)
	maximum = 0.026 (at node 0)
Injected packet length average = 1
Accepted packet length average = 1
Total in-flight flits = 4 (0 measured)
latency change    = 0.0673037
throughput change = 0.0442177
Warmed up ...Time used is 3000 cycles
Class 0:
Packet latency average = 19.6435
	minimum = 7
	maximum = 42
Network latency average = 19.6435
	minimum = 7
	maximum = 42
Slowest packet = 222769
Flit latency average = 19.6418
	minimum = 7
	maximum = 42
Slowest flit = 222769
Fragmentation average = 0
	minimum = 0
	maximum = 0
Injected packet rate average = 0.0210625
	minimum = 0.015 (at node 7)
	maximum = 0.03 (at node 5)
Accepted packet rate average = 0.0209375
	minimum = 0.013 (at node 13)
	maximum = 0.03 (at node 5)
Injected flit rate average = 0.0210625
	minimum = 0.015 (at node 7)
	maximum = 0.03 (at node 5)
Accepted flit rate average= 0.0209375
	minimum = 0.013 (at node 13)
	maximum = 0.03 (at node 5)
Injected packet length average = 1
Accepted packet length average = 1
Total in-flight flits = 6 (6 measured)
latency change    = 0.0767404
throughput change = 0.122388
Class 0:
Packet latency average = 19.858
	minimum = 7
	maximum = 49
Network latency average = 19.858
	minimum = 7
	maximum = 49
Slowest packet = 223263
Flit latency average = 19.8559
	minimum = 7
	maximum = 49
Slowest flit = 223263
Fragmentation average = 0
	minimum = 0
	maximum = 0
Injected packet rate average = 0.0210625
	minimum = 0.0155 (at node 1)
	maximum = 0.0265 (at node 5)
Accepted packet rate average = 0.0210313
	minimum = 0.0155 (at node 4)
	maximum = 0.0265 (at node 5)
Injected flit rate average = 0.0210625
	minimum = 0.0155 (at node 1)
	maximum = 0.0265 (at node 5)
Accepted flit rate average= 0.0210313
	minimum = 0.0155 (at node 4)
	maximum = 0.0265 (at node 5)
Injected packet length average = 1
Accepted packet length average = 1
Total in-flight flits = 5 (5 measured)
latency change    = 0.0108013
throughput change = 0.00445765
Class 0:
Packet latency average = 19.7938
	minimum = 7
	maximum = 49
Network latency average = 19.7938
	minimum = 7
	maximum = 49
Slowest packet = 223263
Flit latency average = 19.7926
	minimum = 7
	maximum = 49
Slowest flit = 223263
Fragmentation average = 0
	minimum = 0
	maximum = 0
Injected packet rate average = 0.0203333
	minimum = 0.0133333 (at node 1)
	maximum = 0.0243333 (at node 5)
Accepted packet rate average = 0.0202917
	minimum = 0.0133333 (at node 4)
	maximum = 0.0243333 (at node 5)
Injected flit rate average = 0.0203333
	minimum = 0.0133333 (at node 1)
	maximum = 0.0243333 (at node 5)
Accepted flit rate average= 0.0202917
	minimum = 0.0133333 (at node 4)
	maximum = 0.0243333 (at node 5)
Injected packet length average = 1
Accepted packet length average = 1
Total in-flight flits = 6 (6 measured)
latency change    = 0.00324256
throughput change = 0.0364476
Class 0:
Packet latency average = 20.2341
	minimum = 7
	maximum = 62
Network latency average = 20.2341
	minimum = 7
	maximum = 62
Slowest packet = 223953
Flit latency average = 20.2318
	minimum = 7
	maximum = 62
Slowest flit = 223953
Fragmentation average = 0
	minimum = 0
	maximum = 0
Injected packet rate average = 0.0205156
	minimum = 0.015 (at node 1)
	maximum = 0.02375 (at node 12)
Accepted packet rate average = 0.0204219
	minimum = 0.0145 (at node 4)
	maximum = 0.02375 (at node 3)
Injected flit rate average = 0.0205156
	minimum = 0.015 (at node 1)
	maximum = 0.02375 (at node 12)
Accepted flit rate average= 0.0204219
	minimum = 0.0145 (at node 4)
	maximum = 0.02375 (at node 3)
Injected packet length average = 1
Accepted packet length average = 1
Total in-flight flits = 10 (10 measured)
latency change    = 0.0217584
throughput change = 0.00637592
Draining all recorded packets ...
Draining remaining packets ...
Time taken is 7060 cycles
====== Overall Traffic Statistics ======
====== Traffic class 0 ======
Packet latency average = 19.759 (100 samples)
	minimum = 7 (100 samples)
	maximum = 49.23 (100 samples)
Network latency average = 19.759 (100 samples)
	minimum = 7 (100 samples)
	maximum = 49.23 (100 samples)
Flit latency average = 19.7823 (100 samples)
	minimum = 7 (100 samples)
	maximum = 49.3 (100 samples)
Fragmentation average = 0 (100 samples)
	minimum = 0 (100 samples)
	maximum = 0 (100 samples)
Injected packet rate average = 0.0200529 (100 samples)
	minimum = 0.0162067 (100 samples)
	maximum = 0.0240673 (100 samples)
Accepted packet rate average = 0.0200507 (100 samples)
	minimum = 0.0162128 (100 samples)
	maximum = 0.0240323 (100 samples)
Injected flit rate average = 0.0200529 (100 samples)
	minimum = 0.0162067 (100 samples)
	maximum = 0.0240673 (100 samples)
Accepted flit rate average = 0.0200507 (100 samples)
	minimum = 0.0162128 (100 samples)
	maximum = 0.0240323 (100 samples)
Injected packet size average = 1 (100 samples)
Accepted packet size average = 1 (100 samples)
Hops average = 3.50015 (100 samples)
Total run time 5.16463
