BEGIN Configuration File: /tmp/tmpcat158x8.cfg
topology = mesh;
k = 8; n = 2;
routing_function = planar_adapt;
num_vcs = 4; vc_buf_size = 4;
wait_for_tail_credit = 1;
vc_allocator = islip; sw_allocator = islip;
alloc_iters = 1;
credit_delay = 2; routing_delay = 1;
vc_alloc_delay = 1; sw_alloc_delay = 1;
input_speedup = 2; output_speedup = 1; internal_speedup = 1.0;
traffic = uniform;
packet_size = 1; sim_type = latency;
injection_rate = 0.2;
warmup_periods = 3; sample_period = 1000; sim_count = 100;
seed = 3;

END Configuration File: /tmp/tmpcat158x8.cfg
Class 0:
Packet latency average = 219.482
	minimum = 7
	maximum = 934
Network latency average = 91.3198
	minimum = 7
	maximum = 898
Slowest packet = 317
Flit latency average = 91.3198
	minimum = 7
	maximum = 898
Slowest flit = 317
Fragmentation average = 0
	minimum = 0
	maximum = 0
Injected packet rate average = 0.0710625
	minimum = 0.015 (at node 63)
	maximum = 0.194 (at node 36)
Accepted packet rate average = 0.064
	minimum = 0.044 (at node 58)
	maximum = 0.081 (at node 39)
Injected flit rate average = 0.0710625
	minimum = 0.015 (at node 63)
	maximum = 0.194 (at node 36)
Accepted flit rate average= 0.064
	minimum = 0.044 (at node 58)
	maximum = 0.081 (at node 39)
Injected packet length average = 1
Accepted packet length average = 1
Total in-flight flits = 510 (0 measured)
latency change    = 1
throughput change = 1
Class 0:
Packet latency average = 430.266
	minimum = 7
	maximum = 1885
Network latency average = 102.261
	minimum = 7
	maximum = 1605
Slowest packet = 488
Flit latency average = 102.261
	minimum = 7
	maximum = 1605
Slowest flit = 583
Fragmentation average = 0
	minimum = 0
	maximum = 0
Injected packet rate average = 0.0676172
	minimum = 0.0115 (at node 0)
	maximum = 0.189 (at node 4)
Accepted packet rate average = 0.0639219
	minimum = 0.0505 (at node 28)
	maximum = 0.0825 (at node 21)
Injected flit rate average = 0.0676172
	minimum = 0.0115 (at node 0)
	maximum = 0.189 (at node 4)
Accepted flit rate average= 0.0639219
	minimum = 0.0505 (at node 28)
	maximum = 0.0825 (at node 21)
Injected packet length average = 1
Accepted packet length average = 1
Total in-flight flits = 535 (0 measured)
latency change    = 0.489892
throughput change = 0.0012222
Class 0:
Packet latency average = 1046.74
	minimum = 7
	maximum = 2866
Network latency average = 112.335
	minimum = 7
	maximum = 1800
Slowest packet = 7518
Flit latency average = 112.335
	minimum = 7
	maximum = 1800
Slowest flit = 1859
Fragmentation average = 0
	minimum = 0
	maximum = 0
Injected packet rate average = 0.066125
	minimum = 0.005 (at node 40)
	maximum = 0.209 (at node 44)
Accepted packet rate average = 0.0662969
	minimum = 0.048 (at node 24)
	maximum = 0.089 (at node 39)
Injected flit rate average = 0.066125
	minimum = 0.005 (at node 40)
	maximum = 0.209 (at node 44)
Accepted flit rate average= 0.0662969
	minimum = 0.048 (at node 24)
	maximum = 0.089 (at node 39)
Injected packet length average = 1
Accepted packet length average = 1
Total in-flight flits = 523 (0 measured)
latency change    = 0.588945
throughput change = 0.0358237
Average latency for class 0 exceeded 500 cycles. Aborting simulation.
Too many sample periods needed to converge
Simulation unstable, ending ...
Total run time 0.554421
