BEGIN Configuration File: /tmp/tmp24x33p70.cfg
topology = mesh;
k = 4;
n = 2;
routing_function = romm;
num_vcs = 4;
vc_buf_size = 4;
wait_for_tail_credit = 1;
vc_allocator = islip;
sw_allocator = islip;
alloc_iters = 1;
credit_delay = 2;
routing_delay = 1;
vc_alloc_delay = 1;
sw_alloc_delay = 1;
input_speedup = 2;
output_speedup = 1;
internal_speedup = 1.0;
traffic = transpose;
packet_size = 1;
sim_type = latency;
injection_rate = 0.01;
warmup_periods = 3;
sample_period = 1000;
sim_count = 100;
seed = 0;

END Configuration File: /tmp/tmp24x33p70.cfg
Class 0:
Packet latency average = 19.1429
	minimum = 7
	maximum = 37
Network latency average = 19.1429
	minimum = 7
	maximum = 37
Slowest packet = 1
Flit latency average = 19.1429
	minimum = 7
	maximum = 37
Slowest flit = 1
Fragmentation average = 0
	minimum = 0
	maximum = 0
Injected packet rate average = 0.00975
	minimum = 0.004 (at node 11)
	maximum = 0.014 (at node 13)
Accepted packet rate average = 0.009625
	minimum = 0.003 (at node 14)
	maximum = 0.014 (at node 7)
Injected flit rate average = 0.00975
	minimum = 0.004 (at node 11)
	maximum = 0.014 (at node 13)
Accepted flit rate average= 0.009625
	minimum = 0.003 (at node 14)
	maximum = 0.014 (at node 7)
Injected packet length average = 1
Accepted packet length average = 1
Total in-flight flits = 2 (0 measured)
latency change    = 1
throughput change = 1
Class 0:
Packet latency average = 19.6033
	minimum = 7
	maximum = 37
Network latency average = 19.6033
	minimum = 7
	maximum = 37
Slowest packet = 1
Flit latency average = 19.6033
	minimum = 7
	maximum = 37
Slowest flit = 1
Fragmentation average = 0
	minimum = 0
	maximum = 0
Injected packet rate average = 0.009625
	minimum = 0.006 (at node 11)
	maximum = 0.0125 (at node 0)
Accepted packet rate average = 0.00953125
	minimum = 0.0055 (at node 14)
	maximum = 0.0125 (at node 0)
Injected flit rate average = 0.009625
	minimum = 0.006 (at node 11)
	maximum = 0.0125 (at node 0)
Accepted flit rate average= 0.00953125
	minimum = 0.0055 (at node 14)
	maximum = 0.0125 (at node 0)
Injected packet length average = 1
Accepted packet length average = 1
Total in-flight flits = 3 (0 measured)
latency change    = 0.023487
throughput change = 0.00983607
Class 0:
Packet latency average = 19.9012
	minimum = 7
	maximum = 37
Network latency average = 19.9012
	minimum = 7
	maximum = 37
Slowest packet = 309
Flit latency average = 19.9012
	minimum = 7
	maximum = 37
Slowest flit = 309
Fragmentation average = 0
	minimum = 0
	maximum = 0
Injected packet rate average = 0.01
	minimum = 0.006 (at node 0)
	maximum = 0.012 (at node 3)
Accepted packet rate average = 0.010125
	minimum = 0.006 (at node 0)
	maximum = 0.013 (at node 7)
Injected flit rate average = 0.01
	minimum = 0.006 (at node 0)
	maximum = 0.012 (at node 3)
Accepted flit rate average= 0.010125
	minimum = 0.006 (at node 0)
	maximum = 0.013 (at node 7)
Injected packet length average = 1
Accepted packet length average = 1
Total in-flight flits = 1 (0 measured)
latency change    = 0.0149717
throughput change = 0.058642
Warmed up ...Time used is 3000 cycles
Class 0:
Packet latency average = 19.7586
	minimum = 7
	maximum = 37
Network latency average = 19.7586
	minimum = 7
	maximum = 37
Slowest packet = 471
Flit latency average = 19.8082
	minimum = 7
	maximum = 37
Slowest flit = 471
Fragmentation average = 0
	minimum = 0
	maximum = 0
Injected packet rate average = 0.0091875
	minimum = 0.005 (at node 1)
	maximum = 0.015 (at node 4)
Accepted packet rate average = 0.009125
	minimum = 0.005 (at node 4)
	maximum = 0.015 (at node 1)
Injected flit rate average = 0.0091875
	minimum = 0.005 (at node 1)
	maximum = 0.015 (at node 4)
Accepted flit rate average= 0.009125
	minimum = 0.005 (at node 4)
	maximum = 0.015 (at node 1)
Injected packet length average = 1
Accepted packet length average = 1
Total in-flight flits = 2 (2 measured)
latency change    = 0.00721781
throughput change = 0.109589
Class 0:
Packet latency average = 19.5498
	minimum = 7
	maximum = 37
Network latency average = 19.5498
	minimum = 7
	maximum = 37
Slowest packet = 471
Flit latency average = 19.5753
	minimum = 7
	maximum = 37
Slowest flit = 471
Fragmentation average = 0
	minimum = 0
	maximum = 0
Injected packet rate average = 0.00909375
	minimum = 0.007 (at node 12)
	maximum = 0.0125 (at node 10)
Accepted packet rate average = 0.009125
	minimum = 0.007 (at node 3)
	maximum = 0.0125 (at node 10)
Injected flit rate average = 0.00909375
	minimum = 0.007 (at node 12)
	maximum = 0.0125 (at node 10)
Accepted flit rate average= 0.009125
	minimum = 0.007 (at node 3)
	maximum = 0.0125 (at node 10)
Injected packet length average = 1
Accepted packet length average = 1
Total in-flight flits = 0 (0 measured)
latency change    = 0.01068
throughput change = 0
Class 0:
Packet latency average = 19.5663
	minimum = 7
	maximum = 37
Network latency average = 19.5663
	minimum = 7
	maximum = 37
Slowest packet = 471
Flit latency average = 19.583
	minimum = 7
	maximum = 37
Slowest flit = 471
Fragmentation average = 0
	minimum = 0
	maximum = 0
Injected packet rate average = 0.009375
	minimum = 0.00766667 (at node 2)
	maximum = 0.013 (at node 3)
Accepted packet rate average = 0.00929167
	minimum = 0.007 (at node 8)
	maximum = 0.013 (at node 12)
Injected flit rate average = 0.009375
	minimum = 0.00766667 (at node 2)
	maximum = 0.013 (at node 3)
Accepted flit rate average= 0.00929167
	minimum = 0.007 (at node 8)
	maximum = 0.013 (at node 12)
Injected packet length average = 1
Accepted packet length average = 1
Total in-flight flits = 5 (5 measured)
latency change    = 0.000841445
throughput change = 0.0179372
Class 0:
Packet latency average = 19.8656
	minimum = 7
	maximum = 39
Network latency average = 19.8656
	minimum = 7
	maximum = 39
Slowest packet = 1002
Flit latency average = 19.8773
	minimum = 7
	maximum = 39
Slowest flit = 1002
Fragmentation average = 0
	minimum = 0
	maximum = 0
Injected packet rate average = 0.00954687
	minimum = 0.007 (at node 2)
	maximum = 0.01375 (at node 3)
Accepted packet rate average = 0.00954687
	minimum = 0.007 (at node 8)
	maximum = 0.01375 (at node 12)
Injected flit rate average = 0.00954687
	minimum = 0.007 (at node 2)
	maximum = 0.01375 (at node 3)
Accepted flit rate average= 0.00954687
	minimum = 0.007 (at node 8)
	maximum = 0.01375 (at node 12)
Injected packet length average = 1
Accepted packet length average = 1
Total in-flight flits = 1 (1 measured)
latency change    = 0.0150653
throughput change = 0.0267321
Draining all recorded packets ...
Draining remaining packets ...
Time taken is 7066 cycles
Class 0:
Packet latency average = 19.4485
	minimum = 7
	maximum = 37
Network latency average = 19.4485
	minimum = 7
	maximum = 37
Slowest packet = 1094
Flit latency average = 19.4485
	minimum = 7
	maximum = 37
Slowest flit = 1094
Fragmentation average = 0
	minimum = 0
	maximum = 0
Injected packet rate average = 0.010625
	minimum = 0.006 (at node 8)
	maximum = 0.018 (at node 1)
Accepted packet rate average = 0.0103125
	minimum = 0.005 (at node 2)
	maximum = 0.017 (at node 4)
Injected flit rate average = 0.010625
	minimum = 0.006 (at node 8)
	maximum = 0.018 (at node 1)
Accepted flit rate average= 0.0103125
	minimum = 0.005 (at node 2)
	maximum = 0.017 (at node 4)
Injected packet length average = 1
Accepted packet length average = 1
Total in-flight flits = 5 (0 measured)
latency change    = 1
throughput change = 1
Class 0:
Packet latency average = 19.2901
	minimum = 7
	maximum = 41
Network latency average = 19.2901
	minimum = 7
	maximum = 41
Slowest packet = 1315
Flit latency average = 19.2901
	minimum = 7
	maximum = 41
Slowest flit = 1315
Fragmentation average = 0
	minimum = 0
	maximum = 0
Injected packet rate average = 0.01125
	minimum = 0.0075 (at node 8)
	maximum = 0.0165 (at node 1)
Accepted packet rate average = 0.0110937
	minimum = 0.007 (at node 2)
	maximum = 0.0165 (at node 4)
Injected flit rate average = 0.01125
	minimum = 0.0075 (at node 8)
	maximum = 0.0165 (at node 1)
Accepted flit rate average= 0.0110937
	minimum = 0.007 (at node 2)
	maximum = 0.0165 (at node 4)
Injected packet length average = 1
Accepted packet length average = 1
Total in-flight flits = 5 (0 measured)
latency change    = 0.00820855
throughput change = 0.0704225
Class 0:
Packet latency average = 20.8028
	minimum = 7
	maximum = 37
Network latency average = 20.8028
	minimum = 7
	maximum = 37
Slowest packet = 1444
Flit latency average = 20.8028
	minimum = 7
	maximum = 37
Slowest flit = 1444
Fragmentation average = 0
	minimum = 0
	maximum = 0
Injected packet rate average = 0.0088125
	minimum = 0.004 (at node 2)
	maximum = 0.014 (at node 3)
Accepted packet rate average = 0.008875
	minimum = 0.003 (at node 9)
	maximum = 0.015 (at node 12)
Injected flit rate average = 0.0088125
	minimum = 0.004 (at node 2)
	maximum = 0.014 (at node 3)
Accepted flit rate average= 0.008875
	minimum = 0.003 (at node 9)
	maximum = 0.015 (at node 12)
Injected packet length average = 1
Accepted packet length average = 1
Total in-flight flits = 4 (0 measured)
latency change    = 0.072715
throughput change = 0.25
Warmed up ...Time used is 3000 cycles
Class 0:
Packet latency average = 18.3208
	minimum = 7
	maximum = 37
Network latency average = 18.3208
	minimum = 7
	maximum = 37
Slowest packet = 1597
Flit latency average = 18.5337
	minimum = 7
	maximum = 37
Slowest flit = 1582
Fragmentation average = 0
	minimum = 0
	maximum = 0
Injected packet rate average = 0.01
	minimum = 0.006 (at node 2)
	maximum = 0.015 (at node 11)
Accepted packet rate average = 0.0101875
	minimum = 0.006 (at node 8)
	maximum = 0.015 (at node 4)
Injected flit rate average = 0.01
	minimum = 0.006 (at node 2)
	maximum = 0.015 (at node 11)
Accepted flit rate average= 0.0101875
	minimum = 0.006 (at node 8)
	maximum = 0.015 (at node 4)
Injected packet length average = 1
Accepted packet length average = 1
Total in-flight flits = 1 (1 measured)
latency change    = 0.135478
throughput change = 0.128834
Class 0:
Packet latency average = 19.3028
	minimum = 7
	maximum = 39
Network latency average = 19.3028
	minimum = 7
	maximum = 39
Slowest packet = 1759
Flit latency average = 19.3958
	minimum = 7
	maximum = 39
Slowest flit = 1759
Fragmentation average = 0
	minimum = 0
	maximum = 0
Injected packet rate average = 0.010375
	minimum = 0.007 (at node 3)
	maximum = 0.013 (at node 11)
Accepted packet rate average = 0.0103438
	minimum = 0.007 (at node 12)
	maximum = 0.013 (at node 14)
Injected flit rate average = 0.010375
	minimum = 0.007 (at node 3)
	maximum = 0.013 (at node 11)
Accepted flit rate average= 0.0103438
	minimum = 0.007 (at node 12)
	maximum = 0.013 (at node 14)
Injected packet length average = 1
Accepted packet length average = 1
Total in-flight flits = 5 (5 measured)
latency change    = 0.0508734
throughput change = 0.0151057
Class 0:
Packet latency average = 19.5628
	minimum = 7
	maximum = 39
Network latency average = 19.5628
	minimum = 7
	maximum = 39
Slowest packet = 1759
Flit latency average = 19.6225
	minimum = 7
	maximum = 39
Slowest flit = 1759
Fragmentation average = 0
	minimum = 0
	maximum = 0
Injected packet rate average = 0.0103958
	minimum = 0.00766667 (at node 3)
	maximum = 0.0126667 (at node 7)
Accepted packet rate average = 0.010375
	minimum = 0.00766667 (at node 12)
	maximum = 0.0126667 (at node 14)
Injected flit rate average = 0.0103958
	minimum = 0.00766667 (at node 3)
	maximum = 0.0126667 (at node 7)
Accepted flit rate average= 0.010375
	minimum = 0.00766667 (at node 12)
	maximum = 0.0126667 (at node 14)
Injected packet length average = 1
Accepted packet length average = 1
Total in-flight flits = 5 (5 measured)
latency change    = 0.0132906
throughput change = 0.00301205
Class 0:
Packet latency average = 19.5412
	minimum = 7
	maximum = 39
Network latency average = 19.5412
	minimum = 7
	maximum = 39
Slowest packet = 1759
Flit latency average = 19.5864
	minimum = 7
	maximum = 39
Slowest flit = 1759
Fragmentation average = 0
	minimum = 0
	maximum = 0
Injected packet rate average = 0.0102656
	minimum = 0.0075 (at node 3)
	maximum = 0.01275 (at node 7)
Accepted packet rate average = 0.0103125
	minimum = 0.0075 (at node 12)
	maximum = 0.0125 (at node 13)
Injected flit rate average = 0.0102656
	minimum = 0.0075 (at node 3)
	maximum = 0.01275 (at node 7)
Accepted flit rate average= 0.0103125
	minimum = 0.0075 (at node 12)
	maximum = 0.0125 (at node 13)
Injected packet length average = 1
Accepted packet length average = 1
Total in-flight flits = 1 (1 measured)
latency change    = 0.00110508
throughput change = 0.00606061
Class 0:
Packet latency average = 19.3885
	minimum = 7
	maximum = 39
Network latency average = 19.3885
	minimum = 7
	maximum = 39
Slowest packet = 1759
Flit latency average = 19.4263
	minimum = 7
	maximum = 39
Slowest flit = 1759
Fragmentation average = 0
	minimum = 0
	maximum = 0
Injected packet rate average = 0.010075
	minimum = 0.0072 (at node 3)
	maximum = 0.0122 (at node 7)
Accepted packet rate average = 0.0100875
	minimum = 0.0072 (at node 12)
	maximum = 0.012 (at node 13)
Injected flit rate average = 0.010075
	minimum = 0.0072 (at node 3)
	maximum = 0.0122 (at node 7)
Accepted flit rate average= 0.0100875
	minimum = 0.0072 (at node 12)
	maximum = 0.012 (at node 13)
Injected packet length average = 1
Accepted packet length average = 1
Total in-flight flits = 3 (3 measured)
latency change    = 0.00787143
throughput change = 0.0223048
Draining all recorded packets ...
Draining remaining packets ...
Time taken is 8042 cycles
Class 0:
Packet latency average = 19.1667
	minimum = 7
	maximum = 38
Network latency average = 19.1667
	minimum = 7
	maximum = 38
Slowest packet = 2543
Flit latency average = 19.1667
	minimum = 7
	maximum = 38
Slowest flit = 2543
Fragmentation average = 0
	minimum = 0
	maximum = 0
Injected packet rate average = 0.0104375
	minimum = 0.004 (at node 0)
	maximum = 0.016 (at node 5)
Accepted packet rate average = 0.010125
	minimum = 0.004 (at node 0)
	maximum = 0.016 (at node 2)
Injected flit rate average = 0.0104375
	minimum = 0.004 (at node 0)
	maximum = 0.016 (at node 5)
Accepted flit rate average= 0.010125
	minimum = 0.004 (at node 0)
	maximum = 0.016 (at node 2)
Injected packet length average = 1
Accepted packet length average = 1
Total in-flight flits = 5 (0 measured)
latency change    = 1
throughput change = 1
Class 0:
Packet latency average = 19.3084
	minimum = 7
	maximum = 38
Network latency average = 19.3084
	minimum = 7
	maximum = 38
Slowest packet = 2543
Flit latency average = 19.3084
	minimum = 7
	maximum = 38
Slowest flit = 2543
Fragmentation average = 0
	minimum = 0
	maximum = 0
Injected packet rate average = 0.0102813
	minimum = 0.008 (at node 2)
	maximum = 0.0135 (at node 5)
Accepted packet rate average = 0.0100313
	minimum = 0.0075 (at node 12)
	maximum = 0.0135 (at node 5)
Injected flit rate average = 0.0102813
	minimum = 0.008 (at node 2)
	maximum = 0.0135 (at node 5)
Accepted flit rate average= 0.0100313
	minimum = 0.0075 (at node 12)
	maximum = 0.0135 (at node 5)
Injected packet length average = 1
Accepted packet length average = 1
Total in-flight flits = 8 (0 measured)
latency change    = 0.00734108
throughput change = 0.00934579
Class 0:
Packet latency average = 20.7718
	minimum = 7
	maximum = 37
Network latency average = 20.7718
	minimum = 7
	maximum = 37
Slowest packet = 2716
Flit latency average = 20.7718
	minimum = 7
	maximum = 37
Slowest flit = 2716
Fragmentation average = 0
	minimum = 0
	maximum = 0
Injected packet rate average = 0.009
	minimum = 0.004 (at node 2)
	maximum = 0.015 (at node 11)
Accepted packet rate average = 0.0093125
	minimum = 0.004 (at node 8)
	maximum = 0.015 (at node 3)
Injected flit rate average = 0.009
	minimum = 0.004 (at node 2)
	maximum = 0.015 (at node 11)
Accepted flit rate average= 0.0093125
	minimum = 0.004 (at node 8)
	maximum = 0.015 (at node 3)
Injected packet length average = 1
Accepted packet length average = 1
Total in-flight flits = 3 (0 measured)
latency change    = 0.0704513
throughput change = 0.0771812
Warmed up ...Time used is 3000 cycles
Class 0:
Packet latency average = 19.4362
	minimum = 7
	maximum = 37
Network latency average = 19.4362
	minimum = 7
	maximum = 37
Slowest packet = 2888
Flit latency average = 19.5197
	minimum = 7
	maximum = 37
Slowest flit = 2866
Fragmentation average = 0
	minimum = 0
	maximum = 0
Injected packet rate average = 0.0094375
	minimum = 0.001 (at node 9)
	maximum = 0.015 (at node 11)
Accepted packet rate average = 0.0095
	minimum = 0.001 (at node 6)
	maximum = 0.014 (at node 0)
Injected flit rate average = 0.0094375
	minimum = 0.001 (at node 9)
	maximum = 0.015 (at node 11)
Accepted flit rate average= 0.0095
	minimum = 0.001 (at node 6)
	maximum = 0.014 (at node 0)
Injected packet length average = 1
Accepted packet length average = 1
Total in-flight flits = 2 (2 measured)
latency change    = 0.0687155
throughput change = 0.0197368
Class 0:
Packet latency average = 20.1027
	minimum = 7
	maximum = 39
Network latency average = 20.1027
	minimum = 7
	maximum = 39
Slowest packet = 3135
Flit latency average = 20.139
	minimum = 7
	maximum = 39
Slowest flit = 3135
Fragmentation average = 0
	minimum = 0
	maximum = 0
Injected packet rate average = 0.00915625
	minimum = 0.0045 (at node 9)
	maximum = 0.013 (at node 11)
Accepted packet rate average = 0.00921875
	minimum = 0.0045 (at node 6)
	maximum = 0.013 (at node 14)
Injected flit rate average = 0.00915625
	minimum = 0.0045 (at node 9)
	maximum = 0.013 (at node 11)
Accepted flit rate average= 0.00921875
	minimum = 0.0045 (at node 6)
	maximum = 0.013 (at node 14)
Injected packet length average = 1
Accepted packet length average = 1
Total in-flight flits = 1 (1 measured)
latency change    = 0.0331546
throughput change = 0.0305085
Class 0:
Packet latency average = 20.184
	minimum = 7
	maximum = 39
Network latency average = 20.184
	minimum = 7
	maximum = 39
Slowest packet = 3135
Flit latency average = 20.207
	minimum = 7
	maximum = 39
Slowest flit = 3135
Fragmentation average = 0
	minimum = 0
	maximum = 0
Injected packet rate average = 0.0094375
	minimum = 0.00666667 (at node 2)
	maximum = 0.013 (at node 7)
Accepted packet rate average = 0.00945833
	minimum = 0.00666667 (at node 8)
	maximum = 0.013 (at node 13)
Injected flit rate average = 0.0094375
	minimum = 0.00666667 (at node 2)
	maximum = 0.013 (at node 7)
Accepted flit rate average= 0.00945833
	minimum = 0.00666667 (at node 8)
	maximum = 0.013 (at node 13)
Injected packet length average = 1
Accepted packet length average = 1
Total in-flight flits = 2 (2 measured)
latency change    = 0.00402773
throughput change = 0.0253304
Class 0:
Packet latency average = 19.8399
	minimum = 7
	maximum = 39
Network latency average = 19.8399
	minimum = 7
	maximum = 39
Slowest packet = 3135
Flit latency average = 19.858
	minimum = 7
	maximum = 39
Slowest flit = 3135
Fragmentation average = 0
	minimum = 0
	maximum = 0
Injected packet rate average = 0.009875
	minimum = 0.00675 (at node 2)
	maximum = 0.01225 (at node 10)
Accepted packet rate average = 0.00990625
	minimum = 0.00675 (at node 8)
	maximum = 0.0125 (at node 3)
Injected flit rate average = 0.009875
	minimum = 0.00675 (at node 2)
	maximum = 0.01225 (at node 10)
Accepted flit rate average= 0.00990625
	minimum = 0.00675 (at node 8)
	maximum = 0.0125 (at node 3)
Injected packet length average = 1
Accepted packet length average = 1
Total in-flight flits = 1 (1 measured)
latency change    = 0.0173437
throughput change = 0.0452156
Draining all recorded packets ...
Draining remaining packets ...
Time taken is 7045 cycles
Class 0:
Packet latency average = 17.8696
	minimum = 7
	maximum = 37
Network latency average = 17.8696
	minimum = 7
	maximum = 37
Slowest packet = 3510
Flit latency average = 17.8696
	minimum = 7
	maximum = 37
Slowest flit = 3510
Fragmentation average = 0
	minimum = 0
	maximum = 0
Injected packet rate average = 0.0086875
	minimum = 0.004 (at node 12)
	maximum = 0.012 (at node 6)
Accepted packet rate average = 0.008625
	minimum = 0.004 (at node 3)
	maximum = 0.012 (at node 9)
Injected flit rate average = 0.0086875
	minimum = 0.004 (at node 12)
	maximum = 0.012 (at node 6)
Accepted flit rate average= 0.008625
	minimum = 0.004 (at node 3)
	maximum = 0.012 (at node 9)
Injected packet length average = 1
Accepted packet length average = 1
Total in-flight flits = 1 (0 measured)
latency change    = 1
throughput change = 1
Class 0:
Packet latency average = 18.295
	minimum = 7
	maximum = 37
Network latency average = 18.295
	minimum = 7
	maximum = 37
Slowest packet = 3510
Flit latency average = 18.295
	minimum = 7
	maximum = 37
Slowest flit = 3510
Fragmentation average = 0
	minimum = 0
	maximum = 0
Injected packet rate average = 0.00878125
	minimum = 0.0045 (at node 2)
	maximum = 0.0145 (at node 11)
Accepted packet rate average = 0.0086875
	minimum = 0.004 (at node 8)
	maximum = 0.0145 (at node 14)
Injected flit rate average = 0.00878125
	minimum = 0.0045 (at node 2)
	maximum = 0.0145 (at node 11)
Accepted flit rate average= 0.0086875
	minimum = 0.004 (at node 8)
	maximum = 0.0145 (at node 14)
Injected packet length average = 1
Accepted packet length average = 1
Total in-flight flits = 3 (0 measured)
latency change    = 0.0232522
throughput change = 0.00719424
Class 0:
Packet latency average = 19.4204
	minimum = 7
	maximum = 37
Network latency average = 19.4204
	minimum = 7
	maximum = 37
Slowest packet = 3788
Flit latency average = 19.4204
	minimum = 7
	maximum = 37
Slowest flit = 3788
Fragmentation average = 0
	minimum = 0
	maximum = 0
Injected packet rate average = 0.0096875
	minimum = 0.002 (at node 10)
	maximum = 0.013 (at node 4)
Accepted packet rate average = 0.0098125
	minimum = 0.002 (at node 10)
	maximum = 0.013 (at node 1)
Injected flit rate average = 0.0096875
	minimum = 0.002 (at node 10)
	maximum = 0.013 (at node 4)
Accepted flit rate average= 0.0098125
	minimum = 0.002 (at node 10)
	maximum = 0.013 (at node 1)
Injected packet length average = 1
Accepted packet length average = 1
Total in-flight flits = 1 (0 measured)
latency change    = 0.0579504
throughput change = 0.11465
Warmed up ...Time used is 3000 cycles
Class 0:
Packet latency average = 19.907
	minimum = 7
	maximum = 37
Network latency average = 19.907
	minimum = 7
	maximum = 37
Slowest packet = 3944
Flit latency average = 19.8902
	minimum = 7
	maximum = 37
Slowest flit = 3944
Fragmentation average = 0
	minimum = 0
	maximum = 0
Injected packet rate average = 0.011
	minimum = 0.006 (at node 2)
	maximum = 0.019 (at node 3)
Accepted packet rate average = 0.0108125
	minimum = 0.006 (at node 3)
	maximum = 0.019 (at node 12)
Injected flit rate average = 0.011
	minimum = 0.006 (at node 2)
	maximum = 0.019 (at node 3)
Accepted flit rate average= 0.0108125
	minimum = 0.006 (at node 3)
	maximum = 0.019 (at node 12)
Injected packet length average = 1
Accepted packet length average = 1
Total in-flight flits = 4 (4 measured)
latency change    = 0.0244434
throughput change = 0.0924855
Class 0:
Packet latency average = 19.7531
	minimum = 7
	maximum = 38
Network latency average = 19.7531
	minimum = 7
	maximum = 38
Slowest packet = 4201
Flit latency average = 19.7445
	minimum = 7
	maximum = 38
Slowest flit = 4201
Fragmentation average = 0
	minimum = 0
	maximum = 0
Injected packet rate average = 0.0101563
	minimum = 0.0075 (at node 7)
	maximum = 0.015 (at node 3)
Accepted packet rate average = 0.0100313
	minimum = 0.0075 (at node 13)
	maximum = 0.015 (at node 12)
Injected flit rate average = 0.0101563
	minimum = 0.0075 (at node 7)
	maximum = 0.015 (at node 3)
Accepted flit rate average= 0.0100313
	minimum = 0.0075 (at node 13)
	maximum = 0.015 (at node 12)
Injected packet length average = 1
Accepted packet length average = 1
Total in-flight flits = 5 (5 measured)
latency change    = 0.00778873
throughput change = 0.0778816
Class 0:
Packet latency average = 19.8337
	minimum = 7
	maximum = 38
Network latency average = 19.8337
	minimum = 7
	maximum = 38
Slowest packet = 4201
Flit latency average = 19.8279
	minimum = 7
	maximum = 38
Slowest flit = 4201
Fragmentation average = 0
	minimum = 0
	maximum = 0
Injected packet rate average = 0.0102292
	minimum = 0.00766667 (at node 7)
	maximum = 0.0143333 (at node 8)
Accepted packet rate average = 0.0101667
	minimum = 0.00766667 (at node 13)
	maximum = 0.0143333 (at node 2)
Injected flit rate average = 0.0102292
	minimum = 0.00766667 (at node 7)
	maximum = 0.0143333 (at node 8)
Accepted flit rate average= 0.0101667
	minimum = 0.00766667 (at node 13)
	maximum = 0.0143333 (at node 2)
Injected packet length average = 1
Accepted packet length average = 1
Total in-flight flits = 4 (4 measured)
latency change    = 0.0040613
throughput change = 0.0133197
Class 0:
Packet latency average = 19.4878
	minimum = 7
	maximum = 38
Network latency average = 19.4878
	minimum = 7
	maximum = 38
Slowest packet = 4201
Flit latency average = 19.484
	minimum = 7
	maximum = 38
Slowest flit = 4201
Fragmentation average = 0
	minimum = 0
	maximum = 0
Injected packet rate average = 0.0102813
	minimum = 0.0075 (at node 7)
	maximum = 0.01525 (at node 8)
Accepted packet rate average = 0.0102656
	minimum = 0.0075 (at node 13)
	maximum = 0.01525 (at node 2)
Injected flit rate average = 0.0102813
	minimum = 0.0075 (at node 7)
	maximum = 0.01525 (at node 8)
Accepted flit rate average= 0.0102656
	minimum = 0.0075 (at node 13)
	maximum = 0.01525 (at node 2)
Injected packet length average = 1
Accepted packet length average = 1
Total in-flight flits = 2 (2 measured)
latency change    = 0.0177481
throughput change = 0.00963978
Class 0:
Packet latency average = 19.6732
	minimum = 7
	maximum = 38
Network latency average = 19.6732
	minimum = 7
	maximum = 38
Slowest packet = 4201
Flit latency average = 19.6699
	minimum = 7
	maximum = 38
Slowest flit = 4201
Fragmentation average = 0
	minimum = 0
	maximum = 0
Injected packet rate average = 0.01025
	minimum = 0.0076 (at node 7)
	maximum = 0.0136 (at node 8)
Accepted packet rate average = 0.010225
	minimum = 0.0076 (at node 13)
	maximum = 0.0136 (at node 2)
Injected flit rate average = 0.01025
	minimum = 0.0076 (at node 7)
	maximum = 0.0136 (at node 8)
Accepted flit rate average= 0.010225
	minimum = 0.0076 (at node 13)
	maximum = 0.0136 (at node 2)
Injected packet length average = 1
Accepted packet length average = 1
Total in-flight flits = 3 (3 measured)
latency change    = 0.00942347
throughput change = 0.00397311
Draining all recorded packets ...
Draining remaining packets ...
Time taken is 8045 cycles
Class 0:
Packet latency average = 17.3148
	minimum = 7
	maximum = 37
Network latency average = 17.3148
	minimum = 7
	maximum = 37
Slowest packet = 4769
Flit latency average = 17.3148
	minimum = 7
	maximum = 37
Slowest flit = 4769
Fragmentation average = 0
	minimum = 0
	maximum = 0
Injected packet rate average = 0.0101875
	minimum = 0.004 (at node 9)
	maximum = 0.018 (at node 0)
Accepted packet rate average = 0.010125
	minimum = 0.004 (at node 6)
	maximum = 0.018 (at node 0)
Injected flit rate average = 0.0101875
	minimum = 0.004 (at node 9)
	maximum = 0.018 (at node 0)
Accepted flit rate average= 0.010125
	minimum = 0.004 (at node 6)
	maximum = 0.018 (at node 0)
Injected packet length average = 1
Accepted packet length average = 1
Total in-flight flits = 1 (0 measured)
latency change    = 1
throughput change = 1
Class 0:
Packet latency average = 18.4
	minimum = 7
	maximum = 37
Network latency average = 18.4
	minimum = 7
	maximum = 37
Slowest packet = 4769
Flit latency average = 18.4
	minimum = 7
	maximum = 37
Slowest flit = 4769
Fragmentation average = 0
	minimum = 0
	maximum = 0
Injected packet rate average = 0.0101563
	minimum = 0.007 (at node 6)
	maximum = 0.014 (at node 10)
Accepted packet rate average = 0.01
	minimum = 0.0065 (at node 9)
	maximum = 0.014 (at node 10)
Injected flit rate average = 0.0101563
	minimum = 0.007 (at node 6)
	maximum = 0.014 (at node 10)
Accepted flit rate average= 0.01
	minimum = 0.0065 (at node 9)
	maximum = 0.014 (at node 10)
Injected packet length average = 1
Accepted packet length average = 1
Total in-flight flits = 5 (0 measured)
latency change    = 0.0589775
throughput change = 0.0125
Class 0:
Packet latency average = 20.1842
	minimum = 7
	maximum = 37
Network latency average = 20.1842
	minimum = 7
	maximum = 37
Slowest packet = 5084
Flit latency average = 20.1842
	minimum = 7
	maximum = 37
Slowest flit = 5084
Fragmentation average = 0
	minimum = 0
	maximum = 0
Injected packet rate average = 0.009375
	minimum = 0.005 (at node 4)
	maximum = 0.014 (at node 3)
Accepted packet rate average = 0.0095
	minimum = 0.005 (at node 1)
	maximum = 0.015 (at node 7)
Injected flit rate average = 0.009375
	minimum = 0.005 (at node 4)
	maximum = 0.014 (at node 3)
Accepted flit rate average= 0.0095
	minimum = 0.005 (at node 1)
	maximum = 0.015 (at node 7)
Injected packet length average = 1
Accepted packet length average = 1
Total in-flight flits = 3 (0 measured)
latency change    = 0.0883963
throughput change = 0.0526316
Warmed up ...Time used is 3000 cycles
Class 0:
Packet latency average = 21.1313
	minimum = 7
	maximum = 37
Network latency average = 21.1313
	minimum = 7
	maximum = 37
Slowest packet = 5250
Flit latency average = 21.1779
	minimum = 7
	maximum = 37
Slowest flit = 5235
Fragmentation average = 0
	minimum = 0
	maximum = 0
Injected packet rate average = 0.0101875
	minimum = 0.005 (at node 5)
	maximum = 0.019 (at node 12)
Accepted packet rate average = 0.0101875
	minimum = 0.005 (at node 4)
	maximum = 0.019 (at node 3)
Injected flit rate average = 0.0101875
	minimum = 0.005 (at node 5)
	maximum = 0.019 (at node 12)
Accepted flit rate average= 0.0101875
	minimum = 0.005 (at node 4)
	maximum = 0.019 (at node 3)
Injected packet length average = 1
Accepted packet length average = 1
Total in-flight flits = 3 (3 measured)
latency change    = 0.044817
throughput change = 0.0674847
Class 0:
Packet latency average = 21.0814
	minimum = 7
	maximum = 37
Network latency average = 21.0814
	minimum = 7
	maximum = 37
Slowest packet = 5250
Flit latency average = 21.1074
	minimum = 7
	maximum = 37
Slowest flit = 5235
Fragmentation average = 0
	minimum = 0
	maximum = 0
Injected packet rate average = 0.00940625
	minimum = 0.005 (at node 1)
	maximum = 0.0165 (at node 12)
Accepted packet rate average = 0.0093125
	minimum = 0.005 (at node 4)
	maximum = 0.0155 (at node 3)
Injected flit rate average = 0.00940625
	minimum = 0.005 (at node 1)
	maximum = 0.0165 (at node 12)
Accepted flit rate average= 0.0093125
	minimum = 0.005 (at node 4)
	maximum = 0.0155 (at node 3)
Injected packet length average = 1
Accepted packet length average = 1
Total in-flight flits = 6 (6 measured)
latency change    = 0.00236674
throughput change = 0.0939597
Class 0:
Packet latency average = 20.5625
	minimum = 7
	maximum = 38
Network latency average = 20.5625
	minimum = 7
	maximum = 38
Slowest packet = 5622
Flit latency average = 20.5831
	minimum = 7
	maximum = 38
Slowest flit = 5622
Fragmentation average = 0
	minimum = 0
	maximum = 0
Injected packet rate average = 0.0094375
	minimum = 0.00533333 (at node 0)
	maximum = 0.013 (at node 12)
Accepted packet rate average = 0.00939583
	minimum = 0.00566667 (at node 0)
	maximum = 0.013 (at node 3)
Injected flit rate average = 0.0094375
	minimum = 0.00533333 (at node 0)
	maximum = 0.013 (at node 12)
Accepted flit rate average= 0.00939583
	minimum = 0.00566667 (at node 0)
	maximum = 0.013 (at node 3)
Injected packet length average = 1
Accepted packet length average = 1
Total in-flight flits = 5 (5 measured)
latency change    = 0.0252331
throughput change = 0.00886918
Class 0:
Packet latency average = 20.2968
	minimum = 7
	maximum = 38
Network latency average = 20.2968
	minimum = 7
	maximum = 38
Slowest packet = 5622
Flit latency average = 20.3135
	minimum = 7
	maximum = 38
Slowest flit = 5622
Fragmentation average = 0
	minimum = 0
	maximum = 0
Injected packet rate average = 0.00954687
	minimum = 0.0055 (at node 11)
	maximum = 0.012 (at node 13)
Accepted packet rate average = 0.00946875
	minimum = 0.0055 (at node 14)
	maximum = 0.012 (at node 2)
Injected flit rate average = 0.00954687
	minimum = 0.0055 (at node 11)
	maximum = 0.012 (at node 13)
Accepted flit rate average= 0.00946875
	minimum = 0.0055 (at node 14)
	maximum = 0.012 (at node 2)
Injected packet length average = 1
Accepted packet length average = 1
Total in-flight flits = 8 (8 measured)
latency change    = 0.0130883
throughput change = 0.00770077
Class 0:
Packet latency average = 20.3089
	minimum = 7
	maximum = 38
Network latency average = 20.3089
	minimum = 7
	maximum = 38
Slowest packet = 5622
Flit latency average = 20.322
	minimum = 7
	maximum = 38
Slowest flit = 5622
Fragmentation average = 0
	minimum = 0
	maximum = 0
Injected packet rate average = 0.0095875
	minimum = 0.0062 (at node 11)
	maximum = 0.0126 (at node 12)
Accepted packet rate average = 0.0095875
	minimum = 0.006 (at node 14)
	maximum = 0.0126 (at node 3)
Injected flit rate average = 0.0095875
	minimum = 0.0062 (at node 11)
	maximum = 0.0126 (at node 12)
Accepted flit rate average= 0.0095875
	minimum = 0.006 (at node 14)
	maximum = 0.0126 (at node 3)
Injected packet length average = 1
Accepted packet length average = 1
Total in-flight flits = 3 (3 measured)
latency change    = 0.000593407
throughput change = 0.0123859
Draining all recorded packets ...
Draining remaining packets ...
Time taken is 8025 cycles
Class 0:
Packet latency average = 19.0172
	minimum = 7
	maximum = 37
Network latency average = 19.0172
	minimum = 7
	maximum = 37
Slowest packet = 6015
Flit latency average = 19.0172
	minimum = 7
	maximum = 37
Slowest flit = 6015
Fragmentation average = 0
	minimum = 0
	maximum = 0
Injected packet rate average = 0.011
	minimum = 0.005 (at node 1)
	maximum = 0.016 (at node 11)
Accepted packet rate average = 0.010875
	minimum = 0.005 (at node 4)
	maximum = 0.016 (at node 14)
Injected flit rate average = 0.011
	minimum = 0.005 (at node 1)
	maximum = 0.016 (at node 11)
Accepted flit rate average= 0.010875
	minimum = 0.005 (at node 4)
	maximum = 0.016 (at node 14)
Injected packet length average = 1
Accepted packet length average = 1
Total in-flight flits = 2 (0 measured)
latency change    = 1
throughput change = 1
Class 0:
Packet latency average = 19.2253
	minimum = 7
	maximum = 37
Network latency average = 19.2253
	minimum = 7
	maximum = 37
Slowest packet = 6015
Flit latency average = 19.2253
	minimum = 7
	maximum = 37
Slowest flit = 6015
Fragmentation average = 0
	minimum = 0
	maximum = 0
Injected packet rate average = 0.01025
	minimum = 0.007 (at node 13)
	maximum = 0.014 (at node 11)
Accepted packet rate average = 0.010125
	minimum = 0.007 (at node 7)
	maximum = 0.014 (at node 14)
Injected flit rate average = 0.01025
	minimum = 0.007 (at node 13)
	maximum = 0.014 (at node 11)
Accepted flit rate average= 0.010125
	minimum = 0.007 (at node 7)
	maximum = 0.014 (at node 14)
Injected packet length average = 1
Accepted packet length average = 1
Total in-flight flits = 4 (0 measured)
latency change    = 0.0108226
throughput change = 0.0740741
Class 0:
Packet latency average = 19.2412
	minimum = 7
	maximum = 37
Network latency average = 19.2412
	minimum = 7
	maximum = 37
Slowest packet = 6328
Flit latency average = 19.2412
	minimum = 7
	maximum = 37
Slowest flit = 6328
Fragmentation average = 0
	minimum = 0
	maximum = 0
Injected packet rate average = 0.0105625
	minimum = 0.006 (at node 3)
	maximum = 0.018 (at node 0)
Accepted packet rate average = 0.010625
	minimum = 0.007 (at node 3)
	maximum = 0.019 (at node 8)
Injected flit rate average = 0.0105625
	minimum = 0.006 (at node 3)
	maximum = 0.018 (at node 0)
Accepted flit rate average= 0.010625
	minimum = 0.007 (at node 3)
	maximum = 0.019 (at node 8)
Injected packet length average = 1
Accepted packet length average = 1
Total in-flight flits = 3 (0 measured)
latency change    = 0.000824681
throughput change = 0.0470588
Warmed up ...Time used is 3000 cycles
Class 0:
Packet latency average = 20.006
	minimum = 7
	maximum = 38
Network latency average = 20.006
	minimum = 7
	maximum = 38
Slowest packet = 6648
Flit latency average = 19.8947
	minimum = 7
	maximum = 38
Slowest flit = 6648
Fragmentation average = 0
	minimum = 0
	maximum = 0
Injected packet rate average = 0.0109375
	minimum = 0.005 (at node 6)
	maximum = 0.016 (at node 13)
Accepted packet rate average = 0.0106875
	minimum = 0.005 (at node 9)
	maximum = 0.016 (at node 1)
Injected flit rate average = 0.0109375
	minimum = 0.005 (at node 6)
	maximum = 0.016 (at node 13)
Accepted flit rate average= 0.0106875
	minimum = 0.005 (at node 9)
	maximum = 0.016 (at node 1)
Injected packet length average = 1
Accepted packet length average = 1
Total in-flight flits = 7 (7 measured)
latency change    = 0.0382274
throughput change = 0.00584795
Class 0:
Packet latency average = 19.8193
	minimum = 7
	maximum = 38
Network latency average = 19.8193
	minimum = 7
	maximum = 38
Slowest packet = 6648
Flit latency average = 19.7623
	minimum = 7
	maximum = 38
Slowest flit = 6648
Fragmentation average = 0
	minimum = 0
	maximum = 0
Injected packet rate average = 0.01025
	minimum = 0.006 (at node 0)
	maximum = 0.0135 (at node 4)
Accepted packet rate average = 0.010125
	minimum = 0.0065 (at node 0)
	maximum = 0.0135 (at node 1)
Injected flit rate average = 0.01025
	minimum = 0.006 (at node 0)
	maximum = 0.0135 (at node 4)
Accepted flit rate average= 0.010125
	minimum = 0.0065 (at node 0)
	maximum = 0.0135 (at node 1)
Injected packet length average = 1
Accepted packet length average = 1
Total in-flight flits = 7 (7 measured)
latency change    = 0.00941696
throughput change = 0.0555556
Class 0:
Packet latency average = 19.3955
	minimum = 7
	maximum = 38
Network latency average = 19.3955
	minimum = 7
	maximum = 38
Slowest packet = 6648
Flit latency average = 19.3605
	minimum = 7
	maximum = 38
Slowest flit = 6648
Fragmentation average = 0
	minimum = 0
	maximum = 0
Injected packet rate average = 0.0102292
	minimum = 0.00833333 (at node 0)
	maximum = 0.0133333 (at node 4)
Accepted packet rate average = 0.0102292
	minimum = 0.008 (at node 9)
	maximum = 0.0133333 (at node 1)
Injected flit rate average = 0.0102292
	minimum = 0.00833333 (at node 0)
	maximum = 0.0133333 (at node 4)
Accepted flit rate average= 0.0102292
	minimum = 0.008 (at node 9)
	maximum = 0.0133333 (at node 1)
Injected packet length average = 1
Accepted packet length average = 1
Total in-flight flits = 3 (3 measured)
latency change    = 0.0218516
throughput change = 0.0101833
Class 0:
Packet latency average = 19.3338
	minimum = 7
	maximum = 38
Network latency average = 19.3338
	minimum = 7
	maximum = 38
Slowest packet = 6648
Flit latency average = 19.3077
	minimum = 7
	maximum = 38
Slowest flit = 6648
Fragmentation average = 0
	minimum = 0
	maximum = 0
Injected packet rate average = 0.0101563
	minimum = 0.0075 (at node 6)
	maximum = 0.013 (at node 14)
Accepted packet rate average = 0.0101563
	minimum = 0.0075 (at node 9)
	maximum = 0.013 (at node 11)
Injected flit rate average = 0.0101563
	minimum = 0.0075 (at node 6)
	maximum = 0.013 (at node 14)
Accepted flit rate average= 0.0101563
	minimum = 0.0075 (at node 9)
	maximum = 0.013 (at node 11)
Injected packet length average = 1
Accepted packet length average = 1
Total in-flight flits = 3 (3 measured)
latency change    = 0.00318836
throughput change = 0.00717949
Class 0:
Packet latency average = 19.1517
	minimum = 7
	maximum = 40
Network latency average = 19.1517
	minimum = 7
	maximum = 40
Slowest packet = 7302
Flit latency average = 19.1322
	minimum = 7
	maximum = 40
Slowest flit = 7302
Fragmentation average = 0
	minimum = 0
	maximum = 0
Injected packet rate average = 0.010575
	minimum = 0.0076 (at node 12)
	maximum = 0.013 (at node 14)
Accepted packet rate average = 0.0105875
	minimum = 0.0076 (at node 3)
	maximum = 0.013 (at node 11)
Injected flit rate average = 0.010575
	minimum = 0.0076 (at node 12)
	maximum = 0.013 (at node 14)
Accepted flit rate average= 0.0105875
	minimum = 0.0076 (at node 3)
	maximum = 0.013 (at node 11)
Injected packet length average = 1
Accepted packet length average = 1
Total in-flight flits = 2 (2 measured)
latency change    = 0.009513
throughput change = 0.040732
Draining all recorded packets ...
Draining remaining packets ...
Time taken is 8022 cycles
Class 0:
Packet latency average = 19.8699
	minimum = 7
	maximum = 42
Network latency average = 19.8699
	minimum = 7
	maximum = 42
Slowest packet = 7384
Flit latency average = 19.8699
	minimum = 7
	maximum = 42
Slowest flit = 7384
Fragmentation average = 0
	minimum = 0
	maximum = 0
Injected packet rate average = 0.00925
	minimum = 0.005 (at node 0)
	maximum = 0.013 (at node 9)
Accepted packet rate average = 0.009125
	minimum = 0.005 (at node 0)
	maximum = 0.012 (at node 6)
Injected flit rate average = 0.00925
	minimum = 0.005 (at node 0)
	maximum = 0.013 (at node 9)
Accepted flit rate average= 0.009125
	minimum = 0.005 (at node 0)
	maximum = 0.012 (at node 6)
Injected packet length average = 1
Accepted packet length average = 1
Total in-flight flits = 2 (0 measured)
latency change    = 1
throughput change = 1
Class 0:
Packet latency average = 19.25
	minimum = 7
	maximum = 42
Network latency average = 19.25
	minimum = 7
	maximum = 42
Slowest packet = 7384
Flit latency average = 19.25
	minimum = 7
	maximum = 42
Slowest flit = 7384
Fragmentation average = 0
	minimum = 0
	maximum = 0
Injected packet rate average = 0.010125
	minimum = 0.0055 (at node 2)
	maximum = 0.014 (at node 9)
Accepted packet rate average = 0.01
	minimum = 0.0055 (at node 8)
	maximum = 0.014 (at node 6)
Injected flit rate average = 0.010125
	minimum = 0.0055 (at node 2)
	maximum = 0.014 (at node 9)
Accepted flit rate average= 0.01
	minimum = 0.0055 (at node 8)
	maximum = 0.014 (at node 6)
Injected packet length average = 1
Accepted packet length average = 1
Total in-flight flits = 4 (0 measured)
latency change    = 0.0322007
throughput change = 0.0875
Class 0:
Packet latency average = 20.0263
	minimum = 7
	maximum = 37
Network latency average = 20.0263
	minimum = 7
	maximum = 37
Slowest packet = 7670
Flit latency average = 20.0263
	minimum = 7
	maximum = 37
Slowest flit = 7670
Fragmentation average = 0
	minimum = 0
	maximum = 0
Injected packet rate average = 0.0095
	minimum = 0.006 (at node 5)
	maximum = 0.014 (at node 6)
Accepted packet rate average = 0.0095
	minimum = 0.006 (at node 5)
	maximum = 0.015 (at node 2)
Injected flit rate average = 0.0095
	minimum = 0.006 (at node 5)
	maximum = 0.014 (at node 6)
Accepted flit rate average= 0.0095
	minimum = 0.006 (at node 5)
	maximum = 0.015 (at node 2)
Injected packet length average = 1
Accepted packet length average = 1
Total in-flight flits = 4 (0 measured)
latency change    = 0.0387648
throughput change = 0.0526316
Warmed up ...Time used is 3000 cycles
Class 0:
Packet latency average = 19.213
	minimum = 7
	maximum = 37
Network latency average = 19.213
	minimum = 7
	maximum = 37
Slowest packet = 7839
Flit latency average = 19.4509
	minimum = 7
	maximum = 37
Slowest flit = 7822
Fragmentation average = 0
	minimum = 0
	maximum = 0
Injected packet rate average = 0.0108125
	minimum = 0.006 (at node 9)
	maximum = 0.017 (at node 6)
Accepted packet rate average = 0.0108125
	minimum = 0.006 (at node 6)
	maximum = 0.016 (at node 9)
Injected flit rate average = 0.0108125
	minimum = 0.006 (at node 9)
	maximum = 0.017 (at node 6)
Accepted flit rate average= 0.0108125
	minimum = 0.006 (at node 6)
	maximum = 0.016 (at node 9)
Injected packet length average = 1
Accepted packet length average = 1
Total in-flight flits = 4 (4 measured)
latency change    = 0.0423306
throughput change = 0.121387
Class 0:
Packet latency average = 19.9077
	minimum = 7
	maximum = 42
Network latency average = 19.9077
	minimum = 7
	maximum = 42
Slowest packet = 8112
Flit latency average = 20.0243
	minimum = 7
	maximum = 42
Slowest flit = 8112
Fragmentation average = 0
	minimum = 0
	maximum = 0
Injected packet rate average = 0.0101563
	minimum = 0.0075 (at node 2)
	maximum = 0.0125 (at node 0)
Accepted packet rate average = 0.0102813
	minimum = 0.0075 (at node 8)
	maximum = 0.0125 (at node 0)
Injected flit rate average = 0.0101563
	minimum = 0.0075 (at node 2)
	maximum = 0.0125 (at node 0)
Accepted flit rate average= 0.0102813
	minimum = 0.0075 (at node 8)
	maximum = 0.0125 (at node 0)
Injected packet length average = 1
Accepted packet length average = 1
Total in-flight flits = 0 (0 measured)
latency change    = 0.0348948
throughput change = 0.0516717
Class 0:
Packet latency average = 19.567
	minimum = 7
	maximum = 42
Network latency average = 19.567
	minimum = 7
	maximum = 42
Slowest packet = 8112
Flit latency average = 19.6483
	minimum = 7
	maximum = 42
Slowest flit = 8112
Fragmentation average = 0
	minimum = 0
	maximum = 0
Injected packet rate average = 0.0101667
	minimum = 0.00866667 (at node 10)
	maximum = 0.012 (at node 12)
Accepted packet rate average = 0.0101875
	minimum = 0.00866667 (at node 10)
	maximum = 0.0123333 (at node 3)
Injected flit rate average = 0.0101667
	minimum = 0.00866667 (at node 10)
	maximum = 0.012 (at node 12)
Accepted flit rate average= 0.0101875
	minimum = 0.00866667 (at node 10)
	maximum = 0.0123333 (at node 3)
Injected packet length average = 1
Accepted packet length average = 1
Total in-flight flits = 3 (3 measured)
latency change    = 0.017411
throughput change = 0.00920245
Class 0:
Packet latency average = 19.4065
	minimum = 7
	maximum = 42
Network latency average = 19.4065
	minimum = 7
	maximum = 42
Slowest packet = 8112
Flit latency average = 19.469
	minimum = 7
	maximum = 42
Slowest flit = 8112
Fragmentation average = 0
	minimum = 0
	maximum = 0
Injected packet rate average = 0.0101094
	minimum = 0.00775 (at node 10)
	maximum = 0.01275 (at node 15)
Accepted packet rate average = 0.0100938
	minimum = 0.00775 (at node 10)
	maximum = 0.01275 (at node 15)
Injected flit rate average = 0.0101094
	minimum = 0.00775 (at node 10)
	maximum = 0.01275 (at node 15)
Accepted flit rate average= 0.0100938
	minimum = 0.00775 (at node 10)
	maximum = 0.01275 (at node 15)
Injected packet length average = 1
Accepted packet length average = 1
Total in-flight flits = 5 (5 measured)
latency change    = 0.00826877
throughput change = 0.00928793
Class 0:
Packet latency average = 19.6915
	minimum = 7
	maximum = 42
Network latency average = 19.6915
	minimum = 7
	maximum = 42
Slowest packet = 8112
Flit latency average = 19.7401
	minimum = 7
	maximum = 42
Slowest flit = 8112
Fragmentation average = 0
	minimum = 0
	maximum = 0
Injected packet rate average = 0.0101
	minimum = 0.0072 (at node 10)
	maximum = 0.012 (at node 11)
Accepted packet rate average = 0.0101
	minimum = 0.0072 (at node 10)
	maximum = 0.0118 (at node 14)
Injected flit rate average = 0.0101
	minimum = 0.0072 (at node 10)
	maximum = 0.012 (at node 11)
Accepted flit rate average= 0.0101
	minimum = 0.0072 (at node 10)
	maximum = 0.0118 (at node 14)
Injected packet length average = 1
Accepted packet length average = 1
Total in-flight flits = 4 (4 measured)
latency change    = 0.0144732
throughput change = 0.000618812
Draining all recorded packets ...
Draining remaining packets ...
Time taken is 8045 cycles
Class 0:
Packet latency average = 19.5
	minimum = 7
	maximum = 37
Network latency average = 19.5
	minimum = 7
	maximum = 37
Slowest packet = 8654
Flit latency average = 19.5
	minimum = 7
	maximum = 37
Slowest flit = 8654
Fragmentation average = 0
	minimum = 0
	maximum = 0
Injected packet rate average = 0.0093125
	minimum = 0.003 (at node 1)
	maximum = 0.015 (at node 3)
Accepted packet rate average = 0.00925
	minimum = 0.003 (at node 4)
	maximum = 0.015 (at node 12)
Injected flit rate average = 0.0093125
	minimum = 0.003 (at node 1)
	maximum = 0.015 (at node 3)
Accepted flit rate average= 0.00925
	minimum = 0.003 (at node 4)
	maximum = 0.015 (at node 12)
Injected packet length average = 1
Accepted packet length average = 1
Total in-flight flits = 1 (0 measured)
latency change    = 1
throughput change = 1
Class 0:
Packet latency average = 18.8908
	minimum = 7
	maximum = 37
Network latency average = 18.8908
	minimum = 7
	maximum = 37
Slowest packet = 8654
Flit latency average = 18.8908
	minimum = 7
	maximum = 37
Slowest flit = 8654
Fragmentation average = 0
	minimum = 0
	maximum = 0
Injected packet rate average = 0.00921875
	minimum = 0.0035 (at node 1)
	maximum = 0.0125 (at node 10)
Accepted packet rate average = 0.00915625
	minimum = 0.0035 (at node 4)
	maximum = 0.0125 (at node 10)
Injected flit rate average = 0.00921875
	minimum = 0.0035 (at node 1)
	maximum = 0.0125 (at node 10)
Accepted flit rate average= 0.00915625
	minimum = 0.0035 (at node 4)
	maximum = 0.0125 (at node 10)
Injected packet length average = 1
Accepted packet length average = 1
Total in-flight flits = 2 (0 measured)
latency change    = 0.0322493
throughput change = 0.0102389
Class 0:
Packet latency average = 18.8054
	minimum = 7
	maximum = 37
Network latency average = 18.8054
	minimum = 7
	maximum = 37
Slowest packet = 8950
Flit latency average = 18.8054
	minimum = 7
	maximum = 37
Slowest flit = 8950
Fragmentation average = 0
	minimum = 0
	maximum = 0
Injected packet rate average = 0.0091875
	minimum = 0.003 (at node 2)
	maximum = 0.016 (at node 13)
Accepted packet rate average = 0.0093125
	minimum = 0.003 (at node 8)
	maximum = 0.016 (at node 7)
Injected flit rate average = 0.0091875
	minimum = 0.003 (at node 2)
	maximum = 0.016 (at node 13)
Accepted flit rate average= 0.0093125
	minimum = 0.003 (at node 8)
	maximum = 0.016 (at node 7)
Injected packet length average = 1
Accepted packet length average = 1
Total in-flight flits = 0 (0 measured)
latency change    = 0.0045421
throughput change = 0.0167785
Warmed up ...Time used is 3000 cycles
Class 0:
Packet latency average = 18.8354
	minimum = 7
	maximum = 37
Network latency average = 18.8354
	minimum = 7
	maximum = 37
Slowest packet = 9081
Flit latency average = 18.8354
	minimum = 7
	maximum = 37
Slowest flit = 9081
Fragmentation average = 0
	minimum = 0
	maximum = 0
Injected packet rate average = 0.01
	minimum = 0.004 (at node 13)
	maximum = 0.015 (at node 3)
Accepted packet rate average = 0.009875
	minimum = 0.004 (at node 7)
	maximum = 0.015 (at node 5)
Injected flit rate average = 0.01
	minimum = 0.004 (at node 13)
	maximum = 0.015 (at node 3)
Accepted flit rate average= 0.009875
	minimum = 0.004 (at node 7)
	maximum = 0.015 (at node 5)
Injected packet length average = 1
Accepted packet length average = 1
Total in-flight flits = 2 (2 measured)
latency change    = 0.00159667
throughput change = 0.056962
Class 0:
Packet latency average = 19.0033
	minimum = 7
	maximum = 37
Network latency average = 19.0033
	minimum = 7
	maximum = 37
Slowest packet = 9081
Flit latency average = 19.0033
	minimum = 7
	maximum = 37
Slowest flit = 9081
Fragmentation average = 0
	minimum = 0
	maximum = 0
Injected packet rate average = 0.00965625
	minimum = 0.0065 (at node 13)
	maximum = 0.0145 (at node 5)
Accepted packet rate average = 0.00953125
	minimum = 0.006 (at node 7)
	maximum = 0.0145 (at node 5)
Injected flit rate average = 0.00965625
	minimum = 0.0065 (at node 13)
	maximum = 0.0145 (at node 5)
Accepted flit rate average= 0.00953125
	minimum = 0.006 (at node 7)
	maximum = 0.0145 (at node 5)
Injected packet length average = 1
Accepted packet length average = 1
Total in-flight flits = 4 (4 measured)
latency change    = 0.00883193
throughput change = 0.0360656
Class 0:
Packet latency average = 19.1164
	minimum = 7
	maximum = 37
Network latency average = 19.1164
	minimum = 7
	maximum = 37
Slowest packet = 9081
Flit latency average = 19.1164
	minimum = 7
	maximum = 37
Slowest flit = 9081
Fragmentation average = 0
	minimum = 0
	maximum = 0
Injected packet rate average = 0.00972917
	minimum = 0.00766667 (at node 13)
	maximum = 0.014 (at node 5)
Accepted packet rate average = 0.00966667
	minimum = 0.00733333 (at node 7)
	maximum = 0.014 (at node 5)
Injected flit rate average = 0.00972917
	minimum = 0.00766667 (at node 13)
	maximum = 0.014 (at node 5)
Accepted flit rate average= 0.00966667
	minimum = 0.00733333 (at node 7)
	maximum = 0.014 (at node 5)
Injected packet length average = 1
Accepted packet length average = 1
Total in-flight flits = 3 (3 measured)
latency change    = 0.00591642
throughput change = 0.0140086
Class 0:
Packet latency average = 19.511
	minimum = 7
	maximum = 37
Network latency average = 19.511
	minimum = 7
	maximum = 37
Slowest packet = 9081
Flit latency average = 19.511
	minimum = 7
	maximum = 37
Slowest flit = 9081
Fragmentation average = 0
	minimum = 0
	maximum = 0
Injected packet rate average = 0.0099375
	minimum = 0.0075 (at node 15)
	maximum = 0.01225 (at node 7)
Accepted packet rate average = 0.00990625
	minimum = 0.0075 (at node 15)
	maximum = 0.01225 (at node 13)
Injected flit rate average = 0.0099375
	minimum = 0.0075 (at node 15)
	maximum = 0.01225 (at node 7)
Accepted flit rate average= 0.00990625
	minimum = 0.0075 (at node 15)
	maximum = 0.01225 (at node 13)
Injected packet length average = 1
Accepted packet length average = 1
Total in-flight flits = 2 (2 measured)
latency change    = 0.0202276
throughput change = 0.0241851
Draining all recorded packets ...
Draining remaining packets ...
Time taken is 7041 cycles
Class 0:
Packet latency average = 20.6875
	minimum = 7
	maximum = 37
Network latency average = 20.6875
	minimum = 7
	maximum = 37
Slowest packet = 9723
Flit latency average = 20.6875
	minimum = 7
	maximum = 37
Slowest flit = 9723
Fragmentation average = 0
	minimum = 0
	maximum = 0
Injected packet rate average = 0.0091875
	minimum = 0.004 (at node 7)
	maximum = 0.02 (at node 12)
Accepted packet rate average = 0.009
	minimum = 0.004 (at node 13)
	maximum = 0.018 (at node 3)
Injected flit rate average = 0.0091875
	minimum = 0.004 (at node 7)
	maximum = 0.02 (at node 12)
Accepted flit rate average= 0.009
	minimum = 0.004 (at node 13)
	maximum = 0.018 (at node 3)
Injected packet length average = 1
Accepted packet length average = 1
Total in-flight flits = 3 (0 measured)
latency change    = 1
throughput change = 1
Class 0:
Packet latency average = 20.1541
	minimum = 7
	maximum = 37
Network latency average = 20.1541
	minimum = 7
	maximum = 37
Slowest packet = 9723
Flit latency average = 20.1541
	minimum = 7
	maximum = 37
Slowest flit = 9723
Fragmentation average = 0
	minimum = 0
	maximum = 0
Injected packet rate average = 0.00925
	minimum = 0.0045 (at node 7)
	maximum = 0.0145 (at node 12)
Accepted packet rate average = 0.009125
	minimum = 0.004 (at node 13)
	maximum = 0.014 (at node 3)
Injected flit rate average = 0.00925
	minimum = 0.0045 (at node 7)
	maximum = 0.0145 (at node 12)
Accepted flit rate average= 0.009125
	minimum = 0.004 (at node 13)
	maximum = 0.014 (at node 3)
Injected packet length average = 1
Accepted packet length average = 1
Total in-flight flits = 4 (0 measured)
latency change    = 0.0264656
throughput change = 0.0136986
Class 0:
Packet latency average = 19.2775
	minimum = 7
	maximum = 38
Network latency average = 19.2775
	minimum = 7
	maximum = 38
Slowest packet = 10143
Flit latency average = 19.2775
	minimum = 7
	maximum = 38
Slowest flit = 10143
Fragmentation average = 0
	minimum = 0
	maximum = 0
Injected packet rate average = 0.0108125
	minimum = 0.006 (at node 4)
	maximum = 0.016 (at node 11)
Accepted packet rate average = 0.0108125
	minimum = 0.005 (at node 1)
	maximum = 0.016 (at node 14)
Injected flit rate average = 0.0108125
	minimum = 0.006 (at node 4)
	maximum = 0.016 (at node 11)
Accepted flit rate average= 0.0108125
	minimum = 0.005 (at node 1)
	maximum = 0.016 (at node 14)
Injected packet length average = 1
Accepted packet length average = 1
Total in-flight flits = 4 (0 measured)
latency change    = 0.0454755
throughput change = 0.156069
Warmed up ...Time used is 3000 cycles
Class 0:
Packet latency average = 19.2951
	minimum = 7
	maximum = 37
Network latency average = 19.2951
	minimum = 7
	maximum = 37
Slowest packet = 10188
Flit latency average = 19.5397
	minimum = 7
	maximum = 37
Slowest flit = 10182
Fragmentation average = 0
	minimum = 0
	maximum = 0
Injected packet rate average = 0.008
	minimum = 0.004 (at node 15)
	maximum = 0.013 (at node 3)
Accepted packet rate average = 0.007875
	minimum = 0.004 (at node 3)
	maximum = 0.012 (at node 10)
Injected flit rate average = 0.008
	minimum = 0.004 (at node 15)
	maximum = 0.013 (at node 3)
Accepted flit rate average= 0.007875
	minimum = 0.004 (at node 3)
	maximum = 0.012 (at node 10)
Injected packet length average = 1
Accepted packet length average = 1
Total in-flight flits = 6 (6 measured)
latency change    = 0.000913462
throughput change = 0.373016
Class 0:
Packet latency average = 19.2881
	minimum = 7
	maximum = 37
Network latency average = 19.2881
	minimum = 7
	maximum = 37
Slowest packet = 10188
Flit latency average = 19.3913
	minimum = 7
	maximum = 37
Slowest flit = 10182
Fragmentation average = 0
	minimum = 0
	maximum = 0
Injected packet rate average = 0.00928125
	minimum = 0.006 (at node 12)
	maximum = 0.0125 (at node 10)
Accepted packet rate average = 0.00934375
	minimum = 0.006 (at node 3)
	maximum = 0.0125 (at node 1)
Injected flit rate average = 0.00928125
	minimum = 0.006 (at node 12)
	maximum = 0.0125 (at node 10)
Accepted flit rate average= 0.00934375
	minimum = 0.006 (at node 3)
	maximum = 0.0125 (at node 1)
Injected packet length average = 1
Accepted packet length average = 1
Total in-flight flits = 2 (2 measured)
latency change    = 0.000360137
throughput change = 0.157191
Class 0:
Packet latency average = 19.1724
	minimum = 7
	maximum = 37
Network latency average = 19.1724
	minimum = 7
	maximum = 37
Slowest packet = 10188
Flit latency average = 19.2437
	minimum = 7
	maximum = 37
Slowest flit = 10182
Fragmentation average = 0
	minimum = 0
	maximum = 0
Injected packet rate average = 0.00910417
	minimum = 0.00633333 (at node 12)
	maximum = 0.0123333 (at node 10)
Accepted packet rate average = 0.00914583
	minimum = 0.00633333 (at node 3)
	maximum = 0.0123333 (at node 10)
Injected flit rate average = 0.00910417
	minimum = 0.00633333 (at node 12)
	maximum = 0.0123333 (at node 10)
Accepted flit rate average= 0.00914583
	minimum = 0.00633333 (at node 3)
	maximum = 0.0123333 (at node 10)
Injected packet length average = 1
Accepted packet length average = 1
Total in-flight flits = 2 (2 measured)
latency change    = 0.00603585
throughput change = 0.0216401
Class 0:
Packet latency average = 19.1154
	minimum = 7
	maximum = 37
Network latency average = 19.1154
	minimum = 7
	maximum = 37
Slowest packet = 10188
Flit latency average = 19.1678
	minimum = 7
	maximum = 37
Slowest flit = 10182
Fragmentation average = 0
	minimum = 0
	maximum = 0
Injected packet rate average = 0.00942187
	minimum = 0.00575 (at node 12)
	maximum = 0.01275 (at node 10)
Accepted packet rate average = 0.00940625
	minimum = 0.00575 (at node 3)
	maximum = 0.01275 (at node 10)
Injected flit rate average = 0.00942187
	minimum = 0.00575 (at node 12)
	maximum = 0.01275 (at node 10)
Accepted flit rate average= 0.00940625
	minimum = 0.00575 (at node 3)
	maximum = 0.01275 (at node 10)
Injected packet length average = 1
Accepted packet length average = 1
Total in-flight flits = 5 (5 measured)
latency change    = 0.00298342
throughput change = 0.0276855
Class 0:
Packet latency average = 19.1626
	minimum = 7
	maximum = 37
Network latency average = 19.1626
	minimum = 7
	maximum = 37
Slowest packet = 10188
Flit latency average = 19.2028
	minimum = 7
	maximum = 37
Slowest flit = 10182
Fragmentation average = 0
	minimum = 0
	maximum = 0
Injected packet rate average = 0.0097375
	minimum = 0.0066 (at node 12)
	maximum = 0.0116 (at node 10)
Accepted packet rate average = 0.0097375
	minimum = 0.0064 (at node 3)
	maximum = 0.0116 (at node 10)
Injected flit rate average = 0.0097375
	minimum = 0.0066 (at node 12)
	maximum = 0.0116 (at node 10)
Accepted flit rate average= 0.0097375
	minimum = 0.0064 (at node 3)
	maximum = 0.0116 (at node 10)
Injected packet length average = 1
Accepted packet length average = 1
Total in-flight flits = 4 (4 measured)
latency change    = 0.00246293
throughput change = 0.034018
Draining all recorded packets ...
Draining remaining packets ...
Time taken is 8058 cycles
Class 0:
Packet latency average = 19.506
	minimum = 7
	maximum = 38
Network latency average = 19.506
	minimum = 7
	maximum = 38
Slowest packet = 11033
Flit latency average = 19.506
	minimum = 7
	maximum = 38
Slowest flit = 11033
Fragmentation average = 0
	minimum = 0
	maximum = 0
Injected packet rate average = 0.0105625
	minimum = 0.006 (at node 6)
	maximum = 0.016 (at node 9)
Accepted packet rate average = 0.0105
	minimum = 0.006 (at node 3)
	maximum = 0.016 (at node 6)
Injected flit rate average = 0.0105625
	minimum = 0.006 (at node 6)
	maximum = 0.016 (at node 9)
Accepted flit rate average= 0.0105
	minimum = 0.006 (at node 3)
	maximum = 0.016 (at node 6)
Injected packet length average = 1
Accepted packet length average = 1
Total in-flight flits = 1 (0 measured)
latency change    = 1
throughput change = 1
Class 0:
Packet latency average = 18.9275
	minimum = 7
	maximum = 38
Network latency average = 18.9275
	minimum = 7
	maximum = 38
Slowest packet = 11033
Flit latency average = 18.9275
	minimum = 7
	maximum = 38
Slowest flit = 11033
Fragmentation average = 0
	minimum = 0
	maximum = 0
Injected packet rate average = 0.010875
	minimum = 0.006 (at node 12)
	maximum = 0.018 (at node 9)
Accepted packet rate average = 0.0107812
	minimum = 0.006 (at node 3)
	maximum = 0.018 (at node 6)
Injected flit rate average = 0.010875
	minimum = 0.006 (at node 12)
	maximum = 0.018 (at node 9)
Accepted flit rate average= 0.0107812
	minimum = 0.006 (at node 3)
	maximum = 0.018 (at node 6)
Injected packet length average = 1
Accepted packet length average = 1
Total in-flight flits = 3 (0 measured)
latency change    = 0.0305595
throughput change = 0.026087
Class 0:
Packet latency average = 18.8519
	minimum = 7
	maximum = 37
Network latency average = 18.8519
	minimum = 7
	maximum = 37
Slowest packet = 11315
Flit latency average = 18.8519
	minimum = 7
	maximum = 37
Slowest flit = 11315
Fragmentation average = 0
	minimum = 0
	maximum = 0
Injected packet rate average = 0.01
	minimum = 0.004 (at node 11)
	maximum = 0.015 (at node 1)
Accepted packet rate average = 0.010125
	minimum = 0.004 (at node 14)
	maximum = 0.015 (at node 4)
Injected flit rate average = 0.01
	minimum = 0.004 (at node 11)
	maximum = 0.015 (at node 1)
Accepted flit rate average= 0.010125
	minimum = 0.004 (at node 14)
	maximum = 0.015 (at node 4)
Injected packet length average = 1
Accepted packet length average = 1
Total in-flight flits = 1 (0 measured)
latency change    = 0.00401469
throughput change = 0.0648148
Warmed up ...Time used is 3000 cycles
Class 0:
Packet latency average = 20.4041
	minimum = 7
	maximum = 44
Network latency average = 20.4041
	minimum = 7
	maximum = 44
Slowest packet = 11562
Flit latency average = 20.449
	minimum = 7
	maximum = 44
Slowest flit = 11562
Fragmentation average = 0
	minimum = 0
	maximum = 0
Injected packet rate average = 0.0093125
	minimum = 0.004 (at node 11)
	maximum = 0.014 (at node 13)
Accepted packet rate average = 0.0091875
	minimum = 0.004 (at node 14)
	maximum = 0.014 (at node 7)
Injected flit rate average = 0.0093125
	minimum = 0.004 (at node 11)
	maximum = 0.014 (at node 13)
Accepted flit rate average= 0.0091875
	minimum = 0.004 (at node 14)
	maximum = 0.014 (at node 7)
Injected packet length average = 1
Accepted packet length average = 1
Total in-flight flits = 3 (3 measured)
latency change    = 0.0760757
throughput change = 0.102041
Class 0:
Packet latency average = 20.6293
	minimum = 7
	maximum = 44
Network latency average = 20.6293
	minimum = 7
	maximum = 44
Slowest packet = 11562
Flit latency average = 20.6508
	minimum = 7
	maximum = 44
Slowest flit = 11562
Fragmentation average = 0
	minimum = 0
	maximum = 0
Injected packet rate average = 0.0093125
	minimum = 0.004 (at node 5)
	maximum = 0.014 (at node 12)
Accepted packet rate average = 0.00921875
	minimum = 0.004 (at node 5)
	maximum = 0.014 (at node 3)
Injected flit rate average = 0.0093125
	minimum = 0.004 (at node 5)
	maximum = 0.014 (at node 12)
Accepted flit rate average= 0.00921875
	minimum = 0.004 (at node 5)
	maximum = 0.014 (at node 3)
Injected packet length average = 1
Accepted packet length average = 1
Total in-flight flits = 4 (4 measured)
latency change    = 0.0109137
throughput change = 0.00338983
Class 0:
Packet latency average = 20.1441
	minimum = 7
	maximum = 44
Network latency average = 20.1441
	minimum = 7
	maximum = 44
Slowest packet = 11562
Flit latency average = 20.1593
	minimum = 7
	maximum = 44
Slowest flit = 11562
Fragmentation average = 0
	minimum = 0
	maximum = 0
Injected packet rate average = 0.0095
	minimum = 0.005 (at node 11)
	maximum = 0.0126667 (at node 6)
Accepted packet rate average = 0.00941667
	minimum = 0.005 (at node 14)
	maximum = 0.0126667 (at node 9)
Injected flit rate average = 0.0095
	minimum = 0.005 (at node 11)
	maximum = 0.0126667 (at node 6)
Accepted flit rate average= 0.00941667
	minimum = 0.005 (at node 14)
	maximum = 0.0126667 (at node 9)
Injected packet length average = 1
Accepted packet length average = 1
Total in-flight flits = 5 (5 measured)
latency change    = 0.0240828
throughput change = 0.0210177
Class 0:
Packet latency average = 20.2237
	minimum = 7
	maximum = 44
Network latency average = 20.2237
	minimum = 7
	maximum = 44
Slowest packet = 11562
Flit latency average = 20.2346
	minimum = 7
	maximum = 44
Slowest flit = 11562
Fragmentation average = 0
	minimum = 0
	maximum = 0
Injected packet rate average = 0.00965625
	minimum = 0.00625 (at node 11)
	maximum = 0.01375 (at node 12)
Accepted packet rate average = 0.00965625
	minimum = 0.00625 (at node 14)
	maximum = 0.01375 (at node 3)
Injected flit rate average = 0.00965625
	minimum = 0.00625 (at node 11)
	maximum = 0.01375 (at node 12)
Accepted flit rate average= 0.00965625
	minimum = 0.00625 (at node 14)
	maximum = 0.01375 (at node 3)
Injected packet length average = 1
Accepted packet length average = 1
Total in-flight flits = 1 (1 measured)
latency change    = 0.00393295
throughput change = 0.0248112
Draining all recorded packets ...
Draining remaining packets ...
Time taken is 7019 cycles
Class 0:
Packet latency average = 19.8514
	minimum = 7
	maximum = 37
Network latency average = 19.8514
	minimum = 7
	maximum = 37
Slowest packet = 12098
Flit latency average = 19.8514
	minimum = 7
	maximum = 37
Slowest flit = 12098
Fragmentation average = 0
	minimum = 0
	maximum = 0
Injected packet rate average = 0.0094375
	minimum = 0.004 (at node 0)
	maximum = 0.015 (at node 4)
Accepted packet rate average = 0.00925
	minimum = 0.003 (at node 0)
	maximum = 0.014 (at node 1)
Injected flit rate average = 0.0094375
	minimum = 0.004 (at node 0)
	maximum = 0.015 (at node 4)
Accepted flit rate average= 0.00925
	minimum = 0.003 (at node 0)
	maximum = 0.014 (at node 1)
Injected packet length average = 1
Accepted packet length average = 1
Total in-flight flits = 3 (0 measured)
latency change    = 1
throughput change = 1
Class 0:
Packet latency average = 18.9379
	minimum = 7
	maximum = 37
Network latency average = 18.9379
	minimum = 7
	maximum = 37
Slowest packet = 12098
Flit latency average = 18.9379
	minimum = 7
	maximum = 37
Slowest flit = 12098
Fragmentation average = 0
	minimum = 0
	maximum = 0
Injected packet rate average = 0.009625
	minimum = 0.007 (at node 8)
	maximum = 0.014 (at node 4)
Accepted packet rate average = 0.0095625
	minimum = 0.0065 (at node 3)
	maximum = 0.014 (at node 1)
Injected flit rate average = 0.009625
	minimum = 0.007 (at node 8)
	maximum = 0.014 (at node 4)
Accepted flit rate average= 0.0095625
	minimum = 0.0065 (at node 3)
	maximum = 0.014 (at node 1)
Injected packet length average = 1
Accepted packet length average = 1
Total in-flight flits = 2 (0 measured)
latency change    = 0.0482336
throughput change = 0.0326797
Class 0:
Packet latency average = 18.6352
	minimum = 7
	maximum = 46
Network latency average = 18.6352
	minimum = 7
	maximum = 46
Slowest packet = 12508
Flit latency average = 18.6352
	minimum = 7
	maximum = 46
Slowest flit = 12508
Fragmentation average = 0
	minimum = 0
	maximum = 0
Injected packet rate average = 0.0100625
	minimum = 0.006 (at node 4)
	maximum = 0.018 (at node 15)
Accepted packet rate average = 0.0099375
	minimum = 0.006 (at node 1)
	maximum = 0.017 (at node 15)
Injected flit rate average = 0.0100625
	minimum = 0.006 (at node 4)
	maximum = 0.018 (at node 15)
Accepted flit rate average= 0.0099375
	minimum = 0.006 (at node 1)
	maximum = 0.017 (at node 15)
Injected packet length average = 1
Accepted packet length average = 1
Total in-flight flits = 4 (0 measured)
latency change    = 0.0162428
throughput change = 0.0377358
Warmed up ...Time used is 3000 cycles
Class 0:
Packet latency average = 20.875
	minimum = 7
	maximum = 38
Network latency average = 20.875
	minimum = 7
	maximum = 38
Slowest packet = 12692
Flit latency average = 20.9593
	minimum = 7
	maximum = 38
Slowest flit = 12692
Fragmentation average = 0
	minimum = 0
	maximum = 0
Injected packet rate average = 0.010875
	minimum = 0.007 (at node 9)
	maximum = 0.016 (at node 3)
Accepted packet rate average = 0.01075
	minimum = 0.007 (at node 6)
	maximum = 0.017 (at node 12)
Injected flit rate average = 0.010875
	minimum = 0.007 (at node 9)
	maximum = 0.016 (at node 3)
Accepted flit rate average= 0.01075
	minimum = 0.007 (at node 6)
	maximum = 0.017 (at node 12)
Injected packet length average = 1
Accepted packet length average = 1
Total in-flight flits = 6 (6 measured)
latency change    = 0.107295
throughput change = 0.0755814
Class 0:
Packet latency average = 20.8299
	minimum = 7
	maximum = 40
Network latency average = 20.8299
	minimum = 7
	maximum = 40
Slowest packet = 12815
Flit latency average = 20.8725
	minimum = 7
	maximum = 40
Slowest flit = 12815
Fragmentation average = 0
	minimum = 0
	maximum = 0
Injected packet rate average = 0.0107812
	minimum = 0.008 (at node 10)
	maximum = 0.016 (at node 12)
Accepted packet rate average = 0.0107812
	minimum = 0.008 (at node 10)
	maximum = 0.016 (at node 3)
Injected flit rate average = 0.0107812
	minimum = 0.008 (at node 10)
	maximum = 0.016 (at node 12)
Accepted flit rate average= 0.0107812
	minimum = 0.008 (at node 10)
	maximum = 0.016 (at node 3)
Injected packet length average = 1
Accepted packet length average = 1
Total in-flight flits = 4 (4 measured)
latency change    = 0.00216458
throughput change = 0.00289855
Class 0:
Packet latency average = 20.7947
	minimum = 7
	maximum = 40
Network latency average = 20.7947
	minimum = 7
	maximum = 40
Slowest packet = 12815
Flit latency average = 20.8248
	minimum = 7
	maximum = 40
Slowest flit = 12815
Fragmentation average = 0
	minimum = 0
	maximum = 0
Injected packet rate average = 0.0102083
	minimum = 0.00766667 (at node 10)
	maximum = 0.0153333 (at node 12)
Accepted packet rate average = 0.0102292
	minimum = 0.00733333 (at node 11)
	maximum = 0.0153333 (at node 3)
Injected flit rate average = 0.0102083
	minimum = 0.00766667 (at node 10)
	maximum = 0.0153333 (at node 12)
Accepted flit rate average= 0.0102292
	minimum = 0.00733333 (at node 11)
	maximum = 0.0153333 (at node 3)
Injected packet length average = 1
Accepted packet length average = 1
Total in-flight flits = 3 (3 measured)
latency change    = 0.00169519
throughput change = 0.0539715
Class 0:
Packet latency average = 20.4067
	minimum = 7
	maximum = 40
Network latency average = 20.4067
	minimum = 7
	maximum = 40
Slowest packet = 12815
Flit latency average = 20.4316
	minimum = 7
	maximum = 40
Slowest flit = 12815
Fragmentation average = 0
	minimum = 0
	maximum = 0
Injected packet rate average = 0.01025
	minimum = 0.00775 (at node 10)
	maximum = 0.01375 (at node 12)
Accepted packet rate average = 0.0102813
	minimum = 0.00775 (at node 10)
	maximum = 0.01375 (at node 3)
Injected flit rate average = 0.01025
	minimum = 0.00775 (at node 10)
	maximum = 0.01375 (at node 12)
Accepted flit rate average= 0.0102813
	minimum = 0.00775 (at node 10)
	maximum = 0.01375 (at node 3)
Injected packet length average = 1
Accepted packet length average = 1
Total in-flight flits = 2 (2 measured)
latency change    = 0.0190101
throughput change = 0.00506586
Class 0:
Packet latency average = 20.3966
	minimum = 7
	maximum = 40
Network latency average = 20.3966
	minimum = 7
	maximum = 40
Slowest packet = 12815
Flit latency average = 20.4167
	minimum = 7
	maximum = 40
Slowest flit = 12815
Fragmentation average = 0
	minimum = 0
	maximum = 0
Injected packet rate average = 0.0102
	minimum = 0.0078 (at node 14)
	maximum = 0.0132 (at node 12)
Accepted packet rate average = 0.0102
	minimum = 0.0076 (at node 11)
	maximum = 0.013 (at node 3)
Injected flit rate average = 0.0102
	minimum = 0.0078 (at node 14)
	maximum = 0.0132 (at node 12)
Accepted flit rate average= 0.0102
	minimum = 0.0076 (at node 11)
	maximum = 0.013 (at node 3)
Injected packet length average = 1
Accepted packet length average = 1
Total in-flight flits = 4 (4 measured)
latency change    = 0.000498913
throughput change = 0.00796569
Class 0:
Packet latency average = 20.0642
	minimum = 7
	maximum = 40
Network latency average = 20.0642
	minimum = 7
	maximum = 40
Slowest packet = 12815
Flit latency average = 20.0822
	minimum = 7
	maximum = 40
Slowest flit = 12815
Fragmentation average = 0
	minimum = 0
	maximum = 0
Injected packet rate average = 0.0102813
	minimum = 0.00816667 (at node 10)
	maximum = 0.0123333 (at node 11)
Accepted packet rate average = 0.0102708
	minimum = 0.00816667 (at node 10)
	maximum = 0.0123333 (at node 14)
Injected flit rate average = 0.0102813
	minimum = 0.00816667 (at node 10)
	maximum = 0.0123333 (at node 11)
Accepted flit rate average= 0.0102708
	minimum = 0.00816667 (at node 10)
	maximum = 0.0123333 (at node 14)
Injected packet length average = 1
Accepted packet length average = 1
Total in-flight flits = 5 (5 measured)
latency change    = 0.0165667
throughput change = 0.00689655
Draining all recorded packets ...
Draining remaining packets ...
Time taken is 9049 cycles
Class 0:
Packet latency average = 20.2911
	minimum = 7
	maximum = 37
Network latency average = 20.2911
	minimum = 7
	maximum = 37
Slowest packet = 13563
Flit latency average = 20.2911
	minimum = 7
	maximum = 37
Slowest flit = 13563
Fragmentation average = 0
	minimum = 0
	maximum = 0
Injected packet rate average = 0.0103125
	minimum = 0.005 (at node 0)
	maximum = 0.016 (at node 2)
Accepted packet rate average = 0.009875
	minimum = 0.005 (at node 0)
	maximum = 0.016 (at node 1)
Injected flit rate average = 0.0103125
	minimum = 0.005 (at node 0)
	maximum = 0.016 (at node 2)
Accepted flit rate average= 0.009875
	minimum = 0.005 (at node 0)
	maximum = 0.016 (at node 1)
Injected packet length average = 1
Accepted packet length average = 1
Total in-flight flits = 7 (0 measured)
latency change    = 1
throughput change = 1
Class 0:
Packet latency average = 19.9823
	minimum = 7
	maximum = 37
Network latency average = 19.9823
	minimum = 7
	maximum = 37
Slowest packet = 13563
Flit latency average = 19.9823
	minimum = 7
	maximum = 37
Slowest flit = 13563
Fragmentation average = 0
	minimum = 0
	maximum = 0
Injected packet rate average = 0.0107188
	minimum = 0.0075 (at node 1)
	maximum = 0.016 (at node 2)
Accepted packet rate average = 0.0105938
	minimum = 0.0075 (at node 4)
	maximum = 0.016 (at node 8)
Injected flit rate average = 0.0107188
	minimum = 0.0075 (at node 1)
	maximum = 0.016 (at node 2)
Accepted flit rate average= 0.0105938
	minimum = 0.0075 (at node 4)
	maximum = 0.016 (at node 8)
Injected packet length average = 1
Accepted packet length average = 1
Total in-flight flits = 4 (0 measured)
latency change    = 0.0154556
throughput change = 0.0678466
Class 0:
Packet latency average = 19.8851
	minimum = 7
	maximum = 38
Network latency average = 19.8851
	minimum = 7
	maximum = 38
Slowest packet = 13986
Flit latency average = 19.8851
	minimum = 7
	maximum = 38
Slowest flit = 13986
Fragmentation average = 0
	minimum = 0
	maximum = 0
Injected packet rate average = 0.0091875
	minimum = 0.004 (at node 12)
	maximum = 0.016 (at node 6)
Accepted packet rate average = 0.00925
	minimum = 0.004 (at node 15)
	maximum = 0.016 (at node 9)
Injected flit rate average = 0.0091875
	minimum = 0.004 (at node 12)
	maximum = 0.016 (at node 6)
Accepted flit rate average= 0.00925
	minimum = 0.004 (at node 15)
	maximum = 0.016 (at node 9)
Injected packet length average = 1
Accepted packet length average = 1
Total in-flight flits = 3 (0 measured)
latency change    = 0.00488635
throughput change = 0.14527
Warmed up ...Time used is 3000 cycles
Class 0:
Packet latency average = 18.2667
	minimum = 7
	maximum = 37
Network latency average = 18.2667
	minimum = 7
	maximum = 37
Slowest packet = 14055
Flit latency average = 18.4379
	minimum = 7
	maximum = 37
Slowest flit = 14044
Fragmentation average = 0
	minimum = 0
	maximum = 0
Injected packet rate average = 0.0096875
	minimum = 0.005 (at node 6)
	maximum = 0.017 (at node 5)
Accepted packet rate average = 0.0095625
	minimum = 0.005 (at node 9)
	maximum = 0.016 (at node 5)
Injected flit rate average = 0.0096875
	minimum = 0.005 (at node 6)
	maximum = 0.017 (at node 5)
Accepted flit rate average= 0.0095625
	minimum = 0.005 (at node 9)
	maximum = 0.016 (at node 5)
Injected packet length average = 1
Accepted packet length average = 1
Total in-flight flits = 5 (5 measured)
latency change    = 0.0886023
throughput change = 0.0326797
Class 0:
Packet latency average = 19.183
	minimum = 7
	maximum = 37
Network latency average = 19.183
	minimum = 7
	maximum = 37
Slowest packet = 14055
Flit latency average = 19.2563
	minimum = 7
	maximum = 37
Slowest flit = 14044
Fragmentation average = 0
	minimum = 0
	maximum = 0
Injected packet rate average = 0.00996875
	minimum = 0.007 (at node 2)
	maximum = 0.012 (at node 3)
Accepted packet rate average = 0.01
	minimum = 0.007 (at node 8)
	maximum = 0.0125 (at node 12)
Injected flit rate average = 0.00996875
	minimum = 0.007 (at node 2)
	maximum = 0.012 (at node 3)
Accepted flit rate average= 0.01
	minimum = 0.007 (at node 8)
	maximum = 0.0125 (at node 12)
Injected packet length average = 1
Accepted packet length average = 1
Total in-flight flits = 2 (2 measured)
latency change    = 0.0477663
throughput change = 0.04375
Class 0:
Packet latency average = 19.279
	minimum = 7
	maximum = 37
Network latency average = 19.279
	minimum = 7
	maximum = 37
Slowest packet = 14055
Flit latency average = 19.3284
	minimum = 7
	maximum = 37
Slowest flit = 14044
Fragmentation average = 0
	minimum = 0
	maximum = 0
Injected packet rate average = 0.00970833
	minimum = 0.00666667 (at node 6)
	maximum = 0.0146667 (at node 8)
Accepted packet rate average = 0.00977083
	minimum = 0.00666667 (at node 9)
	maximum = 0.0146667 (at node 2)
Injected flit rate average = 0.00970833
	minimum = 0.00666667 (at node 6)
	maximum = 0.0146667 (at node 8)
Accepted flit rate average= 0.00977083
	minimum = 0.00666667 (at node 9)
	maximum = 0.0146667 (at node 2)
Injected packet length average = 1
Accepted packet length average = 1
Total in-flight flits = 0 (0 measured)
latency change    = 0.00497976
throughput change = 0.0234542
Class 0:
Packet latency average = 19.8482
	minimum = 7
	maximum = 37
Network latency average = 19.8482
	minimum = 7
	maximum = 37
Slowest packet = 14055
Flit latency average = 19.8824
	minimum = 7
	maximum = 37
Slowest flit = 14044
Fragmentation average = 0
	minimum = 0
	maximum = 0
Injected packet rate average = 0.00989063
	minimum = 0.00775 (at node 6)
	maximum = 0.014 (at node 8)
Accepted packet rate average = 0.00982813
	minimum = 0.00725 (at node 9)
	maximum = 0.014 (at node 2)
Injected flit rate average = 0.00989063
	minimum = 0.00775 (at node 6)
	maximum = 0.014 (at node 8)
Accepted flit rate average= 0.00982813
	minimum = 0.00725 (at node 9)
	maximum = 0.014 (at node 2)
Injected packet length average = 1
Accepted packet length average = 1
Total in-flight flits = 7 (7 measured)
latency change    = 0.0286813
throughput change = 0.00582936
Draining all recorded packets ...
[...]
	minimum = 0.00666667 (at node 15)
	maximum = 0.0133333 (at node 8)
Accepted packet rate average = 0.00920833
	minimum = 0.00666667 (at node 15)
	maximum = 0.013 (at node 2)
Injected flit rate average = 0.00920833
	minimum = 0.00666667 (at node 15)
	maximum = 0.0133333 (at node 8)
Accepted flit rate average= 0.00920833
	minimum = 0.00666667 (at node 15)
	maximum = 0.013 (at node 2)
Injected packet length average = 1
Accepted packet length average = 1
Total in-flight flits = 2 (2 measured)
latency change    = 0.00759978
throughput change = 0.0113122
Class 0:
Packet latency average = 19.4072
	minimum = 7
	maximum = 38
Network latency average = 19.4072
	minimum = 7
	maximum = 38
Slowest packet = 120405
Flit latency average = 19.416
	minimum = 7
	maximum = 38
Slowest flit = 120405
Fragmentation average = 0
	minimum = 0
	maximum = 0
Injected packet rate average = 0.00921875
	minimum = 0.0065 (at node 9)
	maximum = 0.01375 (at node 11)
Accepted packet rate average = 0.00920312
	minimum = 0.0065 (at node 6)
	maximum = 0.01375 (at node 14)
Injected flit rate average = 0.00921875
	minimum = 0.0065 (at node 9)
	maximum = 0.01375 (at node 11)
Accepted flit rate average= 0.00920312
	minimum = 0.0065 (at node 6)
	maximum = 0.01375 (at node 14)
Injected packet length average = 1
Accepted packet length average = 1
Total in-flight flits = 3 (3 measured)
latency change    = 0.00618935
throughput change = 0.000565931
Class 0:
Packet latency average = 19.4628
	minimum = 7
	maximum = 38
Network latency average = 19.4628
	minimum = 7
	maximum = 38
Slowest packet = 120405
Flit latency average = 19.4696
	minimum = 7
	maximum = 38
Slowest flit = 120405
Fragmentation average = 0
	minimum = 0
	maximum = 0
Injected packet rate average = 0.0092875
	minimum = 0.0074 (at node 9)
	maximum = 0.013 (at node 11)
Accepted packet rate average = 0.0092625
	minimum = 0.0074 (at node 6)
	maximum = 0.013 (at node 14)
Injected flit rate average = 0.0092875
	minimum = 0.0074 (at node 9)
	maximum = 0.013 (at node 11)
Accepted flit rate average= 0.0092625
	minimum = 0.0074 (at node 6)
	maximum = 0.013 (at node 14)
Injected packet length average = 1
Accepted packet length average = 1
Total in-flight flits = 4 (4 measured)
latency change    = 0.0028584
throughput change = 0.00641026
Draining all recorded packets ...
Draining remaining packets ...
Time taken is 8032 cycles
Class 0:
Packet latency average = 19.741
	minimum = 7
	maximum = 37
Network latency average = 19.741
	minimum = 7
	maximum = 37
Slowest packet = 120956
Flit latency average = 19.741
	minimum = 7
	maximum = 37
Slowest flit = 120956
Fragmentation average = 0
	minimum = 0
	maximum = 0
Injected packet rate average = 0.0088125
	minimum = 0.004 (at node 8)
	maximum = 0.013 (at node 4)
Accepted packet rate average = 0.0086875
	minimum = 0.004 (at node 2)
	maximum = 0.013 (at node 1)
Injected flit rate average = 0.0088125
	minimum = 0.004 (at node 8)
	maximum = 0.013 (at node 4)
Accepted flit rate average= 0.0086875
	minimum = 0.004 (at node 2)
	maximum = 0.013 (at node 1)
Injected packet length average = 1
Accepted packet length average = 1
Total in-flight flits = 2 (0 measured)
latency change    = 1
throughput change = 1
Class 0:
Packet latency average = 19.6523
	minimum = 7
	maximum = 37
Network latency average = 19.6523
	minimum = 7
	maximum = 37
Slowest packet = 120956
Flit latency average = 19.6523
	minimum = 7
	maximum = 37
Slowest flit = 120956
Fragmentation average = 0
	minimum = 0
	maximum = 0
Injected packet rate average = 0.00953125
	minimum = 0.006 (at node 8)
	maximum = 0.014 (at node 14)
Accepted packet rate average = 0.0094375
	minimum = 0.006 (at node 2)
	maximum = 0.014 (at node 11)
Injected flit rate average = 0.00953125
	minimum = 0.006 (at node 8)
	maximum = 0.014 (at node 14)
Accepted flit rate average= 0.0094375
	minimum = 0.006 (at node 2)
	maximum = 0.014 (at node 11)
Injected packet length average = 1
Accepted packet length average = 1
Total in-flight flits = 3 (0 measured)
latency change    = 0.00451292
throughput change = 0.0794702
Class 0:
Packet latency average = 20.3772
	minimum = 7
	maximum = 41
Network latency average = 20.3772
	minimum = 7
	maximum = 41
Slowest packet = 121413
Flit latency average = 20.3772
	minimum = 7
	maximum = 41
Slowest flit = 121413
Fragmentation average = 0
	minimum = 0
	maximum = 0
Injected packet rate average = 0.010375
	minimum = 0.005 (at node 0)
	maximum = 0.016 (at node 10)
Accepted packet rate average = 0.0104375
	minimum = 0.006 (at node 0)
	maximum = 0.016 (at node 7)
Injected flit rate average = 0.010375
	minimum = 0.005 (at node 0)
	maximum = 0.016 (at node 10)
Accepted flit rate average= 0.0104375
	minimum = 0.006 (at node 0)
	maximum = 0.016 (at node 7)
Injected packet length average = 1
Accepted packet length average = 1
Total in-flight flits = 2 (0 measured)
latency change    = 0.0355753
throughput change = 0.0958084
Warmed up ...Time used is 3000 cycles
Class 0:
Packet latency average = 19.0946
	minimum = 7
	maximum = 37
Network latency average = 19.0946
	minimum = 7
	maximum = 37
Slowest packet = 121433
Flit latency average = 19.1333
	minimum = 7
	maximum = 37
Slowest flit = 121433
Fragmentation average = 0
	minimum = 0
	maximum = 0
Injected packet rate average = 0.0093125
	minimum = 0.003 (at node 7)
	maximum = 0.013 (at node 5)
Accepted packet rate average = 0.009375
	minimum = 0.003 (at node 13)
	maximum = 0.013 (at node 5)
Injected flit rate average = 0.0093125
	minimum = 0.003 (at node 7)
	maximum = 0.013 (at node 5)
Accepted flit rate average= 0.009375
	minimum = 0.003 (at node 13)
	maximum = 0.013 (at node 5)
Injected packet length average = 1
Accepted packet length average = 1
Total in-flight flits = 1 (1 measured)
latency change    = 0.0671735
throughput change = 0.113333
Class 0:
Packet latency average = 19.429
	minimum = 7
	maximum = 37
Network latency average = 19.429
	minimum = 7
	maximum = 37
Slowest packet = 121433
Flit latency average = 19.4459
	minimum = 7
	maximum = 37
Slowest flit = 121433
Fragmentation average = 0
	minimum = 0
	maximum = 0
Injected packet rate average = 0.00959375
	minimum = 0.0055 (at node 7)
	maximum = 0.0115 (at node 5)
Accepted packet rate average = 0.00953125
	minimum = 0.0055 (at node 13)
	maximum = 0.0115 (at node 3)
Injected flit rate average = 0.00959375
	minimum = 0.0055 (at node 7)
	maximum = 0.0115 (at node 5)
Accepted flit rate average= 0.00953125
	minimum = 0.0055 (at node 13)
	maximum = 0.0115 (at node 3)
Injected packet length average = 1
Accepted packet length average = 1
Total in-flight flits = 4 (4 measured)
latency change    = 0.0172138
throughput change = 0.0163934
Class 0:
Packet latency average = 19.2277
	minimum = 7
	maximum = 37
Network latency average = 19.2277
	minimum = 7
	maximum = 37
Slowest packet = 121433
Flit latency average = 19.2392
	minimum = 7
	maximum = 37
Slowest flit = 121433
Fragmentation average = 0
	minimum = 0
	maximum = 0
Injected packet rate average = 0.0100833
	minimum = 0.00666667 (at node 7)
	maximum = 0.012 (at node 4)
Accepted packet rate average = 0.0101042
	minimum = 0.00666667 (at node 13)
	maximum = 0.0123333 (at node 1)
Injected flit rate average = 0.0100833
	minimum = 0.00666667 (at node 7)
	maximum = 0.012 (at node 4)
Accepted flit rate average= 0.0101042
	minimum = 0.00666667 (at node 13)
	maximum = 0.0123333 (at node 1)
Injected packet length average = 1
Accepted packet length average = 1
Total in-flight flits = 1 (1 measured)
latency change    = 0.0104692
throughput change = 0.056701
Class 0:
Packet latency average = 19.0292
	minimum = 7
	maximum = 37
Network latency average = 19.0292
	minimum = 7
	maximum = 37
Slowest packet = 121433
Flit latency average = 19.0383
	minimum = 7
	maximum = 37
Slowest flit = 121433
Fragmentation average = 0
	minimum = 0
	maximum = 0
Injected packet rate average = 0.0102188
	minimum = 0.006 (at node 7)
	maximum = 0.01275 (at node 4)
Accepted packet rate average = 0.0101875
	minimum = 0.006 (at node 13)
	maximum = 0.01275 (at node 1)
Injected flit rate average = 0.0102188
	minimum = 0.006 (at node 7)
	maximum = 0.01275 (at node 4)
Accepted flit rate average= 0.0101875
	minimum = 0.006 (at node 13)
	maximum = 0.01275 (at node 1)
Injected packet length average = 1
Accepted packet length average = 1
Total in-flight flits = 4 (4 measured)
latency change    = 0.010432
throughput change = 0.00817996
Class 0:
Packet latency average = 19.0752
	minimum = 7
	maximum = 37
Network latency average = 19.0752
	minimum = 7
	maximum = 37
Slowest packet = 121433
Flit latency average = 19.0826
	minimum = 7
	maximum = 37
Slowest flit = 121433
Fragmentation average = 0
	minimum = 0
	maximum = 0
Injected packet rate average = 0.00985
	minimum = 0.0058 (at node 7)
	maximum = 0.012 (at node 15)
Accepted packet rate average = 0.0098375
	minimum = 0.0058 (at node 13)
	maximum = 0.012 (at node 15)
Injected flit rate average = 0.00985
	minimum = 0.0058 (at node 7)
	maximum = 0.012 (at node 15)
Accepted flit rate average= 0.0098375
	minimum = 0.0058 (at node 13)
	maximum = 0.012 (at node 15)
Injected packet length average = 1
Accepted packet length average = 1
Total in-flight flits = 3 (3 measured)
latency change    = 0.00240776
throughput change = 0.0355781
Class 0:
Packet latency average = 19.2226
	minimum = 7
	maximum = 38
Network latency average = 19.2226
	minimum = 7
	maximum = 38
Slowest packet = 122277
Flit latency average = 19.2284
	minimum = 7
	maximum = 38
Slowest flit = 122277
Fragmentation average = 0
	minimum = 0
	maximum = 0
Injected packet rate average = 0.00990625
	minimum = 0.00666667 (at node 7)
	maximum = 0.0118333 (at node 13)
Accepted packet rate average = 0.00989583
	minimum = 0.0065 (at node 13)
	maximum = 0.0118333 (at node 7)
Injected flit rate average = 0.00990625
	minimum = 0.00666667 (at node 7)
	maximum = 0.0118333 (at node 13)
Accepted flit rate average= 0.00989583
	minimum = 0.0065 (at node 13)
	maximum = 0.0118333 (at node 7)
Injected packet length average = 1
Accepted packet length average = 1
Total in-flight flits = 3 (3 measured)
latency change    = 0.00766883
throughput change = 0.00589474
Draining all recorded packets ...
Draining remaining packets ...
Time taken is 9055 cycles
Class 0:
Packet latency average = 20.9145
	minimum = 7
	maximum = 42
Network latency average = 20.9145
	minimum = 7
	maximum = 42
Slowest packet = 122488
Flit latency average = 20.9145
	minimum = 7
	maximum = 42
Slowest flit = 122488
Fragmentation average = 0
	minimum = 0
	maximum = 0
Injected packet rate average = 0.0075625
	minimum = 0.005 (at node 4)
	maximum = 0.014 (at node 1)
Accepted packet rate average = 0.0073125
	minimum = 0.005 (at node 1)
	maximum = 0.012 (at node 3)
Injected flit rate average = 0.0075625
	minimum = 0.005 (at node 4)
	maximum = 0.014 (at node 1)
Accepted flit rate average= 0.0073125
	minimum = 0.005 (at node 1)
	maximum = 0.012 (at node 3)
Injected packet length average = 1
Accepted packet length average = 1
Total in-flight flits = 4 (0 measured)
latency change    = 1
throughput change = 1
Class 0:
Packet latency average = 19.8051
	minimum = 7
	maximum = 42
Network latency average = 19.8051
	minimum = 7
	maximum = 42
Slowest packet = 122488
Flit latency average = 19.8051
	minimum = 7
	maximum = 42
Slowest flit = 122488
Fragmentation average = 0
	minimum = 0
	maximum = 0
Injected packet rate average = 0.0085
	minimum = 0.005 (at node 6)
	maximum = 0.012 (at node 1)
Accepted packet rate average = 0.0085
	minimum = 0.005 (at node 9)
	maximum = 0.012 (at node 2)
Injected flit rate average = 0.0085
	minimum = 0.005 (at node 6)
	maximum = 0.012 (at node 1)
Accepted flit rate average= 0.0085
	minimum = 0.005 (at node 9)
	maximum = 0.012 (at node 2)
Injected packet length average = 1
Accepted packet length average = 1
Total in-flight flits = 0 (0 measured)
latency change    = 0.0560149
throughput change = 0.139706
Class 0:
Packet latency average = 19.9878
	minimum = 7
	maximum = 45
Network latency average = 19.9878
	minimum = 7
	maximum = 45
Slowest packet = 122796
Flit latency average = 19.9878
	minimum = 7
	maximum = 45
Slowest flit = 122796
Fragmentation average = 0
	minimum = 0
	maximum = 0
Injected packet rate average = 0.010625
	minimum = 0.007 (at node 13)
	maximum = 0.017 (at node 12)
Accepted packet rate average = 0.01025
	minimum = 0.007 (at node 7)
	maximum = 0.015 (at node 3)
Injected flit rate average = 0.010625
	minimum = 0.007 (at node 13)
	maximum = 0.017 (at node 12)
Accepted flit rate average= 0.01025
	minimum = 0.007 (at node 7)
	maximum = 0.015 (at node 3)
Injected packet length average = 1
Accepted packet length average = 1
Total in-flight flits = 6 (0 measured)
latency change    = 0.00913846
throughput change = 0.170732
Warmed up ...Time used is 3000 cycles
Class 0:
Packet latency average = 18.3906
	minimum = 7
	maximum = 43
Network latency average = 18.3906
	minimum = 7
	maximum = 43
Slowest packet = 122947
Flit latency average = 18.5505
	minimum = 7
	maximum = 43
Slowest flit = 122947
Fragmentation average = 0
	minimum = 0
	maximum = 0
Injected packet rate average = 0.0120625
	minimum = 0.007 (at node 6)
	maximum = 0.018 (at node 10)
Accepted packet rate average = 0.012375
	minimum = 0.007 (at node 9)
	maximum = 0.018 (at node 5)
Injected flit rate average = 0.0120625
	minimum = 0.007 (at node 6)
	maximum = 0.018 (at node 10)
Accepted flit rate average= 0.012375
	minimum = 0.007 (at node 9)
	maximum = 0.018 (at node 5)
Injected packet length average = 1
Accepted packet length average = 1
Total in-flight flits = 1 (1 measured)
latency change    = 0.0868475
throughput change = 0.171717
Class 0:
Packet latency average = 18.8095
	minimum = 7
	maximum = 43
Network latency average = 18.8095
	minimum = 7
	maximum = 43
Slowest packet = 122947
Flit latency average = 18.8947
	minimum = 7
	maximum = 43
Slowest flit = 122947
Fragmentation average = 0
	minimum = 0
	maximum = 0
Injected packet rate average = 0.0105938
	minimum = 0.0075 (at node 4)
	maximum = 0.015 (at node 10)
Accepted packet rate average = 0.0106875
	minimum = 0.0075 (at node 8)
	maximum = 0.015 (at node 10)
Injected flit rate average = 0.0105938
	minimum = 0.0075 (at node 4)
	maximum = 0.015 (at node 10)
Accepted flit rate average= 0.0106875
	minimum = 0.0075 (at node 8)
	maximum = 0.015 (at node 10)
Injected packet length average = 1
Accepted packet length average = 1
Total in-flight flits = 3 (3 measured)
latency change    = 0.0222706
throughput change = 0.157895
Class 0:
Packet latency average = 18.6687
	minimum = 7
	maximum = 43
Network latency average = 18.6687
	minimum = 7
	maximum = 43
Slowest packet = 122947
Flit latency average = 18.7275
	minimum = 7
	maximum = 43
Slowest flit = 122947
Fragmentation average = 0
	minimum = 0
	maximum = 0
Injected packet rate average = 0.0105417
	minimum = 0.00766667 (at node 2)
	maximum = 0.014 (at node 10)
Accepted packet rate average = 0.010625
	minimum = 0.00766667 (at node 8)
	maximum = 0.014 (at node 10)
Injected flit rate average = 0.0105417
	minimum = 0.00766667 (at node 2)
	maximum = 0.014 (at node 10)
Accepted flit rate average= 0.010625
	minimum = 0.00766667 (at node 8)
	maximum = 0.014 (at node 10)
Injected packet length average = 1
Accepted packet length average = 1
Total in-flight flits = 2 (2 measured)
latency change    = 0.00754597
throughput change = 0.00588235
Class 0:
Packet latency average = 18.8967
	minimum = 7
	maximum = 43
Network latency average = 18.8967
	minimum = 7
	maximum = 43
Slowest packet = 122947
Flit latency average = 18.9411
	minimum = 7
	maximum = 43
Slowest flit = 122947
Fragmentation average = 0
	minimum = 0
	maximum = 0
Injected packet rate average = 0.0100313
	minimum = 0.007 (at node 4)
	maximum = 0.01275 (at node 10)
Accepted packet rate average = 0.0100781
	minimum = 0.00725 (at node 8)
	maximum = 0.01275 (at node 10)
Injected flit rate average = 0.0100313
	minimum = 0.007 (at node 4)
	maximum = 0.01275 (at node 10)
Accepted flit rate average= 0.0100781
	minimum = 0.00725 (at node 8)
	maximum = 0.01275 (at node 10)
Injected packet length average = 1
Accepted packet length average = 1
Total in-flight flits = 3 (3 measured)
latency change    = 0.0120689
throughput change = 0.0542636
Class 0:
Packet latency average = 19.1018
	minimum = 7
	maximum = 43
Network latency average = 19.1018
	minimum = 7
	maximum = 43
Slowest packet = 122947
Flit latency average = 19.1359
	minimum = 7
	maximum = 43
Slowest flit = 122947
Fragmentation average = 0
	minimum = 0
	maximum = 0
Injected packet rate average = 0.009975
	minimum = 0.0072 (at node 4)
	maximum = 0.0122 (at node 10)
Accepted packet rate average = 0.010025
	minimum = 0.0076 (at node 1)
	maximum = 0.0122 (at node 10)
Injected flit rate average = 0.009975
	minimum = 0.0072 (at node 4)
	maximum = 0.0122 (at node 10)
Accepted flit rate average= 0.010025
	minimum = 0.0076 (at node 1)
	maximum = 0.0122 (at node 10)
Injected packet length average = 1
Accepted packet length average = 1
Total in-flight flits = 2 (2 measured)
latency change    = 0.0107344
throughput change = 0.00529925
Class 0:
Packet latency average = 19.1542
	minimum = 7
	maximum = 43
Network latency average = 19.1542
	minimum = 7
	maximum = 43
Slowest packet = 122947
Flit latency average = 19.1825
	minimum = 7
	maximum = 43
Slowest flit = 122947
Fragmentation average = 0
	minimum = 0
	maximum = 0
Injected packet rate average = 0.0099375
	minimum = 0.008 (at node 2)
	maximum = 0.0115 (at node 10)
Accepted packet rate average = 0.00998958
	minimum = 0.008 (at node 8)
	maximum = 0.0115 (at node 10)
Injected flit rate average = 0.0099375
	minimum = 0.008 (at node 2)
	maximum = 0.0115 (at node 10)
Accepted flit rate average= 0.00998958
	minimum = 0.008 (at node 8)
	maximum = 0.0115 (at node 10)
Injected packet length average = 1
Accepted packet length average = 1
Total in-flight flits = 1 (1 measured)
latency change    = 0.00274043
throughput change = 0.00354536
Class 0:
Packet latency average = 19.2284
	minimum = 7
	maximum = 44
Network latency average = 19.2284
	minimum = 7
	maximum = 44
Slowest packet = 123787
Flit latency average = 19.253
	minimum = 7
	maximum = 44
Slowest flit = 123787
Fragmentation average = 0
	minimum = 0
	maximum = 0
Injected packet rate average = 0.00964286
	minimum = 0.00785714 (at node 2)
	maximum = 0.0112857 (at node 10)
Accepted packet rate average = 0.00966964
	minimum = 0.00785714 (at node 8)
	maximum = 0.0112857 (at node 10)
Injected flit rate average = 0.00964286
	minimum = 0.00785714 (at node 2)
	maximum = 0.0112857 (at node 10)
Accepted flit rate average= 0.00966964
	minimum = 0.00785714 (at node 8)
	maximum = 0.0112857 (at node 10)
Injected packet length average = 1
Accepted packet length average = 1
Total in-flight flits = 3 (3 measured)
latency change    = 0.00385692
throughput change = 0.0330871
Draining all recorded packets ...
Draining remaining packets ...
Time taken is 10051 cycles
====== Overall Traffic Statistics ======
====== Traffic class 0 ======
Packet latency average = 19.5555 (100 samples)
	minimum = 7 (100 samples)
	maximum = 39.75 (100 samples)
Network latency average = 19.5555 (100 samples)
	minimum = 7 (100 samples)
	maximum = 39.75 (100 samples)
Flit latency average = 19.576 (100 samples)
	minimum = 7 (100 samples)
	maximum = 39.75 (100 samples)
Fragmentation average = 0 (100 samples)
	minimum = 0 (100 samples)
	maximum = 0 (100 samples)
Injected packet rate average = 0.0100106 (100 samples)
	minimum = 0.00755083 (100 samples)
	maximum = 0.0127737 (100 samples)
Accepted packet rate average = 0.0099992 (100 samples)
	minimum = 0.0075065 (100 samples)
	maximum = 0.0127229 (100 samples)
Injected flit rate average = 0.0100106 (100 samples)
	minimum = 0.00755083 (100 samples)
	maximum = 0.0127737 (100 samples)
Accepted flit rate average = 0.0099992 (100 samples)
	minimum = 0.0075065 (100 samples)
	maximum = 0.0127229 (100 samples)
Injected packet size average = 1 (100 samples)
Accepted packet size average = 1 (100 samples)
Hops average = 3.50721 (100 samples)
Total run time 9.93019
