BEGIN Configuration File: /tmp/tmpyu0uoe4b.cfg
topology = mesh;
k = 4;
n = 2;
routing_function = valiant;
num_vcs = 4;
vc_buf_size = 4;
wait_for_tail_credit = 1;
vc_allocator = islip;
sw_allocator = islip;
alloc_iters = 1;
credit_delay = 2;
routing_delay = 1;
vc_alloc_delay = 1;
sw_alloc_delay = 1;
input_speedup = 2;
output_speedup = 1;
internal_speedup = 1.0;
traffic = transpose;
packet_size = 1;
sim_type = latency;
injection_rate = 0.02;
warmup_periods = 3;
sample_period = 1000;
sim_count = 100;
seed = 1;

END Configuration File: /tmp/tmpyu0uoe4b.cfg
Class 0:
Packet latency average = 32.0789
	minimum = 7
	maximum = 68
Network latency average = 32.0789
	minimum = 7
	maximum = 68
Slowest packet = 182
Flit latency average = 32.0789
	minimum = 7
	maximum = 68
Slowest flit = 182
Fragmentation average = 0
	minimum = 0
	maximum = 0
Injected packet rate average = 0.019875
	minimum = 0.012 (at node 8)
	maximum = 0.031 (at node 0)
Accepted packet rate average = 0.019
	minimum = 0.012 (at node 2)
	maximum = 0.029 (at node 0)
Injected flit rate average = 0.019875
	minimum = 0.012 (at node 8)
	maximum = 0.031 (at node 0)
Accepted flit rate average= 0.019
	minimum = 0.012 (at node 2)
	maximum = 0.029 (at node 0)
Injected packet length average = 1
Accepted packet length average = 1
Total in-flight flits = 14 (0 measured)
latency change    = 1
throughput change = 1
Class 0:
Packet latency average = 32.3207
	minimum = 7
	maximum = 68
Network latency average = 32.3207
	minimum = 7
	maximum = 68
Slowest packet = 182
Flit latency average = 32.3207
	minimum = 7
	maximum = 68
Slowest flit = 182
Fragmentation average = 0
	minimum = 0
	maximum = 0
Injected packet rate average = 0.0201563
	minimum = 0.0155 (at node 2)
	maximum = 0.025 (at node 0)
Accepted packet rate average = 0.0197813
	minimum = 0.015 (at node 8)
	maximum = 0.025 (at node 0)
Injected flit rate average = 0.0201563
	minimum = 0.0155 (at node 2)
	maximum = 0.025 (at node 0)
Accepted flit rate average= 0.0197813
	minimum = 0.015 (at node 8)
	maximum = 0.025 (at node 0)
Injected packet length average = 1
Accepted packet length average = 1
Total in-flight flits = 12 (0 measured)
latency change    = 0.00747966
throughput change = 0.0394945
Class 0:
Packet latency average = 31.8847
	minimum = 7
	maximum = 67
Network latency average = 31.8847
	minimum = 7
	maximum = 67
Slowest packet = 800
Flit latency average = 31.8847
	minimum = 7
	maximum = 67
Slowest flit = 800
Fragmentation average = 0
	minimum = 0
	maximum = 0
Injected packet rate average = 0.0198125
	minimum = 0.01 (at node 0)
	maximum = 0.027 (at node 14)
Accepted packet rate average = 0.0200625
	minimum = 0.01 (at node 0)
	maximum = 0.026 (at node 4)
Injected flit rate average = 0.0198125
	minimum = 0.01 (at node 0)
	maximum = 0.027 (at node 14)
Accepted flit rate average= 0.0200625
	minimum = 0.01 (at node 0)
	maximum = 0.026 (at node 4)
Injected packet length average = 1
Accepted packet length average = 1
Total in-flight flits = 8 (0 measured)
latency change    = 0.013673
throughput change = 0.0140187
Warmed up ...Time used is 3000 cycles
Class 0:
Packet latency average = 32.366
	minimum = 7
	maximum = 67
Network latency average = 32.366
	minimum = 7
	maximum = 67
Slowest packet = 1016
Flit latency average = 32.4586
	minimum = 7
	maximum = 67
Slowest flit = 1016
Fragmentation average = 0
	minimum = 0
	maximum = 0
Injected packet rate average = 0.0196875
	minimum = 0.015 (at node 0)
	maximum = 0.031 (at node 5)
Accepted packet rate average = 0.019625
	minimum = 0.014 (at node 0)
	maximum = 0.03 (at node 5)
Injected flit rate average = 0.0196875
	minimum = 0.015 (at node 0)
	maximum = 0.031 (at node 5)
Accepted flit rate average= 0.019625
	minimum = 0.014 (at node 0)
	maximum = 0.03 (at node 5)
Injected packet length average = 1
Accepted packet length average = 1
Total in-flight flits = 9 (9 measured)
latency change    = 0.0148699
throughput change = 0.022293
Class 0:
Packet latency average = 32.9294
	minimum = 7
	maximum = 67
Network latency average = 32.9294
	minimum = 7
	maximum = 67
Slowest packet = 1016
Flit latency average = 32.9674
	minimum = 7
	maximum = 67
Slowest flit = 1016
Fragmentation average = 0
	minimum = 0
	maximum = 0
Injected packet rate average = 0.0201875
	minimum = 0.0155 (at node 9)
	maximum = 0.025 (at node 5)
Accepted packet rate average = 0.0201563
	minimum = 0.0155 (at node 6)
	maximum = 0.0255 (at node 5)
Injected flit rate average = 0.0201875
	minimum = 0.0155 (at node 9)
	maximum = 0.025 (at node 5)
Accepted flit rate average= 0.0201563
	minimum = 0.0155 (at node 6)
	maximum = 0.0255 (at node 5)
Injected packet length average = 1
Accepted packet length average = 1
Total in-flight flits = 9 (9 measured)
latency change    = 0.0171076
throughput change = 0.0263566
Class 0:
Packet latency average = 32.8201
	minimum = 7
	maximum = 68
Network latency average = 32.8201
	minimum = 7
	maximum = 68
Slowest packet = 1808
Flit latency average = 32.8465
	minimum = 7
	maximum = 68
Slowest flit = 1808
Fragmentation average = 0
	minimum = 0
	maximum = 0
Injected packet rate average = 0.0203125
	minimum = 0.0176667 (at node 11)
	maximum = 0.0236667 (at node 3)
Accepted packet rate average = 0.0200833
	minimum = 0.0173333 (at node 6)
	maximum = 0.0233333 (at node 5)
Injected flit rate average = 0.0203125
	minimum = 0.0176667 (at node 11)
	maximum = 0.0236667 (at node 3)
Accepted flit rate average= 0.0200833
	minimum = 0.0173333 (at node 6)
	maximum = 0.0233333 (at node 5)
Injected packet length average = 1
Accepted packet length average = 1
Total in-flight flits = 19 (19 measured)
latency change    = 0.00332945
throughput change = 0.00363071
Draining all recorded packets ...
Draining remaining packets ...
Time taken is 6107 cycles
Class 0:
Packet latency average = 31.2908
	minimum = 7
	maximum = 71
Network latency average = 31.2908
	minimum = 7
	maximum = 71
Slowest packet = 2078
Flit latency average = 31.2908
	minimum = 7
	maximum = 71
Slowest flit = 2078
Fragmentation average = 0
	minimum = 0
	maximum = 0
Injected packet rate average = 0.0193125
	minimum = 0.012 (at node 14)
	maximum = 0.028 (at node 10)
Accepted packet rate average = 0.019125
	minimum = 0.012 (at node 11)
	maximum = 0.028 (at node 10)
Injected flit rate average = 0.0193125
	minimum = 0.012 (at node 14)
	maximum = 0.028 (at node 10)
Accepted flit rate average= 0.019125
	minimum = 0.012 (at node 11)
	maximum = 0.028 (at node 10)
Injected packet length average = 1
Accepted packet length average = 1
Total in-flight flits = 3 (0 measured)
latency change    = 1
throughput change = 1
Class 0:
Packet latency average = 31.2576
	minimum = 7
	maximum = 71
Network latency average = 31.2576
	minimum = 7
	maximum = 71
Slowest packet = 2078
Flit latency average = 31.2576
	minimum = 7
	maximum = 71
Slowest flit = 2078
Fragmentation average = 0
	minimum = 0
	maximum = 0
Injected packet rate average = 0.0197813
	minimum = 0.016 (at node 3)
	maximum = 0.0255 (at node 10)
Accepted packet rate average = 0.0195312
	minimum = 0.016 (at node 12)
	maximum = 0.0255 (at node 10)
Injected flit rate average = 0.0197813
	minimum = 0.016 (at node 3)
	maximum = 0.0255 (at node 10)
Accepted flit rate average= 0.0195312
	minimum = 0.016 (at node 12)
	maximum = 0.0255 (at node 10)
Injected packet length average = 1
Accepted packet length average = 1
Total in-flight flits = 8 (0 measured)
latency change    = 0.00106373
throughput change = 0.0208
Class 0:
Packet latency average = 30.5287
	minimum = 7
	maximum = 67
Network latency average = 30.5287
	minimum = 7
	maximum = 67
Slowest packet = 2709
Flit latency average = 30.5287
	minimum = 7
	maximum = 67
Slowest flit = 2709
Fragmentation average = 0
	minimum = 0
	maximum = 0
Injected packet rate average = 0.019625
	minimum = 0.017 (at node 10)
	maximum = 0.025 (at node 7)
Accepted packet rate average = 0.019625
	minimum = 0.016 (at node 11)
	maximum = 0.025 (at node 13)
Injected flit rate average = 0.019625
	minimum = 0.017 (at node 10)
	maximum = 0.025 (at node 7)
Accepted flit rate average= 0.019625
	minimum = 0.016 (at node 11)
	maximum = 0.025 (at node 13)
Injected packet length average = 1
Accepted packet length average = 1
Total in-flight flits = 8 (0 measured)
latency change    = 0.0238772
throughput change = 0.00477707
Warmed up ...Time used is 3000 cycles
Class 0:
Packet latency average = 31.1358
	minimum = 7
	maximum = 57
Network latency average = 31.1358
	minimum = 7
	maximum = 57
Slowest packet = 2928
Flit latency average = 31.4774
	minimum = 7
	maximum = 72
Slowest flit = 2898
Fragmentation average = 0
	minimum = 0
	maximum = 0
Injected packet rate average = 0.019625
	minimum = 0.012 (at node 10)
	maximum = 0.027 (at node 6)
Accepted packet rate average = 0.019375
	minimum = 0.011 (at node 10)
	maximum = 0.027 (at node 4)
Injected flit rate average = 0.019625
	minimum = 0.012 (at node 10)
	maximum = 0.027 (at node 6)
Accepted flit rate average= 0.019375
	minimum = 0.011 (at node 10)
	maximum = 0.027 (at node 4)
Injected packet length average = 1
Accepted packet length average = 1
Total in-flight flits = 12 (12 measured)
latency change    = 0.0194985
throughput change = 0.0129032
Class 0:
Packet latency average = 31.3752
	minimum = 7
	maximum = 67
Network latency average = 31.3752
	minimum = 7
	maximum = 67
Slowest packet = 3305
Flit latency average = 31.5449
	minimum = 7
	maximum = 72
Slowest flit = 2898
Fragmentation average = 0
	minimum = 0
	maximum = 0
Injected packet rate average = 0.0192187
	minimum = 0.015 (at node 15)
	maximum = 0.024 (at node 6)
Accepted packet rate average = 0.0191562
	minimum = 0.0155 (at node 14)
	maximum = 0.0245 (at node 11)
Injected flit rate average = 0.0192187
	minimum = 0.015 (at node 15)
	maximum = 0.024 (at node 6)
Accepted flit rate average= 0.0191562
	minimum = 0.0155 (at node 14)
	maximum = 0.0245 (at node 11)
Injected packet length average = 1
Accepted packet length average = 1
Total in-flight flits = 10 (10 measured)
latency change    = 0.00763166
throughput change = 0.0114192
Class 0:
Packet latency average = 31.11
	minimum = 7
	maximum = 67
Network latency average = 31.11
	minimum = 7
	maximum = 67
Slowest packet = 3305
Flit latency average = 31.228
	minimum = 7
	maximum = 72
Slowest flit = 2898
Fragmentation average = 0
	minimum = 0
	maximum = 0
Injected packet rate average = 0.0187292
	minimum = 0.016 (at node 0)
	maximum = 0.0253333 (at node 9)
Accepted packet rate average = 0.0187292
	minimum = 0.0156667 (at node 10)
	maximum = 0.0253333 (at node 6)
Injected flit rate average = 0.0187292
	minimum = 0.016 (at node 0)
	maximum = 0.0253333 (at node 9)
Accepted flit rate average= 0.0187292
	minimum = 0.0156667 (at node 10)
	maximum = 0.0253333 (at node 6)
Injected packet length average = 1
Accepted packet length average = 1
Total in-flight flits = 8 (8 measured)
latency change    = 0.00852517
throughput change = 0.0228031
Draining all recorded packets ...
Draining remaining packets ...
Time taken is 6077 cycles
Class 0:
Packet latency average = 32.8439
	minimum = 7
	maximum = 68
Network latency average = 32.8439
	minimum = 7
	maximum = 68
Slowest packet = 3834
Flit latency average = 32.8439
	minimum = 7
	maximum = 68
Slowest flit = 3834
Fragmentation average = 0
	minimum = 0
	maximum = 0
Injected packet rate average = 0.0205
	minimum = 0.013 (at node 13)
	maximum = 0.026 (at node 12)
Accepted packet rate average = 0.019625
	minimum = 0.01 (at node 7)
	maximum = 0.025 (at node 3)
Injected flit rate average = 0.0205
	minimum = 0.013 (at node 13)
	maximum = 0.026 (at node 12)
Accepted flit rate average= 0.019625
	minimum = 0.01 (at node 7)
	maximum = 0.025 (at node 3)
Injected packet length average = 1
Accepted packet length average = 1
Total in-flight flits = 14 (0 measured)
latency change    = 1
throughput change = 1
Class 0:
Packet latency average = 32.7757
	minimum = 7
	maximum = 68
Network latency average = 32.7757
	minimum = 7
	maximum = 68
Slowest packet = 3834
Flit latency average = 32.7757
	minimum = 7
	maximum = 68
Slowest flit = 3834
Fragmentation average = 0
	minimum = 0
	maximum = 0
Injected packet rate average = 0.01875
	minimum = 0.016 (at node 2)
	maximum = 0.0225 (at node 12)
Accepted packet rate average = 0.0185312
	minimum = 0.016 (at node 6)
	maximum = 0.022 (at node 3)
Injected flit rate average = 0.01875
	minimum = 0.016 (at node 2)
	maximum = 0.0225 (at node 12)
Accepted flit rate average= 0.0185312
	minimum = 0.016 (at node 6)
	maximum = 0.022 (at node 3)
Injected packet length average = 1
Accepted packet length average = 1
Total in-flight flits = 7 (0 measured)
latency change    = 0.0020818
throughput change = 0.0590219
Class 0:
Packet latency average = 30.707
	minimum = 7
	maximum = 58
Network latency average = 30.707
	minimum = 7
	maximum = 58
Slowest packet = 4579
Flit latency average = 30.707
	minimum = 7
	maximum = 58
Slowest flit = 4579
Fragmentation average = 0
	minimum = 0
	maximum = 0
Injected packet rate average = 0.019625
	minimum = 0.009 (at node 3)
	maximum = 0.028 (at node 12)
Accepted packet rate average = 0.019625
	minimum = 0.009 (at node 12)
	maximum = 0.028 (at node 3)
Injected flit rate average = 0.019625
	minimum = 0.009 (at node 3)
	maximum = 0.028 (at node 12)
Accepted flit rate average= 0.019625
	minimum = 0.009 (at node 12)
	maximum = 0.028 (at node 3)
Injected packet length average = 1
Accepted packet length average = 1
Total in-flight flits = 7 (0 measured)
latency change    = 0.0673693
throughput change = 0.0557325
Warmed up ...Time used is 3000 cycles
Class 0:
Packet latency average = 33.6314
	minimum = 7
	maximum = 67
Network latency average = 33.6314
	minimum = 7
	maximum = 67
Slowest packet = 4729
Flit latency average = 33.674
	minimum = 7
	maximum = 67
Slowest flit = 4729
Fragmentation average = 0
	minimum = 0
	maximum = 0
Injected packet rate average = 0.0200625
	minimum = 0.015 (at node 9)
	maximum = 0.028 (at node 15)
Accepted packet rate average = 0.0199375
	minimum = 0.014 (at node 10)
	maximum = 0.027 (at node 15)
Injected flit rate average = 0.0200625
	minimum = 0.015 (at node 9)
	maximum = 0.028 (at node 15)
Accepted flit rate average= 0.0199375
	minimum = 0.014 (at node 10)
	maximum = 0.027 (at node 15)
Injected packet length average = 1
Accepted packet length average = 1
Total in-flight flits = 9 (9 measured)
latency change    = 0.0869545
throughput change = 0.015674
Class 0:
Packet latency average = 33.1694
	minimum = 7
	maximum = 67
Network latency average = 33.1694
	minimum = 7
	maximum = 67
Slowest packet = 4729
Flit latency average = 33.1962
	minimum = 7
	maximum = 67
Slowest flit = 4729
Fragmentation average = 0
	minimum = 0
	maximum = 0
Injected packet rate average = 0.0198125
	minimum = 0.0155 (at node 6)
	maximum = 0.028 (at node 15)
Accepted packet rate average = 0.0195938
	minimum = 0.0145 (at node 0)
	maximum = 0.0275 (at node 15)
Injected flit rate average = 0.0198125
	minimum = 0.0155 (at node 6)
	maximum = 0.028 (at node 15)
Accepted flit rate average= 0.0195938
	minimum = 0.0145 (at node 0)
	maximum = 0.0275 (at node 15)
Injected packet length average = 1
Accepted packet length average = 1
Total in-flight flits = 14 (14 measured)
latency change    = 0.0139302
throughput change = 0.0175439
Class 0:
Packet latency average = 32.8124
	minimum = 7
	maximum = 73
Network latency average = 32.8124
	minimum = 7
	maximum = 73
Slowest packet = 5483
Flit latency average = 32.8333
	minimum = 7
	maximum = 73
Slowest flit = 5483
Fragmentation average = 0
	minimum = 0
	maximum = 0
Injected packet rate average = 0.0194167
	minimum = 0.015 (at node 11)
	maximum = 0.0253333 (at node 15)
Accepted packet rate average = 0.01925
	minimum = 0.015 (at node 2)
	maximum = 0.025 (at node 15)
Injected flit rate average = 0.0194167
	minimum = 0.015 (at node 11)
	maximum = 0.0253333 (at node 15)
Accepted flit rate average= 0.01925
	minimum = 0.015 (at node 2)
	maximum = 0.025 (at node 15)
Injected packet length average = 1
Accepted packet length average = 1
Total in-flight flits = 15 (15 measured)
latency change    = 0.0108777
throughput change = 0.0178571
Class 0:
Packet latency average = 32.8973
	minimum = 7
	maximum = 77
Network latency average = 32.8973
	minimum = 7
	maximum = 77
Slowest packet = 5776
Flit latency average = 32.9121
	minimum = 7
	maximum = 77
Slowest flit = 5776
Fragmentation average = 0
	minimum = 0
	maximum = 0
Injected packet rate average = 0.01975
	minimum = 0.0165 (at node 11)
	maximum = 0.02475 (at node 15)
Accepted packet rate average = 0.0197344
	minimum = 0.0165 (at node 14)
	maximum = 0.025 (at node 15)
Injected flit rate average = 0.01975
	minimum = 0.0165 (at node 11)
	maximum = 0.02475 (at node 15)
Accepted flit rate average= 0.0197344
	minimum = 0.0165 (at node 14)
	maximum = 0.025 (at node 15)
Injected packet length average = 1
Accepted packet length average = 1
Total in-flight flits = 8 (8 measured)
latency change    = 0.00257958
throughput change = 0.0245447
Draining all recorded packets ...
Draining remaining packets ...
Time taken is 7119 cycles
Class 0:
Packet latency average = 31.7492
	minimum = 7
	maximum = 67
Network latency average = 31.7492
	minimum = 7
	maximum = 67
Slowest packet = 6064
Flit latency average = 31.7492
	minimum = 7
	maximum = 67
Slowest flit = 6064
Fragmentation average = 0
	minimum = 0
	maximum = 0
Injected packet rate average = 0.0201875
	minimum = 0.01 (at node 3)
	maximum = 0.029 (at node 4)
Accepted packet rate average = 0.0196875
	minimum = 0.01 (at node 12)
	maximum = 0.028 (at node 1)
Injected flit rate average = 0.0201875
	minimum = 0.01 (at node 3)
	maximum = 0.029 (at node 4)
Accepted flit rate average= 0.0196875
	minimum = 0.01 (at node 12)
	maximum = 0.028 (at node 1)
Injected packet length average = 1
Accepted packet length average = 1
Total in-flight flits = 8 (0 measured)
latency change    = 1
throughput change = 1
Class 0:
Packet latency average = 32.3365
	minimum = 7
	maximum = 68
Network latency average = 32.3365
	minimum = 7
	maximum = 68
Slowest packet = 6339
Flit latency average = 32.3365
	minimum = 7
	maximum = 68
Slowest flit = 6339
Fragmentation average = 0
	minimum = 0
	maximum = 0
Injected packet rate average = 0.0199375
	minimum = 0.0135 (at node 3)
	maximum = 0.025 (at node 11)
Accepted packet rate average = 0.0195
	minimum = 0.013 (at node 12)
	maximum = 0.0245 (at node 14)
Injected flit rate average = 0.0199375
	minimum = 0.0135 (at node 3)
	maximum = 0.025 (at node 11)
Accepted flit rate average= 0.0195
	minimum = 0.013 (at node 12)
	maximum = 0.0245 (at node 14)
Injected packet length average = 1
Accepted packet length average = 1
Total in-flight flits = 14 (0 measured)
latency change    = 0.0181631
throughput change = 0.00961538
Class 0:
Packet latency average = 31.8806
	minimum = 7
	maximum = 67
Network latency average = 31.8806
	minimum = 7
	maximum = 67
Slowest packet = 6675
Flit latency average = 31.8806
	minimum = 7
	maximum = 67
Slowest flit = 6675
Fragmentation average = 0
	minimum = 0
	maximum = 0
Injected packet rate average = 0.0210625
	minimum = 0.013 (at node 14)
	maximum = 0.029 (at node 9)
Accepted packet rate average = 0.0209375
	minimum = 0.014 (at node 11)
	maximum = 0.029 (at node 6)
Injected flit rate average = 0.0210625
	minimum = 0.013 (at node 14)
	maximum = 0.029 (at node 9)
Accepted flit rate average= 0.0209375
	minimum = 0.014 (at node 11)
	maximum = 0.029 (at node 6)
Injected packet length average = 1
Accepted packet length average = 1
Total in-flight flits = 16 (0 measured)
latency change    = 0.0143015
throughput change = 0.0686567
Warmed up ...Time used is 3000 cycles
Class 0:
Packet latency average = 32.4255
	minimum = 7
	maximum = 67
Network latency average = 32.4255
	minimum = 7
	maximum = 67
Slowest packet = 7100
Flit latency average = 32.4201
	minimum = 7
	maximum = 67
Slowest flit = 7100
Fragmentation average = 0
	minimum = 0
	maximum = 0
Injected packet rate average = 0.020875
	minimum = 0.014 (at node 7)
	maximum = 0.03 (at node 2)
Accepted packet rate average = 0.021125
	minimum = 0.014 (at node 11)
	maximum = 0.033 (at node 8)
Injected flit rate average = 0.020875
	minimum = 0.014 (at node 7)
	maximum = 0.03 (at node 2)
Accepted flit rate average= 0.021125
	minimum = 0.014 (at node 11)
	maximum = 0.033 (at node 8)
Injected packet length average = 1
Accepted packet length average = 1
Total in-flight flits = 12 (12 measured)
latency change    = 0.0168037
throughput change = 0.00887574
Class 0:
Packet latency average = 32.7636
	minimum = 7
	maximum = 67
Network latency average = 32.7636
	minimum = 7
	maximum = 67
Slowest packet = 7100
Flit latency average = 32.753
	minimum = 7
	maximum = 67
Slowest flit = 7100
Fragmentation average = 0
	minimum = 0
	maximum = 0
Injected packet rate average = 0.021
	minimum = 0.0175 (at node 0)
	maximum = 0.0285 (at node 2)
Accepted packet rate average = 0.021125
	minimum = 0.0175 (at node 0)
	maximum = 0.03 (at node 8)
Injected flit rate average = 0.021
	minimum = 0.0175 (at node 0)
	maximum = 0.0285 (at node 2)
Accepted flit rate average= 0.021125
	minimum = 0.0175 (at node 0)
	maximum = 0.03 (at node 8)
Injected packet length average = 1
Accepted packet length average = 1
Total in-flight flits = 12 (12 measured)
latency change    = 0.0103215
throughput change = 0
Class 0:
Packet latency average = 32.4687
	minimum = 7
	maximum = 68
Network latency average = 32.4687
	minimum = 7
	maximum = 68
Slowest packet = 7709
Flit latency average = 32.4663
	minimum = 7
	maximum = 68
Slowest flit = 7709
Fragmentation average = 0
	minimum = 0
	maximum = 0
Injected packet rate average = 0.0212083
	minimum = 0.0176667 (at node 3)
	maximum = 0.0246667 (at node 4)
Accepted packet rate average = 0.0213125
	minimum = 0.017 (at node 12)
	maximum = 0.0253333 (at node 8)
Injected flit rate average = 0.0212083
	minimum = 0.0176667 (at node 3)
	maximum = 0.0246667 (at node 4)
Accepted flit rate average= 0.0213125
	minimum = 0.017 (at node 12)
	maximum = 0.0253333 (at node 8)
Injected packet length average = 1
Accepted packet length average = 1
Total in-flight flits = 11 (11 measured)
latency change    = 0.00908312
throughput change = 0.00879765
Draining all recorded packets ...
Draining remaining packets ...
Time taken is 6071 cycles
Class 0:
Packet latency average = 31.8108
	minimum = 7
	maximum = 68
Network latency average = 31.8108
	minimum = 7
	maximum = 68
Slowest packet = 8243
Flit latency average = 31.8108
	minimum = 7
	maximum = 68
Slowest flit = 8243
Fragmentation average = 0
	minimum = 0
	maximum = 0
Injected packet rate average = 0.0189375
	minimum = 0.011 (at node 11)
	maximum = 0.035 (at node 10)
Accepted packet rate average = 0.0185
	minimum = 0.011 (at node 3)
	maximum = 0.034 (at node 10)
Injected flit rate average = 0.0189375
	minimum = 0.011 (at node 11)
	maximum = 0.035 (at node 10)
Accepted flit rate average= 0.0185
	minimum = 0.011 (at node 3)
	maximum = 0.034 (at node 10)
Injected packet length average = 1
Accepted packet length average = 1
Total in-flight flits = 7 (0 measured)
latency change    = 1
throughput change = 1
Class 0:
Packet latency average = 32.2332
	minimum = 7
	maximum = 68
Network latency average = 32.2332
	minimum = 7
	maximum = 68
Slowest packet = 8243
Flit latency average = 32.2332
	minimum = 7
	maximum = 68
Slowest flit = 8243
Fragmentation average = 0
	minimum = 0
	maximum = 0
Injected packet rate average = 0.020625
	minimum = 0.014 (at node 12)
	maximum = 0.0275 (at node 3)
Accepted packet rate average = 0.0205
	minimum = 0.014 (at node 3)
	maximum = 0.0275 (at node 12)
Injected flit rate average = 0.020625
	minimum = 0.014 (at node 12)
	maximum = 0.0275 (at node 3)
Accepted flit rate average= 0.0205
	minimum = 0.014 (at node 3)
	maximum = 0.0275 (at node 12)
Injected packet length average = 1
Accepted packet length average = 1
Total in-flight flits = 4 (0 measured)
latency change    = 0.0131051
throughput change = 0.097561
Class 0:
Packet latency average = 32.4559
	minimum = 7
	maximum = 67
Network latency average = 32.4559
	minimum = 7
	maximum = 67
Slowest packet = 8708
Flit latency average = 32.4559
	minimum = 7
	maximum = 67
Slowest flit = 8708
Fragmentation average = 0
	minimum = 0
	maximum = 0
Injected packet rate average = 0.021
	minimum = 0.014 (at node 6)
	maximum = 0.027 (at node 11)
Accepted packet rate average = 0.0205625
	minimum = 0.014 (at node 9)
	maximum = 0.026 (at node 11)
Injected flit rate average = 0.021
	minimum = 0.014 (at node 6)
	maximum = 0.027 (at node 11)
Accepted flit rate average= 0.0205625
	minimum = 0.014 (at node 9)
	maximum = 0.026 (at node 11)
Injected packet length average = 1
Accepted packet length average = 1
Total in-flight flits = 11 (0 measured)
latency change    = 0.00686147
throughput change = 0.00303951
Warmed up ...Time used is 3000 cycles
Class 0:
Packet latency average = 32.1088
	minimum = 7
	maximum = 67
Network latency average = 32.1088
	minimum = 7
	maximum = 67
Slowest packet = 9059
Flit latency average = 32.377
	minimum = 7
	maximum = 67
Slowest flit = 8978
Fragmentation average = 0
	minimum = 0
	maximum = 0
Injected packet rate average = 0.0188125
	minimum = 0.011 (at node 5)
	maximum = 0.026 (at node 14)
Accepted packet rate average = 0.0190625
	minimum = 0.011 (at node 5)
	maximum = 0.027 (at node 11)
Injected flit rate average = 0.0188125
	minimum = 0.011 (at node 5)
	maximum = 0.026 (at node 14)
Accepted flit rate average= 0.0190625
	minimum = 0.011 (at node 5)
	maximum = 0.027 (at node 11)
Injected packet length average = 1
Accepted packet length average = 1
Total in-flight flits = 7 (7 measured)
latency change    = 0.0108096
throughput change = 0.0786885
Class 0:
Packet latency average = 32.5031
	minimum = 7
	maximum = 69
Network latency average = 32.5031
	minimum = 7
	maximum = 69
Slowest packet = 9428
Flit latency average = 32.6206
	minimum = 7
	maximum = 69
Slowest flit = 9428
Fragmentation average = 0
	minimum = 0
	maximum = 0
Injected packet rate average = 0.02075
	minimum = 0.0165 (at node 4)
	maximum = 0.028 (at node 8)
Accepted packet rate average = 0.0205938
	minimum = 0.0155 (at node 5)
	maximum = 0.028 (at node 2)
Injected flit rate average = 0.02075
	minimum = 0.0165 (at node 4)
	maximum = 0.028 (at node 8)
Accepted flit rate average= 0.0205938
	minimum = 0.0155 (at node 5)
	maximum = 0.028 (at node 2)
Injected packet length average = 1
Accepted packet length average = 1
Total in-flight flits = 16 (16 measured)
latency change    = 0.0121294
throughput change = 0.0743551
Class 0:
Packet latency average = 32.7723
	minimum = 7
	maximum = 69
Network latency average = 32.7723
	minimum = 7
	maximum = 69
Slowest packet = 9428
Flit latency average = 32.8452
	minimum = 7
	maximum = 69
Slowest flit = 9428
Fragmentation average = 0
	minimum = 0
	maximum = 0
Injected packet rate average = 0.0211875
	minimum = 0.0166667 (at node 5)
	maximum = 0.027 (at node 14)
Accepted packet rate average = 0.0212708
	minimum = 0.0166667 (at node 5)
	maximum = 0.0273333 (at node 2)
Injected flit rate average = 0.0211875
	minimum = 0.0166667 (at node 5)
	maximum = 0.027 (at node 14)
Accepted flit rate average= 0.0212708
	minimum = 0.0166667 (at node 5)
	maximum = 0.0273333 (at node 2)
Injected packet length average = 1
Accepted packet length average = 1
Total in-flight flits = 7 (7 measured)
latency change    = 0.00821398
throughput change = 0.0318315
Class 0:
Packet latency average = 32.3728
	minimum = 7
	maximum = 69
Network latency average = 32.3728
	minimum = 7
	maximum = 69
Slowest packet = 9428
Flit latency average = 32.4319
	minimum = 7
	maximum = 69
Slowest flit = 9428
Fragmentation average = 0
	minimum = 0
	maximum = 0
Injected packet rate average = 0.0208438
	minimum = 0.01675 (at node 5)
	maximum = 0.02475 (at node 14)
Accepted packet rate average = 0.020875
	minimum = 0.0165 (at node 5)
	maximum = 0.0245 (at node 2)
Injected flit rate average = 0.0208438
	minimum = 0.01675 (at node 5)
	maximum = 0.02475 (at node 14)
Accepted flit rate average= 0.020875
	minimum = 0.0165 (at node 5)
	maximum = 0.0245 (at node 2)
Injected packet length average = 1
Accepted packet length average = 1
Total in-flight flits = 9 (9 measured)
latency change    = 0.012339
throughput change = 0.0189621
Class 0:
Packet latency average = 32.2905
	minimum = 7
	maximum = 69
Network latency average = 32.2905
	minimum = 7
	maximum = 69
Slowest packet = 9428
Flit latency average = 32.3397
	minimum = 7
	maximum = 69
Slowest flit = 9428
Fragmentation average = 0
	minimum = 0
	maximum = 0
Injected packet rate average = 0.0202625
	minimum = 0.0162 (at node 5)
	maximum = 0.0238 (at node 14)
Accepted packet rate average = 0.020275
	minimum = 0.016 (at node 5)
	maximum = 0.0238 (at node 11)
Injected flit rate average = 0.0202625
	minimum = 0.0162 (at node 5)
	maximum = 0.0238 (at node 14)
Accepted flit rate average= 0.020275
	minimum = 0.016 (at node 5)
	maximum = 0.0238 (at node 11)
Injected packet length average = 1
Accepted packet length average = 1
Total in-flight flits = 10 (10 measured)
latency change    = 0.00254959
throughput change = 0.0295931
Draining all recorded packets ...
Draining remaining packets ...
Time taken is 8077 cycles
Class 0:
Packet latency average = 32.0833
	minimum = 7
	maximum = 74
Network latency average = 32.0833
	minimum = 7
	maximum = 74
Slowest packet = 10919
Flit latency average = 32.0833
	minimum = 7
	maximum = 74
Slowest flit = 10919
Fragmentation average = 0
	minimum = 0
	maximum = 0
Injected packet rate average = 0.0215625
	minimum = 0.013 (at node 6)
	maximum = 0.031 (at node 1)
Accepted packet rate average = 0.021
	minimum = 0.013 (at node 9)
	maximum = 0.031 (at node 4)
Injected flit rate average = 0.0215625
	minimum = 0.013 (at node 6)
	maximum = 0.031 (at node 1)
Accepted flit rate average= 0.021
	minimum = 0.013 (at node 9)
	maximum = 0.031 (at node 4)
Injected packet length average = 1
Accepted packet length average = 1
Total in-flight flits = 9 (0 measured)
latency change    = 1
throughput change = 1
Class 0:
Packet latency average = 31.841
	minimum = 7
	maximum = 74
Network latency average = 31.841
	minimum = 7
	maximum = 74
Slowest packet = 10919
Flit latency average = 31.841
	minimum = 7
	maximum = 74
Slowest flit = 10919
Fragmentation average = 0
	minimum = 0
	maximum = 0
Injected packet rate average = 0.0206563
	minimum = 0.016 (at node 6)
	maximum = 0.024 (at node 5)
Accepted packet rate average = 0.0204375
	minimum = 0.016 (at node 9)
	maximum = 0.0235 (at node 2)
Injected flit rate average = 0.0206563
	minimum = 0.016 (at node 6)
	maximum = 0.024 (at node 5)
Accepted flit rate average= 0.0204375
	minimum = 0.016 (at node 9)
	maximum = 0.0235 (at node 2)
Injected packet length average = 1
Accepted packet length average = 1
Total in-flight flits = 7 (0 measured)
latency change    = 0.00761141
throughput change = 0.0275229
Class 0:
Packet latency average = 31.3662
	minimum = 7
	maximum = 67
Network latency average = 31.3662
	minimum = 7
	maximum = 67
Slowest packet = 11583
Flit latency average = 31.3662
	minimum = 7
	maximum = 67
Slowest flit = 11583
Fragmentation average = 0
	minimum = 0
	maximum = 0
Injected packet rate average = 0.02075
	minimum = 0.01 (at node 11)
	maximum = 0.034 (at node 8)
Accepted packet rate average = 0.0203125
	minimum = 0.01 (at node 14)
	maximum = 0.033 (at node 2)
Injected flit rate average = 0.02075
	minimum = 0.01 (at node 11)
	maximum = 0.034 (at node 8)
Accepted flit rate average= 0.0203125
	minimum = 0.01 (at node 14)
	maximum = 0.033 (at node 2)
Injected packet length average = 1
Accepted packet length average = 1
Total in-flight flits = 14 (0 measured)
latency change    = 0.0151381
throughput change = 0.00615385
Warmed up ...Time used is 3000 cycles
Class 0:
Packet latency average = 31.5589
	minimum = 7
	maximum = 68
Network latency average = 31.5589
	minimum = 7
	maximum = 68
Slowest packet = 11682
Flit latency average = 31.836
	minimum = 7
	maximum = 68
Slowest flit = 11682
Fragmentation average = 0
	minimum = 0
	maximum = 0
Injected packet rate average = 0.019125
	minimum = 0.011 (at node 12)
	maximum = 0.026 (at node 0)
Accepted packet rate average = 0.0194375
	minimum = 0.01 (at node 3)
	maximum = 0.027 (at node 0)
Injected flit rate average = 0.019125
	minimum = 0.011 (at node 12)
	maximum = 0.026 (at node 0)
Accepted flit rate average= 0.0194375
	minimum = 0.01 (at node 3)
	maximum = 0.027 (at node 0)
Injected packet length average = 1
Accepted packet length average = 1
Total in-flight flits = 9 (9 measured)
latency change    = 0.00610822
throughput change = 0.0450161
Class 0:
Packet latency average = 31.4536
	minimum = 7
	maximum = 68
Network latency average = 31.4536
	minimum = 7
	maximum = 68
Slowest packet = 11682
Flit latency average = 31.598
	minimum = 7
	maximum = 68
Slowest flit = 11682
Fragmentation average = 0
	minimum = 0
	maximum = 0
Injected packet rate average = 0.0190312
	minimum = 0.0155 (at node 2)
	maximum = 0.0235 (at node 10)
Accepted packet rate average = 0.0189687
	minimum = 0.0155 (at node 3)
	maximum = 0.0235 (at node 10)
Injected flit rate average = 0.0190312
	minimum = 0.0155 (at node 2)
	maximum = 0.0235 (at node 10)
Accepted flit rate average= 0.0189687
	minimum = 0.0155 (at node 3)
	maximum = 0.0235 (at node 10)
Injected packet length average = 1
Accepted packet length average = 1
Total in-flight flits = 16 (16 measured)
latency change    = 0.00334769
throughput change = 0.0247117
Class 0:
Packet latency average = 31.6623
	minimum = 7
	maximum = 71
Network latency average = 31.6623
	minimum = 7
	maximum = 71
Slowest packet = 12249
Flit latency average = 31.7527
	minimum = 7
	maximum = 71
Slowest flit = 12249
Fragmentation average = 0
	minimum = 0
	maximum = 0
Injected packet rate average = 0.0194583
	minimum = 0.0143333 (at node 2)
	maximum = 0.0236667 (at node 11)
Accepted packet rate average = 0.0195417
	minimum = 0.0143333 (at node 8)
	maximum = 0.024 (at node 14)
Injected flit rate average = 0.0194583
	minimum = 0.0143333 (at node 2)
	maximum = 0.0236667 (at node 11)
Accepted flit rate average= 0.0195417
	minimum = 0.0143333 (at node 8)
	maximum = 0.024 (at node 14)
Injected packet length average = 1
Accepted packet length average = 1
Total in-flight flits = 10 (10 measured)
latency change    = 0.00659181
throughput change = 0.0293177
Draining all recorded packets ...
Draining remaining packets ...
Time taken is 6084 cycles
Class 0:
Packet latency average = 32.8873
	minimum = 7
	maximum = 68
Network latency average = 32.8873
	minimum = 7
	maximum = 68
Slowest packet = 12715
Flit latency average = 32.8873
	minimum = 7
	maximum = 68
Slowest flit = 12715
Fragmentation average = 0
	minimum = 0
	maximum = 0
Injected packet rate average = 0.018
	minimum = 0.009 (at node 7)
	maximum = 0.025 (at node 3)
Accepted packet rate average = 0.0171875
	minimum = 0.009 (at node 13)
	maximum = 0.023 (at node 0)
Injected flit rate average = 0.018
	minimum = 0.009 (at node 7)
	maximum = 0.025 (at node 3)
Accepted flit rate average= 0.0171875
	minimum = 0.009 (at node 13)
	maximum = 0.023 (at node 0)
Injected packet length average = 1
Accepted packet length average = 1
Total in-flight flits = 13 (0 measured)
latency change    = 1
throughput change = 1
Class 0:
Packet latency average = 32.5676
	minimum = 7
	maximum = 68
Network latency average = 32.5676
	minimum = 7
	maximum = 68
Slowest packet = 12715
Flit latency average = 32.5676
	minimum = 7
	maximum = 68
Slowest flit = 12715
Fragmentation average = 0
	minimum = 0
	maximum = 0
Injected packet rate average = 0.019125
	minimum = 0.0105 (at node 7)
	maximum = 0.024 (at node 3)
Accepted packet rate average = 0.0187187
	minimum = 0.0105 (at node 13)
	maximum = 0.024 (at node 12)
Injected flit rate average = 0.019125
	minimum = 0.0105 (at node 7)
	maximum = 0.024 (at node 3)
Accepted flit rate average= 0.0187187
	minimum = 0.0105 (at node 13)
	maximum = 0.024 (at node 12)
Injected packet length average = 1
Accepted packet length average = 1
Total in-flight flits = 13 (0 measured)
latency change    = 0.00981527
throughput change = 0.081803
Class 0:
Packet latency average = 32.8374
	minimum = 7
	maximum = 64
Network latency average = 32.8374
	minimum = 7
	maximum = 64
Slowest packet = 13250
Flit latency average = 32.8374
	minimum = 7
	maximum = 64
Slowest flit = 13250
Fragmentation average = 0
	minimum = 0
	maximum = 0
Injected packet rate average = 0.020125
	minimum = 0.015 (at node 9)
	maximum = 0.029 (at node 4)
Accepted packet rate average = 0.020375
	minimum = 0.014 (at node 6)
	maximum = 0.03 (at node 1)
Injected flit rate average = 0.020125
	minimum = 0.015 (at node 9)
	maximum = 0.029 (at node 4)
Accepted flit rate average= 0.020375
	minimum = 0.014 (at node 6)
	maximum = 0.03 (at node 1)
Injected packet length average = 1
Accepted packet length average = 1
Total in-flight flits = 9 (0 measured)
latency change    = 0.00821656
throughput change = 0.0812883
Warmed up ...Time used is 3000 cycles
Class 0:
Packet latency average = 31.1237
	minimum = 7
	maximum = 68
Network latency average = 31.1237
	minimum = 7
	maximum = 68
Slowest packet = 13546
Flit latency average = 31.2013
	minimum = 7
	maximum = 68
Slowest flit = 13546
Fragmentation average = 0
	minimum = 0
	maximum = 0
Injected packet rate average = 0.01975
	minimum = 0.014 (at node 1)
	maximum = 0.027 (at node 10)
Accepted packet rate average = 0.01925
	minimum = 0.014 (at node 0)
	maximum = 0.027 (at node 8)
Injected flit rate average = 0.01975
	minimum = 0.014 (at node 1)
	maximum = 0.027 (at node 10)
Accepted flit rate average= 0.01925
	minimum = 0.014 (at node 0)
	maximum = 0.027 (at node 8)
Injected packet length average = 1
Accepted packet length average = 1
Total in-flight flits = 17 (17 measured)
latency change    = 0.0550601
throughput change = 0.0584416
Class 0:
Packet latency average = 32.2527
	minimum = 7
	maximum = 68
Network latency average = 32.2527
	minimum = 7
	maximum = 68
Slowest packet = 13546
Flit latency average = 32.2738
	minimum = 7
	maximum = 68
Slowest flit = 13546
Fragmentation average = 0
	minimum = 0
	maximum = 0
Injected packet rate average = 0.0203125
	minimum = 0.017 (at node 0)
	maximum = 0.0235 (at node 2)
Accepted packet rate average = 0.0203125
	minimum = 0.0165 (at node 0)
	maximum = 0.0245 (at node 8)
Injected flit rate average = 0.0203125
	minimum = 0.017 (at node 0)
	maximum = 0.0235 (at node 2)
Accepted flit rate average= 0.0203125
	minimum = 0.0165 (at node 0)
	maximum = 0.0245 (at node 8)
Injected packet length average = 1
Accepted packet length average = 1
Total in-flight flits = 9 (9 measured)
latency change    = 0.0350043
throughput change = 0.0523077
Class 0:
Packet latency average = 32.5346
	minimum = 7
	maximum = 72
Network latency average = 32.5346
	minimum = 7
	maximum = 72
Slowest packet = 14189
Flit latency average = 32.5461
	minimum = 7
	maximum = 72
Slowest flit = 14189
Fragmentation average = 0
	minimum = 0
	maximum = 0
Injected packet rate average = 0.0202708
	minimum = 0.0173333 (at node 5)
	maximum = 0.024 (at node 4)
Accepted packet rate average = 0.0203333
	minimum = 0.0173333 (at node 5)
	maximum = 0.0243333 (at node 1)
Injected flit rate average = 0.0202708
	minimum = 0.0173333 (at node 5)
	maximum = 0.024 (at node 4)
Accepted flit rate average= 0.0203333
	minimum = 0.0173333 (at node 5)
	maximum = 0.0243333 (at node 1)
Injected packet length average = 1
Accepted packet length average = 1
Total in-flight flits = 6 (6 measured)
latency change    = 0.00866501
throughput change = 0.00102459
Class 0:
Packet latency average = 32.3045
	minimum = 7
	maximum = 72
Network latency average = 32.3045
	minimum = 7
	maximum = 72
Slowest packet = 14189
Flit latency average = 32.3148
	minimum = 7
	maximum = 72
Slowest flit = 14189
Fragmentation average = 0
	minimum = 0
	maximum = 0
Injected packet rate average = 0.0201875
	minimum = 0.0165 (at node 5)
	maximum = 0.02425 (at node 3)
Accepted packet rate average = 0.0202031
	minimum = 0.01675 (at node 5)
	maximum = 0.02425 (at node 12)
Injected flit rate average = 0.0201875
	minimum = 0.0165 (at node 5)
	maximum = 0.02425 (at node 3)
Accepted flit rate average= 0.0202031
	minimum = 0.01675 (at node 5)
	maximum = 0.02425 (at node 12)
Injected packet length average = 1
Accepted packet length average = 1
Total in-flight flits = 8 (8 measured)
latency change    = 0.00712365
throughput change = 0.00644496
Class 0:
Packet latency average = 32.394
	minimum = 7
	maximum = 72
Network latency average = 32.394
	minimum = 7
	maximum = 72
Slowest packet = 14189
Flit latency average = 32.4018
	minimum = 7
	maximum = 72
Slowest flit = 14189
Fragmentation average = 0
	minimum = 0
	maximum = 0
Injected packet rate average = 0.0199375
	minimum = 0.0168 (at node 5)
	maximum = 0.0236 (at node 3)
Accepted packet rate average = 0.019975
	minimum = 0.017 (at node 5)
	maximum = 0.0234 (at node 12)
Injected flit rate average = 0.0199375
	minimum = 0.0168 (at node 5)
	maximum = 0.0236 (at node 3)
Accepted flit rate average= 0.019975
	minimum = 0.017 (at node 5)
	maximum = 0.0234 (at node 12)
Injected packet length average = 1
Accepted packet length average = 1
Total in-flight flits = 6 (6 measured)
latency change    = 0.00276105
throughput change = 0.0114205
Draining all recorded packets ...
Draining remaining packets ...
Time taken is 8097 cycles
Class 0:
Packet latency average = 33.4919
	minimum = 7
	maximum = 67
Network latency average = 33.4919
	minimum = 7
	maximum = 67
Slowest packet = 15280
Flit latency average = 33.4919
	minimum = 7
	maximum = 67
Slowest flit = 15280
Fragmentation average = 0
	minimum = 0
	maximum = 0
Injected packet rate average = 0.02
	minimum = 0.013 (at node 6)
	maximum = 0.029 (at node 3)
Accepted packet rate average = 0.0193125
	minimum = 0.012 (at node 10)
	maximum = 0.029 (at node 12)
Injected flit rate average = 0.02
	minimum = 0.013 (at node 6)
	maximum = 0.029 (at node 3)
Accepted flit rate average= 0.0193125
	minimum = 0.012 (at node 10)
	maximum = 0.029 (at node 12)
Injected packet length average = 1
Accepted packet length average = 1
Total in-flight flits = 11 (0 measured)
latency change    = 1
throughput change = 1
Class 0:
Packet latency average = 32.6683
	minimum = 7
	maximum = 68
Network latency average = 32.6683
	minimum = 7
	maximum = 68
Slowest packet = 15683
Flit latency average = 32.6683
	minimum = 7
	maximum = 68
Slowest flit = 15683
Fragmentation average = 0
	minimum = 0
	maximum = 0
Injected packet rate average = 0.019
	minimum = 0.015 (at node 13)
	maximum = 0.023 (at node 0)
Accepted packet rate average = 0.0186562
	minimum = 0.015 (at node 7)
	maximum = 0.0225 (at node 0)
Injected flit rate average = 0.019
	minimum = 0.015 (at node 13)
	maximum = 0.023 (at node 0)
Accepted flit rate average= 0.0186562
	minimum = 0.015 (at node 7)
	maximum = 0.0225 (at node 0)
Injected packet length average = 1
Accepted packet length average = 1
Total in-flight flits = 11 (0 measured)
latency change    = 0.02521
throughput change = 0.0351759
Class 0:
Packet latency average = 32.0767
	minimum = 7
	maximum = 67
Network latency average = 32.0767
	minimum = 7
	maximum = 67
Slowest packet = 15881
Flit latency average = 32.0767
	minimum = 7
	maximum = 67
Slowest flit = 15881
Fragmentation average = 0
	minimum = 0
	maximum = 0
Injected packet rate average = 0.022
	minimum = 0.015 (at node 14)
	maximum = 0.033 (at node 7)
Accepted packet rate average = 0.022
	minimum = 0.015 (at node 9)
	maximum = 0.03 (at node 1)
Injected flit rate average = 0.022
	minimum = 0.015 (at node 14)
	maximum = 0.033 (at node 7)
Accepted flit rate average= 0.022
	minimum = 0.015 (at node 9)
	maximum = 0.03 (at node 1)
Injected packet length average = 1
Accepted packet length average = 1
Total in-flight flits = 11 (0 measured)
latency change    = 0.0184444
throughput change = 0.151989
Warmed up ...Time used is 3000 cycles
Class 0:
Packet latency average = 31.7683
	minimum = 7
	maximum = 68
Network latency average = 31.7683
	minimum = 7
	maximum = 68
Slowest packet = 16322
Flit latency average = 31.9141
	minimum = 7
	maximum = 68
Slowest flit = 16322
Fragmentation average = 0
	minimum = 0
	maximum = 0
Injected packet rate average = 0.0206875
	minimum = 0.012 (at node 12)
	maximum = 0.029 (at node 4)
Accepted packet rate average = 0.020375
	minimum = 0.012 (at node 3)
	maximum = 0.028 (at node 1)
Injected flit rate average = 0.0206875
	minimum = 0.012 (at node 12)
	maximum = 0.029 (at node 4)
Accepted flit rate average= 0.020375
	minimum = 0.012 (at node 3)
	maximum = 0.028 (at node 1)
Injected packet length average = 1
Accepted packet length average = 1
Total in-flight flits = 16 (16 measured)
latency change    = 0.0097094
throughput change = 0.0797546
Class 0:
Packet latency average = 31.6376
	minimum = 7
	maximum = 68
Network latency average = 31.6376
	minimum = 7
	maximum = 68
Slowest packet = 16322
Flit latency average = 31.7113
	minimum = 7
	maximum = 68
Slowest flit = 16322
Fragmentation average = 0
	minimum = 0
	maximum = 0
Injected packet rate average = 0.0206875
	minimum = 0.014 (at node 12)
	maximum = 0.028 (at node 6)
Accepted packet rate average = 0.0207813
	minimum = 0.0145 (at node 3)
	maximum = 0.028 (at node 9)
Injected flit rate average = 0.0206875
	minimum = 0.014 (at node 12)
	maximum = 0.028 (at node 6)
Accepted flit rate average= 0.0207813
	minimum = 0.0145 (at node 3)
	maximum = 0.028 (at node 9)
Injected packet length average = 1
Accepted packet length average = 1
Total in-flight flits = 8 (8 measured)
latency change    = 0.00412924
throughput change = 0.0195489
Class 0:
Packet latency average = 31.8939
	minimum = 7
	maximum = 68
Network latency average = 31.8939
	minimum = 7
	maximum = 68
Slowest packet = 16322
Flit latency average = 31.9409
	minimum = 7
	maximum = 68
Slowest flit = 16322
Fragmentation average = 0
	minimum = 0
	maximum = 0
Injected packet rate average = 0.0204167
	minimum = 0.0166667 (at node 11)
	maximum = 0.0253333 (at node 6)
Accepted packet rate average = 0.0204583
	minimum = 0.016 (at node 14)
	maximum = 0.0256667 (at node 9)
Injected flit rate average = 0.0204167
	minimum = 0.0166667 (at node 11)
	maximum = 0.0253333 (at node 6)
Accepted flit rate average= 0.0204583
	minimum = 0.016 (at node 14)
	maximum = 0.0256667 (at node 9)
Injected packet length average = 1
Accepted packet length average = 1
Total in-flight flits = 9 (9 measured)
latency change    = 0.0080363
throughput change = 0.0157841
Class 0:
Packet latency average = 31.8585
	minimum = 7
	maximum = 68
Network latency average = 31.8585
	minimum = 7
	maximum = 68
Slowest packet = 16322
Flit latency average = 31.8946
	minimum = 7
	maximum = 68
Slowest flit = 16322
Fragmentation average = 0
	minimum = 0
	maximum = 0
Injected packet rate average = 0.0201406
	minimum = 0.01575 (at node 2)
	maximum = 0.0235 (at node 9)
Accepted packet rate average = 0.0201563
	minimum = 0.01575 (at node 8)
	maximum = 0.02375 (at node 6)
Injected flit rate average = 0.0201406
	minimum = 0.01575 (at node 2)
	maximum = 0.0235 (at node 9)
Accepted flit rate average= 0.0201563
	minimum = 0.01575 (at node 8)
	maximum = 0.02375 (at node 6)
Injected packet length average = 1
Accepted packet length average = 1
Total in-flight flits = 10 (10 measured)
latency change    = 0.00111244
throughput change = 0.0149871
Draining all recorded packets ...
Draining remaining packets ...
Time taken is 7091 cycles
Class 0:
Packet latency average = 32.3829
	minimum = 7
	maximum = 67
Network latency average = 32.3829
	minimum = 7
	maximum = 67
Slowest packet = 17429
Flit latency average = 32.3829
	minimum = 7
	maximum = 67
Slowest flit = 17429
Fragmentation average = 0
	minimum = 0
	maximum = 0
Injected packet rate average = 0.020625
	minimum = 0.014 (at node 10)
	maximum = 0.028 (at node 8)
Accepted packet rate average = 0.01975
	minimum = 0.013 (at node 10)
	maximum = 0.028 (at node 2)
Injected flit rate average = 0.020625
	minimum = 0.014 (at node 10)
	maximum = 0.028 (at node 8)
Accepted flit rate average= 0.01975
	minimum = 0.013 (at node 10)
	maximum = 0.028 (at node 2)
Injected packet length average = 1
Accepted packet length average = 1
Total in-flight flits = 14 (0 measured)
latency change    = 1
throughput change = 1
Class 0:
Packet latency average = 32.6391
	minimum = 7
	maximum = 67
Network latency average = 32.6391
	minimum = 7
	maximum = 67
Slowest packet = 17429
Flit latency average = 32.6391
	minimum = 7
	maximum = 67
Slowest flit = 17429
Fragmentation average = 0
	minimum = 0
	maximum = 0
Injected packet rate average = 0.020375
	minimum = 0.0145 (at node 10)
	maximum = 0.027 (at node 13)
Accepted packet rate average = 0.02
	minimum = 0.0145 (at node 10)
	maximum = 0.027 (at node 7)
Injected flit rate average = 0.020375
	minimum = 0.0145 (at node 10)
	maximum = 0.027 (at node 13)
Accepted flit rate average= 0.02
	minimum = 0.0145 (at node 10)
	maximum = 0.027 (at node 7)
Injected packet length average = 1
Accepted packet length average = 1
Total in-flight flits = 12 (0 measured)
latency change    = 0.00784799
throughput change = 0.0125
Class 0:
Packet latency average = 32.2328
	minimum = 7
	maximum = 68
Network latency average = 32.2328
	minimum = 7
	maximum = 68
Slowest packet = 18018
Flit latency average = 32.2328
	minimum = 7
	maximum = 68
Slowest flit = 18018
Fragmentation average = 0
	minimum = 0
	maximum = 0
Injected packet rate average = 0.0214375
	minimum = 0.016 (at node 8)
	maximum = 0.027 (at node 2)
Accepted packet rate average = 0.02175
	minimum = 0.016 (at node 2)
	maximum = 0.027 (at node 7)
Injected flit rate average = 0.0214375
	minimum = 0.016 (at node 8)
	maximum = 0.027 (at node 2)
Accepted flit rate average= 0.02175
	minimum = 0.016 (at node 2)
	maximum = 0.027 (at node 7)
Injected packet length average = 1
Accepted packet length average = 1
Total in-flight flits = 7 (0 measured)
latency change    = 0.0126053
throughput change = 0.0804598
Warmed up ...Time used is 3000 cycles
Class 0:
Packet latency average = 32.089
	minimum = 7
	maximum = 57
Network latency average = 32.089
	minimum = 7
	maximum = 57
Slowest packet = 18377
Flit latency average = 32.3712
	minimum = 7
	maximum = 67
Slowest flit = 18354
Fragmentation average = 0
	minimum = 0
	maximum = 0
Injected packet rate average = 0.0186875
	minimum = 0.012 (at node 1)
	maximum = 0.029 (at node 3)
Accepted packet rate average = 0.0186875
	minimum = 0.013 (at node 4)
	maximum = 0.03 (at node 12)
Injected flit rate average = 0.0186875
	minimum = 0.012 (at node 1)
	maximum = 0.029 (at node 3)
Accepted flit rate average= 0.0186875
	minimum = 0.013 (at node 4)
	maximum = 0.03 (at node 12)
Injected packet length average = 1
Accepted packet length average = 1
Total in-flight flits = 7 (7 measured)
latency change    = 0.00447871
throughput change = 0.16388
Class 0:
Packet latency average = 31.928
	minimum = 7
	maximum = 68
Network latency average = 31.928
	minimum = 7
	maximum = 68
Slowest packet = 18778
Flit latency average = 32.0633
	minimum = 7
	maximum = 68
Slowest flit = 18778
Fragmentation average = 0
	minimum = 0
	maximum = 0
Injected packet rate average = 0.0198438
	minimum = 0.0145 (at node 9)
	maximum = 0.0245 (at node 3)
Accepted packet rate average = 0.01975
	minimum = 0.0145 (at node 6)
	maximum = 0.0235 (at node 12)
Injected flit rate average = 0.0198438
	minimum = 0.0145 (at node 9)
	maximum = 0.0245 (at node 3)
Accepted flit rate average= 0.01975
	minimum = 0.0145 (at node 6)
	maximum = 0.0235 (at node 12)
Injected packet length average = 1
Accepted packet length average = 1
Total in-flight flits = 10 (10 measured)
latency change    = 0.00504388
throughput change = 0.0537975
Class 0:
Packet latency average = 32.3498
	minimum = 7
	maximum = 68
Network latency average = 32.3498
	minimum = 7
	maximum = 68
Slowest packet = 18778
Flit latency average = 32.4396
	minimum = 7
	maximum = 68
Slowest flit = 18778
Fragmentation average = 0
	minimum = 0
	maximum = 0
Injected packet rate average = 0.0191667
	minimum = 0.0156667 (at node 14)
	maximum = 0.0223333 (at node 3)
Accepted packet rate average = 0.0191458
	minimum = 0.0153333 (at node 11)
	maximum = 0.0226667 (at node 12)
Injected flit rate average = 0.0191667
	minimum = 0.0156667 (at node 14)
	maximum = 0.0223333 (at node 3)
Accepted flit rate average= 0.0191458
	minimum = 0.0153333 (at node 11)
	maximum = 0.0226667 (at node 12)
Injected packet length average = 1
Accepted packet length average = 1
Total in-flight flits = 8 (8 measured)
latency change    = 0.0130381
throughput change = 0.031556
Class 0:
Packet latency average = 32.2073
	minimum = 7
	maximum = 68
Network latency average = 32.2073
	minimum = 7
	maximum = 68
Slowest packet = 18778
Flit latency average = 32.2736
	minimum = 7
	maximum = 68
Slowest flit = 18778
Fragmentation average = 0
	minimum = 0
	maximum = 0
Injected packet rate average = 0.0196719
	minimum = 0.016 (at node 14)
	maximum = 0.022 (at node 3)
Accepted packet rate average = 0.0197031
	minimum = 0.01575 (at node 11)
	maximum = 0.02225 (at node 12)
Injected flit rate average = 0.0196719
	minimum = 0.016 (at node 14)
	maximum = 0.022 (at node 3)
Accepted flit rate average= 0.0197031
	minimum = 0.01575 (at node 11)
	maximum = 0.02225 (at node 12)
Injected packet length average = 1
Accepted packet length average = 1
Total in-flight flits = 5 (5 measured)
latency change    = 0.00442272
throughput change = 0.0282844
Class 0:
Packet latency average = 32.2319
	minimum = 7
	maximum = 68
Network latency average = 32.2319
	minimum = 7
	maximum = 68
Slowest packet = 18778
Flit latency average = 32.285
	minimum = 7
	maximum = 68
Slowest flit = 18778
Fragmentation average = 0
	minimum = 0
	maximum = 0
Injected packet rate average = 0.0197625
	minimum = 0.0168 (at node 14)
	maximum = 0.0224 (at node 4)
Accepted packet rate average = 0.01965
	minimum = 0.0162 (at node 11)
	maximum = 0.0224 (at node 1)
Injected flit rate average = 0.0197625
	minimum = 0.0168 (at node 14)
	maximum = 0.0224 (at node 4)
Accepted flit rate average= 0.01965
	minimum = 0.0162 (at node 11)
	maximum = 0.0224 (at node 1)
Injected packet length average = 1
Accepted packet length average = 1
Total in-flight flits = 16 (16 measured)
latency change    = 0.000763601
throughput change = 0.00270356
Draining all recorded packets ...
Draining remaining packets ...
Time taken is 8076 cycles
Class 0:
Packet latency average = 31.6958
	minimum = 7
	maximum = 67
Network latency average = 31.6958
	minimum = 7
	maximum = 67
Slowest packet = 19958
Flit latency average = 31.6958
	minimum = 7
	maximum = 67
Slowest flit = 19958
Fragmentation average = 0
	minimum = 0
	maximum = 0
Injected packet rate average = 0.01975
	minimum = 0.015 (at node 12)
	maximum = 0.026 (at node 2)
Accepted packet rate average = 0.0193125
	minimum = 0.014 (at node 3)
	maximum = 0.025 (at node 8)
Injected flit rate average = 0.01975
	minimum = 0.015 (at node 12)
	maximum = 0.026 (at node 2)
Accepted flit rate average= 0.0193125
	minimum = 0.014 (at node 3)
	maximum = 0.025 (at node 8)
Injected packet length average = 1
Accepted packet length average = 1
Total in-flight flits = 7 (0 measured)
latency change    = 1
throughput change = 1
Class 0:
Packet latency average = 32.0111
	minimum = 7
	maximum = 67
Network latency average = 32.0111
	minimum = 7
	maximum = 67
Slowest packet = 19958
Flit latency average = 32.0111
	minimum = 7
	maximum = 67
Slowest flit = 19958
Fragmentation average = 0
	minimum = 0
	maximum = 0
Injected packet rate average = 0.0200625
	minimum = 0.015 (at node 0)
	maximum = 0.025 (at node 4)
Accepted packet rate average = 0.0197813
	minimum = 0.0145 (at node 0)
	maximum = 0.0245 (at node 1)
Injected flit rate average = 0.0200625
	minimum = 0.015 (at node 0)
	maximum = 0.025 (at node 4)
Accepted flit rate average= 0.0197813
	minimum = 0.0145 (at node 0)
	maximum = 0.0245 (at node 1)
Injected packet length average = 1
Accepted packet length average = 1
Total in-flight flits = 9 (0 measured)
latency change    = 0.00984865
throughput change = 0.0236967
Class 0:
Packet latency average = 33.4304
	minimum = 7
	maximum = 73
Network latency average = 33.4304
	minimum = 7
	maximum = 73
Slowest packet = 20740
Flit latency average = 33.4304
	minimum = 7
	maximum = 73
Slowest flit = 20740
Fragmentation average = 0
	minimum = 0
	maximum = 0
Injected packet rate average = 0.0195
	minimum = 0.012 (at node 2)
	maximum = 0.028 (at node 6)
Accepted packet rate average = 0.01975
	minimum = 0.012 (at node 8)
	maximum = 0.028 (at node 9)
Injected flit rate average = 0.0195
	minimum = 0.012 (at node 2)
	maximum = 0.028 (at node 6)
Accepted flit rate average= 0.01975
	minimum = 0.012 (at node 8)
	maximum = 0.028 (at node 9)
Injected packet length average = 1
Accepted packet length average = 1
Total in-flight flits = 5 (0 measured)
latency change    = 0.042456
throughput change = 0.00158228
Warmed up ...Time used is 3000 cycles
Class 0:
Packet latency average = 32.358
	minimum = 7
	maximum = 68
Network latency average = 32.358
	minimum = 7
	maximum = 68
Slowest packet = 21112
Flit latency average = 32.462
	minimum = 7
	maximum = 68
Slowest flit = 21112
Fragmentation average = 0
	minimum = 0
	maximum = 0
Injected packet rate average = 0.020875
	minimum = 0.014 (at node 10)
	maximum = 0.032 (at node 12)
Accepted packet rate average = 0.0205625
	minimum = 0.014 (at node 10)
	maximum = 0.033 (at node 3)
Injected flit rate average = 0.020875
	minimum = 0.014 (at node 10)
	maximum = 0.032 (at node 12)
Accepted flit rate average= 0.0205625
	minimum = 0.014 (at node 10)
	maximum = 0.033 (at node 3)
Injected packet length average = 1
Accepted packet length average = 1
Total in-flight flits = 10 (10 measured)
latency change    = 0.0331403
throughput change = 0.0395137
Class 0:
Packet latency average = 32.4072
	minimum = 7
	maximum = 68
Network latency average = 32.4072
	minimum = 7
	maximum = 68
Slowest packet = 21112
Flit latency average = 32.4598
	minimum = 7
	maximum = 68
Slowest flit = 21112
Fragmentation average = 0
	minimum = 0
	maximum = 0
Injected packet rate average = 0.020125
	minimum = 0.013 (at node 10)
	maximum = 0.024 (at node 12)
Accepted packet rate average = 0.0201875
	minimum = 0.0125 (at node 10)
	maximum = 0.0245 (at node 3)
Injected flit rate average = 0.020125
	minimum = 0.013 (at node 10)
	maximum = 0.024 (at node 12)
Accepted flit rate average= 0.0201875
	minimum = 0.0125 (at node 10)
	maximum = 0.0245 (at node 3)
Injected packet length average = 1
Accepted packet length average = 1
Total in-flight flits = 3 (3 measured)
latency change    = 0.00151669
throughput change = 0.0185759
Class 0:
Packet latency average = 32.4681
	minimum = 7
	maximum = 68
Network latency average = 32.4681
	minimum = 7
	maximum = 68
Slowest packet = 21112
Flit latency average = 32.5031
	minimum = 7
	maximum = 68
Slowest flit = 21112
Fragmentation average = 0
	minimum = 0
	maximum = 0
Injected packet rate average = 0.0199792
	minimum = 0.0133333 (at node 10)
	maximum = 0.0253333 (at node 9)
Accepted packet rate average = 0.02
	minimum = 0.0133333 (at node 10)
	maximum = 0.025 (at node 6)
Injected flit rate average = 0.0199792
	minimum = 0.0133333 (at node 10)
	maximum = 0.0253333 (at node 9)
Accepted flit rate average= 0.02
	minimum = 0.0133333 (at node 10)
	maximum = 0.025 (at node 6)
Injected packet length average = 1
Accepted packet length average = 1
Total in-flight flits = 4 (4 measured)
latency change    = 0.00187527
throughput change = 0.009375
Draining all recorded packets ...
Draining remaining packets ...
Time taken is 6072 cycles
Class 0:
Packet latency average = 33.0188
	minimum = 7
	maximum = 67
Network latency average = 33.0188
	minimum = 7
	maximum = 67
Slowest packet = 21966
Flit latency average = 33.0188
	minimum = 7
	maximum = 67
Slowest flit = 21966
Fragmentation average = 0
	minimum = 0
	maximum = 0
Injected packet rate average = 0.020625
	minimum = 0.011 (at node 8)
	maximum = 0.028 (at node 3)
Accepted packet rate average = 0.0199375
	minimum = 0.011 (at node 2)
	maximum = 0.028 (at node 1)
Injected flit rate average = 0.020625
	minimum = 0.011 (at node 8)
	maximum = 0.028 (at node 3)
Accepted flit rate average= 0.0199375
	minimum = 0.011 (at node 2)
	maximum = 0.028 (at node 1)
Injected packet length average = 1
Accepted packet length average = 1
Total in-flight flits = 11 (0 measured)
latency change    = 1
throughput change = 1
Class 0:
Packet latency average = 32.6084
	minimum = 7
	maximum = 68
Network latency average = 32.6084
	minimum = 7
	maximum = 68
Slowest packet = 22427
Flit latency average = 32.6084
	minimum = 7
	maximum = 68
Slowest flit = 22427
Fragmentation average = 0
	minimum = 0
	maximum = 0
Injected packet rate average = 0.0212188
	minimum = 0.015 (at node 8)
	maximum = 0.0295 (at node 4)
Accepted packet rate average = 0.0209063
	minimum = 0.015 (at node 2)
	maximum = 0.0295 (at node 1)
Injected flit rate average = 0.0212188
	minimum = 0.015 (at node 8)
	maximum = 0.0295 (at node 4)
Accepted flit rate average= 0.0209063
	minimum = 0.015 (at node 2)
	maximum = 0.0295 (at node 1)
Injected packet length average = 1
Accepted packet length average = 1
Total in-flight flits = 10 (0 measured)
latency change    = 0.0125869
throughput change = 0.0463378
Class 0:
Packet latency average = 31.6483
	minimum = 7
	maximum = 61
Network latency average = 31.6483
	minimum = 7
	maximum = 61
Slowest packet = 22576
Flit latency average = 31.6483
	minimum = 7
	maximum = 61
Slowest flit = 22576
Fragmentation average = 0
	minimum = 0
	maximum = 0
Injected packet rate average = 0.01825
	minimum = 0.012 (at node 7)
	maximum = 0.025 (at node 9)
Accepted packet rate average = 0.018125
	minimum = 0.012 (at node 13)
	maximum = 0.028 (at node 6)
Injected flit rate average = 0.01825
	minimum = 0.012 (at node 7)
	maximum = 0.025 (at node 9)
Accepted flit rate average= 0.018125
	minimum = 0.012 (at node 13)
	maximum = 0.028 (at node 6)
Injected packet length average = 1
Accepted packet length average = 1
Total in-flight flits = 12 (0 measured)
latency change    = 0.0303364
throughput change = 0.153448
Warmed up ...Time used is 3000 cycles
Class 0:
Packet latency average = 32.4314
	minimum = 7
	maximum = 67
Network latency average = 32.4314
	minimum = 7
	maximum = 67
Slowest packet = 22948
Flit latency average = 32.4214
	minimum = 7
	maximum = 67
Slowest flit = 22948
Fragmentation average = 0
	minimum = 0
	maximum = 0
Injected packet rate average = 0.0195
	minimum = 0.012 (at node 1)
	maximum = 0.033 (at node 3)
Accepted packet rate average = 0.019875
	minimum = 0.011 (at node 4)
	maximum = 0.032 (at node 12)
Injected flit rate average = 0.0195
	minimum = 0.012 (at node 1)
	maximum = 0.033 (at node 3)
Accepted flit rate average= 0.019875
	minimum = 0.011 (at node 4)
	maximum = 0.032 (at node 12)
Injected packet length average = 1
Accepted packet length average = 1
Total in-flight flits = 6 (6 measured)
latency change    = 0.0241463
throughput change = 0.0880503
Class 0:
Packet latency average = 32.748
	minimum = 7
	maximum = 67
Network latency average = 32.748
	minimum = 7
	maximum = 67
Slowest packet = 22948
Flit latency average = 32.7369
	minimum = 7
	maximum = 67
Slowest flit = 22948
Fragmentation average = 0
	minimum = 0
	maximum = 0
Injected packet rate average = 0.0197188
	minimum = 0.0155 (at node 1)
	maximum = 0.028 (at node 3)
Accepted packet rate average = 0.0197188
	minimum = 0.015 (at node 4)
	maximum = 0.0275 (at node 12)
Injected flit rate average = 0.0197188
	minimum = 0.0155 (at node 1)
	maximum = 0.028 (at node 3)
Accepted flit rate average= 0.0197188
	minimum = 0.015 (at node 4)
	maximum = 0.0275 (at node 12)
Injected packet length average = 1
Accepted packet length average = 1
Total in-flight flits = 12 (12 measured)
latency change    = 0.00966802
throughput change = 0.00792393
Class 0:
Packet latency average = 32.2998
	minimum = 7
	maximum = 67
Network latency average = 32.2998
	minimum = 7
	maximum = 67
Slowest packet = 22948
Flit latency average = 32.2981
	minimum = 7
	maximum = 67
Slowest flit = 22948
Fragmentation average = 0
	minimum = 0
	maximum = 0
Injected packet rate average = 0.019875
	minimum = 0.0173333 (at node 1)
	maximum = 0.0253333 (at node 3)
Accepted packet rate average = 0.0199167
	minimum = 0.017 (at node 13)
	maximum = 0.0256667 (at node 12)
Injected flit rate average = 0.019875
	minimum = 0.0173333 (at node 1)
	maximum = 0.0253333 (at node 3)
Accepted flit rate average= 0.0199167
	minimum = 0.017 (at node 13)
	maximum = 0.0256667 (at node 12)
Injected packet length average = 1
Accepted packet length average = 1
Total in-flight flits = 10 (10 measured)
latency change    = 0.013876
throughput change = 0.00993724
Class 0:
Packet latency average = 32.2709
	minimum = 7
	maximum = 67
Network latency average = 32.2709
	minimum = 7
	maximum = 67
Slowest packet = 22948
Flit latency average = 32.27
	minimum = 7
	maximum = 67
Slowest flit = 22948
Fragmentation average = 0
	minimum = 0
	maximum = 0
Injected packet rate average = 0.0201406
	minimum = 0.01675 (at node 1)
	maximum = 0.02425 (at node 3)
Accepted packet rate average = 0.0201406
	minimum = 0.0165 (at node 4)
	maximum = 0.02475 (at node 3)
Injected flit rate average = 0.0201406
	minimum = 0.01675 (at node 1)
	maximum = 0.02425 (at node 3)
Accepted flit rate average= 0.0201406
	minimum = 0.0165 (at node 4)
	maximum = 0.02475 (at node 3)
Injected packet length average = 1
Accepted packet length average = 1
Total in-flight flits = 12 (12 measured)
latency change    = 0.000893702
throughput change = 0.0111197
Draining all recorded packets ...
Draining remaining packets ...
Time taken is 7077 cycles
Class 0:
Packet latency average = 32.7732
	minimum = 7
	maximum = 67
Network latency average = 32.7732
	minimum = 7
	maximum = 67
Slowest packet = 24236
Flit latency average = 32.7732
	minimum = 7
	maximum = 67
Slowest flit = 24236
Fragmentation average = 0
	minimum = 0
	maximum = 0
Injected packet rate average = 0.0188125
	minimum = 0.011 (at node 6)
	maximum = 0.028 (at node 0)
Accepted packet rate average = 0.0181875
	minimum = 0.011 (at node 9)
	maximum = 0.028 (at node 0)
Injected flit rate average = 0.0188125
	minimum = 0.011 (at node 6)
	maximum = 0.028 (at node 0)
Accepted flit rate average= 0.0181875
	minimum = 0.011 (at node 9)
	maximum = 0.028 (at node 0)
Injected packet length average = 1
Accepted packet length average = 1
Total in-flight flits = 10 (0 measured)
latency change    = 1
throughput change = 1
Class 0:
Packet latency average = 32.5154
	minimum = 7
	maximum = 67
Network latency average = 32.5154
	minimum = 7
	maximum = 67
Slowest packet = 24236
Flit latency average = 32.5154
	minimum = 7
	maximum = 67
Slowest flit = 24236
Fragmentation average = 0
	minimum = 0
	maximum = 0
Injected packet rate average = 0.0196875
	minimum = 0.016 (at node 4)
	maximum = 0.0255 (at node 0)
Accepted packet rate average = 0.0192812
	minimum = 0.016 (at node 1)
	maximum = 0.025 (at node 0)
Injected flit rate average = 0.0196875
	minimum = 0.016 (at node 4)
	maximum = 0.0255 (at node 0)
Accepted flit rate average= 0.0192812
	minimum = 0.016 (at node 1)
	maximum = 0.025 (at node 0)
Injected packet length average = 1
Accepted packet length average = 1
Total in-flight flits = 13 (0 measured)
latency change    = 0.00792851
throughput change = 0.0567261
Class 0:
Packet latency average = 32.0877
	minimum = 7
	maximum = 67
Network latency average = 32.0877
	minimum = 7
	maximum = 67
Slowest packet = 24768
Flit latency average = 32.0877
	minimum = 7
	maximum = 67
Slowest flit = 24768
Fragmentation average = 0
	minimum = 0
	maximum = 0
Injected packet rate average = 0.0213125
	minimum = 0.011 (at node 7)
	maximum = 0.029 (at node 2)
Accepted packet rate average = 0.021375
	minimum = 0.012 (at node 13)
	maximum = 0.03 (at node 8)
Injected flit rate average = 0.0213125
	minimum = 0.011 (at node 7)
	maximum = 0.029 (at node 2)
Accepted flit rate average= 0.021375
	minimum = 0.012 (at node 13)
	maximum = 0.03 (at node 8)
Injected packet length average = 1
Accepted packet length average = 1
Total in-flight flits = 12 (0 measured)
latency change    = 0.0133284
throughput change = 0.0979532
Warmed up ...Time used is 3000 cycles
Class 0:
Packet latency average = 32.4818
	minimum = 7
	maximum = 67
Network latency average = 32.4818
	minimum = 7
	maximum = 67
Slowest packet = 25199
Flit latency average = 32.4196
	minimum = 7
	maximum = 67
Slowest flit = 25199
Fragmentation average = 0
	minimum = 0
	maximum = 0
Injected packet rate average = 0.0175
	minimum = 0.013 (at node 2)
	maximum = 0.027 (at node 12)
Accepted packet rate average = 0.017875
	minimum = 0.013 (at node 8)
	maximum = 0.028 (at node 3)
Injected flit rate average = 0.0175
	minimum = 0.013 (at node 2)
	maximum = 0.027 (at node 12)
Accepted flit rate average= 0.017875
	minimum = 0.013 (at node 8)
	maximum = 0.028 (at node 3)
Injected packet length average = 1
Accepted packet length average = 1
Total in-flight flits = 6 (6 measured)
latency change    = 0.0121309
throughput change = 0.195804
Class 0:
Packet latency average = 32.0068
	minimum = 7
	maximum = 68
Network latency average = 32.0068
	minimum = 7
	maximum = 68
Slowest packet = 25627
Flit latency average = 31.9867
	minimum = 7
	maximum = 68
Slowest flit = 25627
Fragmentation average = 0
	minimum = 0
	maximum = 0
Injected packet rate average = 0.0189062
	minimum = 0.015 (at node 5)
	maximum = 0.026 (at node 12)
Accepted packet rate average = 0.0188437
	minimum = 0.015 (at node 4)
	maximum = 0.0265 (at node 3)
Injected flit rate average = 0.0189062
	minimum = 0.015 (at node 5)
	maximum = 0.026 (at node 12)
Accepted flit rate average= 0.0188437
	minimum = 0.015 (at node 4)
	maximum = 0.0265 (at node 3)
Injected packet length average = 1
Accepted packet length average = 1
Total in-flight flits = 14 (14 measured)
latency change    = 0.0148401
throughput change = 0.0514096
Class 0:
Packet latency average = 32.0713
	minimum = 7
	maximum = 68
Network latency average = 32.0713
	minimum = 7
	maximum = 68
Slowest packet = 25627
Flit latency average = 32.0571
	minimum = 7
	maximum = 68
Slowest flit = 25627
Fragmentation average = 0
	minimum = 0
	maximum = 0
Injected packet rate average = 0.0189792
	minimum = 0.0136667 (at node 5)
	maximum = 0.0243333 (at node 12)
Accepted packet rate average = 0.0189583
	minimum = 0.0146667 (at node 5)
	maximum = 0.0246667 (at node 3)
Injected flit rate average = 0.0189792
	minimum = 0.0136667 (at node 5)
	maximum = 0.0243333 (at node 12)
Accepted flit rate average= 0.0189583
	minimum = 0.0146667 (at node 5)
	maximum = 0.0246667 (at node 3)
Injected packet length average = 1
Accepted packet length average = 1
Total in-flight flits = 13 (13 measured)
latency change    = 0.00201119
throughput change = 0.00604396
Class 0:
Packet latency average = 31.9909
	minimum = 7
	maximum = 68
Network latency average = 31.9909
	minimum = 7
	maximum = 68
Slowest packet = 25627
Flit latency average = 31.9812
	minimum = 7
	maximum = 68
Slowest flit = 25627
Fragmentation average = 0
	minimum = 0
	maximum = 0
Injected packet rate average = 0.0191562
	minimum = 0.01525 (at node 10)
	maximum = 0.024 (at node 6)
Accepted packet rate average = 0.0191406
	minimum = 0.0155 (at node 10)
	maximum = 0.02325 (at node 9)
Injected flit rate average = 0.0191562
	minimum = 0.01525 (at node 10)
	maximum = 0.024 (at node 6)
Accepted flit rate average= 0.0191406
	minimum = 0.0155 (at node 10)
	maximum = 0.02325 (at node 9)
Injected packet length average = 1
Accepted packet length average = 1
Total in-flight flits = 13 (13 measured)
latency change    = 0.00251127
throughput change = 0.00952381
Class 0:
Packet latency average = 32.1632
	minimum = 7
	maximum = 68
Network latency average = 32.1632
	minimum = 7
	maximum = 68
Slowest packet = 25627
Flit latency average = 32.1542
	minimum = 7
	maximum = 68
Slowest flit = 25627
Fragmentation average = 0
	minimum = 0
	maximum = 0
Injected packet rate average = 0.0193875
	minimum = 0.015 (at node 5)
	maximum = 0.0234 (at node 6)
Accepted packet rate average = 0.019375
	minimum = 0.0152 (at node 5)
	maximum = 0.0234 (at node 9)
Injected flit rate average = 0.0193875
	minimum = 0.015 (at node 5)
	maximum = 0.0234 (at node 6)
Accepted flit rate average= 0.019375
	minimum = 0.0152 (at node 5)
	maximum = 0.0234 (at node 9)
Injected packet length average = 1
Accepted packet length average = 1
Total in-flight flits = 13 (13 measured)
latency change    = 0.00535604
throughput change = 0.0120968
Draining all recorded packets ...
Draining remaining packets ...
Time taken is 8074 cycles
Class 0:
Packet latency average = 31.1839
	minimum = 7
	maximum = 62
Network latency average = 31.1839
	minimum = 7
	maximum = 62
Slowest packet = 26819
Flit latency average = 31.1839
	minimum = 7
	maximum = 62
Slowest flit = 26819
Fragmentation average = 0
	minimum = 0
	maximum = 0
Injected packet rate average = 0.0193125
	minimum = 0.011 (at node 6)
	maximum = 0.027 (at node 14)
Accepted packet rate average = 0.0186875
	minimum = 0.011 (at node 9)
	maximum = 0.027 (at node 11)
Injected flit rate average = 0.0193125
	minimum = 0.011 (at node 6)
	maximum = 0.027 (at node 14)
Accepted flit rate average= 0.0186875
	minimum = 0.011 (at node 9)
	maximum = 0.027 (at node 11)
Injected packet length average = 1
Accepted packet length average = 1
Total in-flight flits = 10 (0 measured)
latency change    = 1
throughput change = 1
Class 0:
Packet latency average = 31.8713
	minimum = 7
	maximum = 70
Network latency average = 31.8713
	minimum = 7
	maximum = 70
Slowest packet = 26965
Flit latency average = 31.8713
	minimum = 7
	maximum = 70
Slowest flit = 26965
Fragmentation average = 0
	minimum = 0
	maximum = 0
Injected packet rate average = 0.0201875
	minimum = 0.0155 (at node 13)
	maximum = 0.028 (at node 1)
Accepted packet rate average = 0.0199063
	minimum = 0.0155 (at node 7)
	maximum = 0.0275 (at node 4)
Injected flit rate average = 0.0201875
	minimum = 0.0155 (at node 13)
	maximum = 0.028 (at node 1)
Accepted flit rate average= 0.0199063
	minimum = 0.0155 (at node 7)
	maximum = 0.0275 (at node 4)
Injected packet length average = 1
Accepted packet length average = 1
Total in-flight flits = 9 (0 measured)
latency change    = 0.0215657
throughput change = 0.0612245
Class 0:
Packet latency average = 32.3654
	minimum = 7
	maximum = 66
Network latency average = 32.3654
	minimum = 7
	maximum = 66
Slowest packet = 27583
Flit latency average = 32.3654
	minimum = 7
	maximum = 66
Slowest flit = 27583
Fragmentation average = 0
	minimum = 0
	maximum = 0
Injected packet rate average = 0.019625
	minimum = 0.012 (at node 1)
	maximum = 0.026 (at node 4)
Accepted packet rate average = 0.0195
	minimum = 0.013 (at node 4)
	maximum = 0.026 (at node 1)
Injected flit rate average = 0.019625
	minimum = 0.012 (at node 1)
	maximum = 0.026 (at node 4)
Accepted flit rate average= 0.0195
	minimum = 0.013 (at node 4)
	maximum = 0.026 (at node 1)
Injected packet length average = 1
Accepted packet length average = 1
Total in-flight flits = 11 (0 measured)
latency change    = 0.0152667
throughput change = 0.0208333
Warmed up ...Time used is 3000 cycles
Class 0:
Packet latency average = 31.6367
	minimum = 7
	maximum = 67
Network latency average = 31.6367
	minimum = 7
	maximum = 67
Slowest packet = 27763
Flit latency average = 31.8585
	minimum = 7
	maximum = 67
Slowest flit = 27763
Fragmentation average = 0
	minimum = 0
	maximum = 0
Injected packet rate average = 0.019375
	minimum = 0.012 (at node 15)
	maximum = 0.026 (at node 6)
Accepted packet rate average = 0.0194375
	minimum = 0.013 (at node 15)
	maximum = 0.025 (at node 9)
Injected flit rate average = 0.019375
	minimum = 0.012 (at node 15)
	maximum = 0.026 (at node 6)
Accepted flit rate average= 0.0194375
	minimum = 0.013 (at node 15)
	maximum = 0.025 (at node 9)
Injected packet length average = 1
Accepted packet length average = 1
Total in-flight flits = 10 (10 measured)
latency change    = 0.023034
throughput change = 0.00321543
Class 0:
Packet latency average = 31.5931
	minimum = 7
	maximum = 68
Network latency average = 31.5931
	minimum = 7
	maximum = 68
Slowest packet = 28156
Flit latency average = 31.7047
	minimum = 7
	maximum = 68
Slowest flit = 28156
Fragmentation average = 0
	minimum = 0
	maximum = 0
Injected packet rate average = 0.0194687
	minimum = 0.0155 (at node 7)
	maximum = 0.0255 (at node 13)
Accepted packet rate average = 0.0194687
	minimum = 0.0155 (at node 2)
	maximum = 0.025 (at node 7)
Injected flit rate average = 0.0194687
	minimum = 0.0155 (at node 7)
	maximum = 0.0255 (at node 13)
Accepted flit rate average= 0.0194687
	minimum = 0.0155 (at node 2)
	maximum = 0.025 (at node 7)
Injected packet length average = 1
Accepted packet length average = 1
Total in-flight flits = 11 (11 measured)
latency change    = 0.00137781
throughput change = 0.00160514
Class 0:
Packet latency average = 31.8658
	minimum = 7
	maximum = 68
Network latency average = 31.8658
	minimum = 7
	maximum = 68
Slowest packet = 28156
Flit latency average = 31.9369
	minimum = 7
	maximum = 68
Slowest flit = 28156
Fragmentation average = 0
	minimum = 0
	maximum = 0
Injected packet rate average = 0.0193958
	minimum = 0.0166667 (at node 7)
	maximum = 0.0233333 (at node 13)
Accepted packet rate average = 0.0194792
	minimum = 0.017 (at node 3)
	maximum = 0.0233333 (at node 1)
Injected flit rate average = 0.0193958
	minimum = 0.0166667 (at node 7)
	maximum = 0.0233333 (at node 13)
Accepted flit rate average= 0.0194792
	minimum = 0.017 (at node 3)
	maximum = 0.0233333 (at node 1)
Injected packet length average = 1
Accepted packet length average = 1
Total in-flight flits = 7 (7 measured)
latency change    = 0.00855662
throughput change = 0.000534759
Draining all recorded packets ...
Draining remaining packets ...
Time taken is 6060 cycles
Class 0:
Packet latency average = 32.9812
	minimum = 7
	maximum = 67
Network latency average = 32.9812
	minimum = 7
	maximum = 67
Slowest packet = 28598
Flit latency average = 32.9812
	minimum = 7
	maximum = 67
Slowest flit = 28598
Fragmentation average = 0
	minimum = 0
	maximum = 0
Injected packet rate average = 0.0205625
	minimum = 0.013 (at node 1)
	maximum = 0.026 (at node 13)
Accepted packet rate average = 0.0199375
	minimum = 0.01 (at node 4)
	maximum = 0.025 (at node 7)
Injected flit rate average = 0.0205625
	minimum = 0.013 (at node 1)
	maximum = 0.026 (at node 13)
Accepted flit rate average= 0.0199375
	minimum = 0.01 (at node 4)
	maximum = 0.025 (at node 7)
Injected packet length average = 1
Accepted packet length average = 1
Total in-flight flits = 10 (0 measured)
latency change    = 1
throughput change = 1
Class 0:
Packet latency average = 32.4049
	minimum = 7
	maximum = 67
Network latency average = 32.4049
	minimum = 7
	maximum = 67
Slowest packet = 28598
Flit latency average = 32.4049
	minimum = 7
	maximum = 67
Slowest flit = 28598
Fragmentation average = 0
	minimum = 0
	maximum = 0
Injected packet rate average = 0.0195625
	minimum = 0.016 (at node 2)
	maximum = 0.0235 (at node 15)
Accepted packet rate average = 0.0192187
	minimum = 0.016 (at node 8)
	maximum = 0.0225 (at node 15)
Injected flit rate average = 0.0195625
	minimum = 0.016 (at node 2)
	maximum = 0.0235 (at node 15)
Accepted flit rate average= 0.0192187
	minimum = 0.016 (at node 8)
	maximum = 0.0225 (at node 15)
Injected packet length average = 1
Accepted packet length average = 1
Total in-flight flits = 11 (0 measured)
latency change    = 0.0177848
throughput change = 0.0373984
Class 0:
Packet latency average = 31.738
	minimum = 7
	maximum = 73
Network latency average = 31.738
	minimum = 7
	maximum = 73
Slowest packet = 29422
Flit latency average = 31.738
	minimum = 7
	maximum = 73
Slowest flit = 29422
Fragmentation average = 0
	minimum = 0
	maximum = 0
Injected packet rate average = 0.020625
	minimum = 0.014 (at node 8)
	maximum = 0.027 (at node 2)
Accepted packet rate average = 0.02075
	minimum = 0.013 (at node 2)
	maximum = 0.027 (at node 8)
Injected flit rate average = 0.020625
	minimum = 0.014 (at node 8)
	maximum = 0.027 (at node 2)
Accepted flit rate average= 0.02075
	minimum = 0.013 (at node 2)
	maximum = 0.027 (at node 8)
[...]
Flit latency average = 32.5694
	minimum = 7
	maximum = 68
Slowest flit = 216580
Fragmentation average = 0
	minimum = 0
	maximum = 0
Injected packet rate average = 0.01875
	minimum = 0.012 (at node 5)
	maximum = 0.023 (at node 8)
Accepted packet rate average = 0.018
	minimum = 0.011 (at node 5)
	maximum = 0.023 (at node 15)
Injected flit rate average = 0.01875
	minimum = 0.012 (at node 5)
	maximum = 0.023 (at node 8)
Accepted flit rate average= 0.018
	minimum = 0.011 (at node 5)
	maximum = 0.023 (at node 15)
Injected packet length average = 1
Accepted packet length average = 1
Total in-flight flits = 12 (0 measured)
latency change    = 1
throughput change = 1
Class 0:
Packet latency average = 32.8578
	minimum = 7
	maximum = 73
Network latency average = 32.8578
	minimum = 7
	maximum = 73
Slowest packet = 216780
Flit latency average = 32.8578
	minimum = 7
	maximum = 73
Slowest flit = 216780
Fragmentation average = 0
	minimum = 0
	maximum = 0
Injected packet rate average = 0.01925
	minimum = 0.015 (at node 0)
	maximum = 0.0235 (at node 9)
Accepted packet rate average = 0.019125
	minimum = 0.0145 (at node 0)
	maximum = 0.0235 (at node 6)
Injected flit rate average = 0.01925
	minimum = 0.015 (at node 0)
	maximum = 0.0235 (at node 9)
Accepted flit rate average= 0.019125
	minimum = 0.0145 (at node 0)
	maximum = 0.0235 (at node 6)
Injected packet length average = 1
Accepted packet length average = 1
Total in-flight flits = 4 (0 measured)
latency change    = 0.00877716
throughput change = 0.0588235
Class 0:
Packet latency average = 31.9936
	minimum = 7
	maximum = 67
Network latency average = 31.9936
	minimum = 7
	maximum = 67
Slowest packet = 217176
Flit latency average = 31.9936
	minimum = 7
	maximum = 67
Slowest flit = 217176
Fragmentation average = 0
	minimum = 0
	maximum = 0
Injected packet rate average = 0.019875
	minimum = 0.011 (at node 5)
	maximum = 0.028 (at node 12)
Accepted packet rate average = 0.019625
	minimum = 0.011 (at node 5)
	maximum = 0.027 (at node 3)
Injected flit rate average = 0.019875
	minimum = 0.011 (at node 5)
	maximum = 0.028 (at node 12)
Accepted flit rate average= 0.019625
	minimum = 0.011 (at node 5)
	maximum = 0.027 (at node 3)
Injected packet length average = 1
Accepted packet length average = 1
Total in-flight flits = 8 (0 measured)
latency change    = 0.027012
throughput change = 0.0254777
Warmed up ...Time used is 3000 cycles
Class 0:
Packet latency average = 31.2124
	minimum = 7
	maximum = 67
Network latency average = 31.2124
	minimum = 7
	maximum = 67
Slowest packet = 217377
Flit latency average = 31.2397
	minimum = 7
	maximum = 67
Slowest flit = 217377
Fragmentation average = 0
	minimum = 0
	maximum = 0
Injected packet rate average = 0.01675
	minimum = 0.011 (at node 0)
	maximum = 0.024 (at node 10)
Accepted packet rate average = 0.0166875
	minimum = 0.01 (at node 0)
	maximum = 0.025 (at node 13)
Injected flit rate average = 0.01675
	minimum = 0.011 (at node 0)
	maximum = 0.024 (at node 10)
Accepted flit rate average= 0.0166875
	minimum = 0.01 (at node 0)
	maximum = 0.025 (at node 13)
Injected packet length average = 1
Accepted packet length average = 1
Total in-flight flits = 9 (9 measured)
latency change    = 0.025031
throughput change = 0.17603
Class 0:
Packet latency average = 32.0105
	minimum = 7
	maximum = 67
Network latency average = 32.0105
	minimum = 7
	maximum = 67
Slowest packet = 217377
Flit latency average = 32.012
	minimum = 7
	maximum = 67
Slowest flit = 217377
Fragmentation average = 0
	minimum = 0
	maximum = 0
Injected packet rate average = 0.0183125
	minimum = 0.013 (at node 3)
	maximum = 0.0245 (at node 4)
Accepted packet rate average = 0.0181562
	minimum = 0.0135 (at node 12)
	maximum = 0.0245 (at node 1)
Injected flit rate average = 0.0183125
	minimum = 0.013 (at node 3)
	maximum = 0.0245 (at node 4)
Accepted flit rate average= 0.0181562
	minimum = 0.0135 (at node 12)
	maximum = 0.0245 (at node 1)
Injected packet length average = 1
Accepted packet length average = 1
Total in-flight flits = 13 (13 measured)
latency change    = 0.024933
throughput change = 0.080895
Class 0:
Packet latency average = 32.2865
	minimum = 7
	maximum = 67
Network latency average = 32.2865
	minimum = 7
	maximum = 67
Slowest packet = 217377
Flit latency average = 32.2851
	minimum = 7
	maximum = 67
Slowest flit = 217377
Fragmentation average = 0
	minimum = 0
	maximum = 0
Injected packet rate average = 0.0189792
	minimum = 0.015 (at node 3)
	maximum = 0.0233333 (at node 4)
Accepted packet rate average = 0.019
	minimum = 0.015 (at node 12)
	maximum = 0.0233333 (at node 1)
Injected flit rate average = 0.0189792
	minimum = 0.015 (at node 3)
	maximum = 0.0233333 (at node 4)
Accepted flit rate average= 0.019
	minimum = 0.015 (at node 12)
	maximum = 0.0233333 (at node 1)
Injected packet length average = 1
Accepted packet length average = 1
Total in-flight flits = 7 (7 measured)
latency change    = 0.00854949
throughput change = 0.0444079
Class 0:
Packet latency average = 32.3133
	minimum = 7
	maximum = 67
Network latency average = 32.3133
	minimum = 7
	maximum = 67
Slowest packet = 217377
Flit latency average = 32.312
	minimum = 7
	maximum = 67
Slowest flit = 217377
Fragmentation average = 0
	minimum = 0
	maximum = 0
Injected packet rate average = 0.0193125
	minimum = 0.015 (at node 11)
	maximum = 0.023 (at node 4)
Accepted packet rate average = 0.0193281
	minimum = 0.015 (at node 14)
	maximum = 0.0225 (at node 10)
Injected flit rate average = 0.0193125
	minimum = 0.015 (at node 11)
	maximum = 0.023 (at node 4)
Accepted flit rate average= 0.0193281
	minimum = 0.015 (at node 14)
	maximum = 0.0225 (at node 10)
Injected packet length average = 1
Accepted packet length average = 1
Total in-flight flits = 7 (7 measured)
latency change    = 0.000828093
throughput change = 0.0169766
Class 0:
Packet latency average = 32.3394
	minimum = 7
	maximum = 68
Network latency average = 32.3394
	minimum = 7
	maximum = 68
Slowest packet = 218602
Flit latency average = 32.3383
	minimum = 7
	maximum = 68
Slowest flit = 218602
Fragmentation average = 0
	minimum = 0
	maximum = 0
Injected packet rate average = 0.0193125
	minimum = 0.0162 (at node 14)
	maximum = 0.0228 (at node 4)
Accepted packet rate average = 0.0192875
	minimum = 0.0162 (at node 14)
	maximum = 0.0228 (at node 1)
Injected flit rate average = 0.0193125
	minimum = 0.0162 (at node 14)
	maximum = 0.0228 (at node 4)
Accepted flit rate average= 0.0192875
	minimum = 0.0162 (at node 14)
	maximum = 0.0228 (at node 1)
Injected packet length average = 1
Accepted packet length average = 1
Total in-flight flits = 10 (10 measured)
latency change    = 0.000808638
throughput change = 0.00210629
Draining all recorded packets ...
Draining remaining packets ...
Time taken is 8100 cycles
Class 0:
Packet latency average = 32.709
	minimum = 7
	maximum = 67
Network latency average = 32.709
	minimum = 7
	maximum = 67
Slowest packet = 218839
Flit latency average = 32.709
	minimum = 7
	maximum = 67
Slowest flit = 218839
Fragmentation average = 0
	minimum = 0
	maximum = 0
Injected packet rate average = 0.02075
	minimum = 0.012 (at node 5)
	maximum = 0.027 (at node 9)
Accepted packet rate average = 0.0201875
	minimum = 0.012 (at node 5)
	maximum = 0.027 (at node 6)
Injected flit rate average = 0.02075
	minimum = 0.012 (at node 5)
	maximum = 0.027 (at node 9)
Accepted flit rate average= 0.0201875
	minimum = 0.012 (at node 5)
	maximum = 0.027 (at node 6)
Injected packet length average = 1
Accepted packet length average = 1
Total in-flight flits = 9 (0 measured)
latency change    = 1
throughput change = 1
Class 0:
Packet latency average = 32.2097
	minimum = 7
	maximum = 69
Network latency average = 32.2097
	minimum = 7
	maximum = 69
Slowest packet = 219160
Flit latency average = 32.2097
	minimum = 7
	maximum = 69
Slowest flit = 219160
Fragmentation average = 0
	minimum = 0
	maximum = 0
Injected packet rate average = 0.0208438
	minimum = 0.0145 (at node 2)
	maximum = 0.027 (at node 0)
Accepted packet rate average = 0.0205625
	minimum = 0.0145 (at node 8)
	maximum = 0.027 (at node 0)
Injected flit rate average = 0.0208438
	minimum = 0.0145 (at node 2)
	maximum = 0.027 (at node 0)
Accepted flit rate average= 0.0205625
	minimum = 0.0145 (at node 8)
	maximum = 0.027 (at node 0)
Injected packet length average = 1
Accepted packet length average = 1
Total in-flight flits = 9 (0 measured)
latency change    = 0.0155
throughput change = 0.0182371
Class 0:
Packet latency average = 32.3524
	minimum = 7
	maximum = 67
Network latency average = 32.3524
	minimum = 7
	maximum = 67
Slowest packet = 219471
Flit latency average = 32.3524
	minimum = 7
	maximum = 67
Slowest flit = 219471
Fragmentation average = 0
	minimum = 0
	maximum = 0
Injected packet rate average = 0.0198125
	minimum = 0.011 (at node 10)
	maximum = 0.027 (at node 4)
Accepted packet rate average = 0.0196875
	minimum = 0.011 (at node 10)
	maximum = 0.027 (at node 1)
Injected flit rate average = 0.0198125
	minimum = 0.011 (at node 10)
	maximum = 0.027 (at node 4)
Accepted flit rate average= 0.0196875
	minimum = 0.011 (at node 10)
	maximum = 0.027 (at node 1)
Injected packet length average = 1
Accepted packet length average = 1
Total in-flight flits = 11 (0 measured)
latency change    = 0.0044094
throughput change = 0.0444444
Warmed up ...Time used is 3000 cycles
Class 0:
Packet latency average = 30.7611
	minimum = 7
	maximum = 67
Network latency average = 30.7611
	minimum = 7
	maximum = 67
Slowest packet = 219841
Flit latency average = 31.0559
	minimum = 7
	maximum = 67
Slowest flit = 219841
Fragmentation average = 0
	minimum = 0
	maximum = 0
Injected packet rate average = 0.01875
	minimum = 0.009 (at node 3)
	maximum = 0.025 (at node 4)
Accepted packet rate average = 0.019
	minimum = 0.009 (at node 12)
	maximum = 0.026 (at node 10)
Injected flit rate average = 0.01875
	minimum = 0.009 (at node 3)
	maximum = 0.025 (at node 4)
Accepted flit rate average= 0.019
	minimum = 0.009 (at node 12)
	maximum = 0.026 (at node 10)
Injected packet length average = 1
Accepted packet length average = 1
Total in-flight flits = 7 (7 measured)
latency change    = 0.0517306
throughput change = 0.0361842
Class 0:
Packet latency average = 32.0832
	minimum = 7
	maximum = 67
Network latency average = 32.0832
	minimum = 7
	maximum = 67
Slowest packet = 219841
Flit latency average = 32.2035
	minimum = 7
	maximum = 67
Slowest flit = 219841
Fragmentation average = 0
	minimum = 0
	maximum = 0
Injected packet rate average = 0.0195625
	minimum = 0.0155 (at node 3)
	maximum = 0.0245 (at node 10)
Accepted packet rate average = 0.0195
	minimum = 0.015 (at node 3)
	maximum = 0.024 (at node 10)
Injected flit rate average = 0.0195625
	minimum = 0.0155 (at node 3)
	maximum = 0.0245 (at node 10)
Accepted flit rate average= 0.0195
	minimum = 0.015 (at node 3)
	maximum = 0.024 (at node 10)
Injected packet length average = 1
Accepted packet length average = 1
Total in-flight flits = 13 (13 measured)
latency change    = 0.0412086
throughput change = 0.025641
Class 0:
Packet latency average = 31.7257
	minimum = 7
	maximum = 68
Network latency average = 31.7257
	minimum = 7
	maximum = 68
Slowest packet = 220652
Flit latency average = 31.8081
	minimum = 7
	maximum = 68
Slowest flit = 220652
Fragmentation average = 0
	minimum = 0
	maximum = 0
Injected packet rate average = 0.0200417
	minimum = 0.0156667 (at node 12)
	maximum = 0.0236667 (at node 10)
Accepted packet rate average = 0.0199792
	minimum = 0.0156667 (at node 3)
	maximum = 0.0236667 (at node 10)
Injected flit rate average = 0.0200417
	minimum = 0.0156667 (at node 12)
	maximum = 0.0236667 (at node 10)
Accepted flit rate average= 0.0199792
	minimum = 0.0156667 (at node 3)
	maximum = 0.0236667 (at node 10)
Injected packet length average = 1
Accepted packet length average = 1
Total in-flight flits = 14 (14 measured)
latency change    = 0.0112672
throughput change = 0.0239833
Class 0:
Packet latency average = 31.9049
	minimum = 7
	maximum = 68
Network latency average = 31.9049
	minimum = 7
	maximum = 68
Slowest packet = 220652
Flit latency average = 31.9665
	minimum = 7
	maximum = 68
Slowest flit = 220652
Fragmentation average = 0
	minimum = 0
	maximum = 0
Injected packet rate average = 0.0195469
	minimum = 0.01575 (at node 12)
	maximum = 0.022 (at node 4)
Accepted packet rate average = 0.0195625
	minimum = 0.01575 (at node 3)
	maximum = 0.02175 (at node 1)
Injected flit rate average = 0.0195469
	minimum = 0.01575 (at node 12)
	maximum = 0.022 (at node 4)
Accepted flit rate average= 0.0195625
	minimum = 0.01575 (at node 3)
	maximum = 0.02175 (at node 1)
Injected packet length average = 1
Accepted packet length average = 1
Total in-flight flits = 10 (10 measured)
latency change    = 0.00561597
throughput change = 0.0212993
Draining all recorded packets ...
Draining remaining packets ...
Time taken is 7093 cycles
Class 0:
Packet latency average = 30.9579
	minimum = 7
	maximum = 67
Network latency average = 30.9579
	minimum = 7
	maximum = 67
Slowest packet = 221145
Flit latency average = 30.9579
	minimum = 7
	maximum = 67
Slowest flit = 221145
Fragmentation average = 0
	minimum = 0
	maximum = 0
Injected packet rate average = 0.02
	minimum = 0.014 (at node 12)
	maximum = 0.026 (at node 4)
Accepted packet rate average = 0.0193125
	minimum = 0.014 (at node 3)
	maximum = 0.026 (at node 2)
Injected flit rate average = 0.02
	minimum = 0.014 (at node 12)
	maximum = 0.026 (at node 4)
Accepted flit rate average= 0.0193125
	minimum = 0.014 (at node 3)
	maximum = 0.026 (at node 2)
Injected packet length average = 1
Accepted packet length average = 1
Total in-flight flits = 11 (0 measured)
latency change    = 1
throughput change = 1
Class 0:
Packet latency average = 31.5414
	minimum = 7
	maximum = 67
Network latency average = 31.5414
	minimum = 7
	maximum = 67
Slowest packet = 221145
Flit latency average = 31.5414
	minimum = 7
	maximum = 67
Slowest flit = 221145
Fragmentation average = 0
	minimum = 0
	maximum = 0
Injected packet rate average = 0.02
	minimum = 0.015 (at node 2)
	maximum = 0.025 (at node 9)
Accepted packet rate average = 0.019625
	minimum = 0.0135 (at node 8)
	maximum = 0.025 (at node 6)
Injected flit rate average = 0.02
	minimum = 0.015 (at node 2)
	maximum = 0.025 (at node 9)
Accepted flit rate average= 0.019625
	minimum = 0.0135 (at node 8)
	maximum = 0.025 (at node 6)
Injected packet length average = 1
Accepted packet length average = 1
Total in-flight flits = 12 (0 measured)
latency change    = 0.0184986
throughput change = 0.0159236
Class 0:
Packet latency average = 31.8816
	minimum = 7
	maximum = 67
Network latency average = 31.8816
	minimum = 7
	maximum = 67
Slowest packet = 221738
Flit latency average = 31.8816
	minimum = 7
	maximum = 67
Slowest flit = 221738
Fragmentation average = 0
	minimum = 0
	maximum = 0
Injected packet rate average = 0.02
	minimum = 0.014 (at node 11)
	maximum = 0.03 (at node 13)
Accepted packet rate average = 0.0200625
	minimum = 0.012 (at node 14)
	maximum = 0.028 (at node 7)
Injected flit rate average = 0.02
	minimum = 0.014 (at node 11)
	maximum = 0.03 (at node 13)
Accepted flit rate average= 0.0200625
	minimum = 0.012 (at node 14)
	maximum = 0.028 (at node 7)
Injected packet length average = 1
Accepted packet length average = 1
Total in-flight flits = 11 (0 measured)
latency change    = 0.0106713
throughput change = 0.0218069
Warmed up ...Time used is 3000 cycles
Class 0:
Packet latency average = 32.068
	minimum = 7
	maximum = 67
Network latency average = 32.068
	minimum = 7
	maximum = 67
Slowest packet = 222015
Flit latency average = 32.2459
	minimum = 7
	maximum = 67
Slowest flit = 222015
Fragmentation average = 0
	minimum = 0
	maximum = 0
Injected packet rate average = 0.018875
	minimum = 0.012 (at node 0)
	maximum = 0.028 (at node 7)
Accepted packet rate average = 0.0190625
	minimum = 0.013 (at node 0)
	maximum = 0.027 (at node 13)
Injected flit rate average = 0.018875
	minimum = 0.012 (at node 0)
	maximum = 0.028 (at node 7)
Accepted flit rate average= 0.0190625
	minimum = 0.013 (at node 0)
	maximum = 0.027 (at node 13)
Injected packet length average = 1
Accepted packet length average = 1
Total in-flight flits = 8 (8 measured)
latency change    = 0.00581287
throughput change = 0.052459
Class 0:
Packet latency average = 32.5065
	minimum = 7
	maximum = 67
Network latency average = 32.5065
	minimum = 7
	maximum = 67
Slowest packet = 222015
Flit latency average = 32.5853
	minimum = 7
	maximum = 67
Slowest flit = 222015
Fragmentation average = 0
	minimum = 0
	maximum = 0
Injected packet rate average = 0.019625
	minimum = 0.015 (at node 8)
	maximum = 0.0285 (at node 7)
Accepted packet rate average = 0.0195938
	minimum = 0.0155 (at node 2)
	maximum = 0.027 (at node 13)
Injected flit rate average = 0.019625
	minimum = 0.015 (at node 8)
	maximum = 0.0285 (at node 7)
Accepted flit rate average= 0.0195938
	minimum = 0.0155 (at node 2)
	maximum = 0.027 (at node 13)
Injected packet length average = 1
Accepted packet length average = 1
Total in-flight flits = 12 (12 measured)
latency change    = 0.0134886
throughput change = 0.0271132
Class 0:
Packet latency average = 32.4486
	minimum = 7
	maximum = 67
Network latency average = 32.4486
	minimum = 7
	maximum = 67
Slowest packet = 222015
Flit latency average = 32.5021
	minimum = 7
	maximum = 67
Slowest flit = 222015
Fragmentation average = 0
	minimum = 0
	maximum = 0
Injected packet rate average = 0.0195625
	minimum = 0.016 (at node 8)
	maximum = 0.025 (at node 7)
Accepted packet rate average = 0.0195
	minimum = 0.016 (at node 2)
	maximum = 0.025 (at node 13)
Injected flit rate average = 0.0195625
	minimum = 0.016 (at node 8)
	maximum = 0.025 (at node 7)
Accepted flit rate average= 0.0195
	minimum = 0.016 (at node 2)
	maximum = 0.025 (at node 13)
Injected packet length average = 1
Accepted packet length average = 1
Total in-flight flits = 14 (14 measured)
latency change    = 0.00178266
throughput change = 0.00480769
Class 0:
Packet latency average = 32.2793
	minimum = 7
	maximum = 67
Network latency average = 32.2793
	minimum = 7
	maximum = 67
Slowest packet = 222015
Flit latency average = 32.3219
	minimum = 7
	maximum = 67
Slowest flit = 222015
Fragmentation average = 0
	minimum = 0
	maximum = 0
Injected packet rate average = 0.0190156
	minimum = 0.016 (at node 8)
	maximum = 0.02275 (at node 7)
Accepted packet rate average = 0.0190781
	minimum = 0.016 (at node 10)
	maximum = 0.02225 (at node 13)
Injected flit rate average = 0.0190156
	minimum = 0.016 (at node 8)
	maximum = 0.02275 (at node 7)
Accepted flit rate average= 0.0190781
	minimum = 0.016 (at node 10)
	maximum = 0.02225 (at node 13)
Injected packet length average = 1
Accepted packet length average = 1
Total in-flight flits = 7 (7 measured)
latency change    = 0.00524514
throughput change = 0.022113
Draining all recorded packets ...
Draining remaining packets ...
Time taken is 7078 cycles
====== Overall Traffic Statistics ======
====== Traffic class 0 ======
Packet latency average = 32.2058 (100 samples)
	minimum = 7 (100 samples)
	maximum = 69.95 (100 samples)
Network latency average = 32.2058 (100 samples)
	minimum = 7 (100 samples)
	maximum = 69.95 (100 samples)
Flit latency average = 32.2284 (100 samples)
	minimum = 7 (100 samples)
	maximum = 70 (100 samples)
Fragmentation average = 0 (100 samples)
	minimum = 0 (100 samples)
	maximum = 0 (100 samples)
Injected packet rate average = 0.0199051 (100 samples)
	minimum = 0.0159275 (100 samples)
	maximum = 0.0239363 (100 samples)
Accepted packet rate average = 0.0199068 (100 samples)
	minimum = 0.0159277 (100 samples)
	maximum = 0.0239532 (100 samples)
Injected flit rate average = 0.0199051 (100 samples)
	minimum = 0.0159275 (100 samples)
	maximum = 0.0239363 (100 samples)
Accepted flit rate average = 0.0199068 (100 samples)
	minimum = 0.0159277 (100 samples)
	maximum = 0.0239532 (100 samples)
Injected packet size average = 1 (100 samples)
Accepted packet size average = 1 (100 samples)
Hops average = 6.00005 (100 samples)
Total run time 24.7701
