BEGIN Configuration File: /tmp/tmpjk74u57r.cfg
topology = mesh;
k = 8; n = 2;
routing_function = dor;
num_vcs = 4; vc_buf_size = 4;
wait_for_tail_credit = 1;
vc_allocator = islip; sw_allocator = islip;
alloc_iters = 1;
credit_delay = 2; routing_delay = 1;
vc_alloc_delay = 1; sw_alloc_delay = 1;
input_speedup = 2; output_speedup = 1; internal_speedup = 1.0;
traffic = uniform;
packet_size = 1; sim_type = latency;
injection_rate = 0.01;
warmup_periods = 3; sample_period = 1000; sim_count = 100;
seed = 1;

END Configuration File: /tmp/tmpjk74u57r.cfg
Class 0:
Packet latency average = 33.4328
	minimum = 7
	maximum = 73
Network latency average = 33.4328
	minimum = 7
	maximum = 73
Slowest packet = 251
Flit latency average = 33.4328
	minimum = 7
	maximum = 73
Slowest flit = 251
Fragmentation average = 0
	minimum = 0
	maximum = 0
Injected packet rate average = 0.010375
	minimum = 0.004 (at node 39)
	maximum = 0.016 (at node 5)
Accepted packet rate average = 0.0101094
	minimum = 0.002 (at node 22)
	maximum = 0.02 (at node 63)
Injected flit rate average = 0.010375
	minimum = 0.004 (at node 39)
	maximum = 0.016 (at node 5)
Accepted flit rate average= 0.0101094
	minimum = 0.002 (at node 22)
	maximum = 0.02 (at node 63)
Injected packet length average = 1
Accepted packet length average = 1
Total in-flight flits = 17 (0 measured)
latency change    = 1
throughput change = 1
Class 0:
Packet latency average = 33.0345
	minimum = 7
	maximum = 73
Network latency average = 33.0345
	minimum = 7
	maximum = 73
Slowest packet = 251
Flit latency average = 33.0345
	minimum = 7
	maximum = 73
Slowest flit = 251
Fragmentation average = 0
	minimum = 0
	maximum = 0
Injected packet rate average = 0.0100781
	minimum = 0.005 (at node 39)
	maximum = 0.015 (at node 60)
Accepted packet rate average = 0.00996094
	minimum = 0.0045 (at node 1)
	maximum = 0.0145 (at node 2)
Injected flit rate average = 0.0100781
	minimum = 0.005 (at node 39)
	maximum = 0.015 (at node 60)
Accepted flit rate average= 0.00996094
	minimum = 0.0045 (at node 1)
	maximum = 0.0145 (at node 2)
Injected packet length average = 1
Accepted packet length average = 1
Total in-flight flits = 15 (0 measured)
latency change    = 0.0120558
throughput change = 0.014902
Class 0:
Packet latency average = 33.311
	minimum = 7
	maximum = 72
Network latency average = 33.311
	minimum = 7
	maximum = 72
Slowest packet = 1313
Flit latency average = 33.311
	minimum = 7
	maximum = 72
Slowest flit = 1313
Fragmentation average = 0
	minimum = 0
	maximum = 0
Injected packet rate average = 0.00959375
	minimum = 0.002 (at node 47)
	maximum = 0.021 (at node 57)
Accepted packet rate average = 0.00954687
	minimum = 0.003 (at node 25)
	maximum = 0.02 (at node 63)
Injected flit rate average = 0.00959375
	minimum = 0.002 (at node 47)
	maximum = 0.021 (at node 57)
Accepted flit rate average= 0.00954687
	minimum = 0.003 (at node 25)
	maximum = 0.02 (at node 63)
Injected packet length average = 1
Accepted packet length average = 1
Total in-flight flits = 18 (0 measured)
latency change    = 0.00829924
throughput change = 0.0433715
Warmed up ...Time used is 3000 cycles
Class 0:
Packet latency average = 32.5269
	minimum = 7
	maximum = 77
Network latency average = 32.5269
	minimum = 7
	maximum = 77
Slowest packet = 1906
Flit latency average = 32.6286
	minimum = 7
	maximum = 77
Slowest flit = 1906
Fragmentation average = 0
	minimum = 0
	maximum = 0
Injected packet rate average = 0.00935937
	minimum = 0.005 (at node 21)
	maximum = 0.015 (at node 24)
Accepted packet rate average = 0.00929687
	minimum = 0.004 (at node 18)
	maximum = 0.018 (at node 7)
Injected flit rate average = 0.00935937
	minimum = 0.005 (at node 21)
	maximum = 0.015 (at node 24)
Accepted flit rate average= 0.00929687
	minimum = 0.004 (at node 18)
	maximum = 0.018 (at node 7)
Injected packet length average = 1
Accepted packet length average = 1
Total in-flight flits = 22 (22 measured)
latency change    = 0.0241063
throughput change = 0.0268908
Class 0:
Packet latency average = 32.9178
	minimum = 7
	maximum = 77
Network latency average = 32.9178
	minimum = 7
	maximum = 77
Slowest packet = 1906
Flit latency average = 32.9607
	minimum = 7
	maximum = 77
Slowest flit = 1906
Fragmentation average = 0
	minimum = 0
	maximum = 0
Injected packet rate average = 0.00980469
	minimum = 0.006 (at node 48)
	maximum = 0.0155 (at node 23)
Accepted packet rate average = 0.00974219
	minimum = 0.0065 (at node 23)
	maximum = 0.0155 (at node 45)
Injected flit rate average = 0.00980469
	minimum = 0.006 (at node 48)
	maximum = 0.0155 (at node 23)
Accepted flit rate average= 0.00974219
	minimum = 0.0065 (at node 23)
	maximum = 0.0155 (at node 45)
Injected packet length average = 1
Accepted packet length average = 1
Total in-flight flits = 26 (26 measured)
latency change    = 0.0118767
throughput change = 0.0457097
Class 0:
Packet latency average = 32.827
	minimum = 7
	maximum = 77
Network latency average = 32.827
	minimum = 7
	maximum = 77
Slowest packet = 1906
Flit latency average = 32.8559
	minimum = 7
	maximum = 77
Slowest flit = 1906
Fragmentation average = 0
	minimum = 0
	maximum = 0
Injected packet rate average = 0.00989583
	minimum = 0.00633333 (at node 17)
	maximum = 0.014 (at node 11)
Accepted packet rate average = 0.00990625
	minimum = 0.00566667 (at node 23)
	maximum = 0.0143333 (at node 1)
Injected flit rate average = 0.00989583
	minimum = 0.00633333 (at node 17)
	maximum = 0.014 (at node 11)
Accepted flit rate average= 0.00990625
	minimum = 0.00566667 (at node 23)
	maximum = 0.0143333 (at node 1)
Injected packet length average = 1
Accepted packet length average = 1
Total in-flight flits = 16 (16 measured)
latency change    = 0.00276771
throughput change = 0.0165615
Draining all recorded packets ...
Draining remaining packets ...
Time taken is 6109 cycles
Class 0:
Packet latency average = 33.914
	minimum = 7
	maximum = 72
Network latency average = 33.914
	minimum = 7
	maximum = 72
Slowest packet = 4333
Flit latency average = 33.914
	minimum = 7
	maximum = 72
Slowest flit = 4333
Fragmentation average = 0
	minimum = 0
	maximum = 0
Injected packet rate average = 0.010125
	minimum = 0.004 (at node 12)
	maximum = 0.019 (at node 58)
Accepted packet rate average = 0.0098125
	minimum = 0.004 (at node 39)
	maximum = 0.016 (at node 5)
Injected flit rate average = 0.010125
	minimum = 0.004 (at node 12)
	maximum = 0.019 (at node 58)
Accepted flit rate average= 0.0098125
	minimum = 0.004 (at node 39)
	maximum = 0.016 (at node 5)
Injected packet length average = 1
Accepted packet length average = 1
Total in-flight flits = 20 (0 measured)
latency change    = 1
throughput change = 1
Class 0:
Packet latency average = 33.5139
	minimum = 7
	maximum = 77
Network latency average = 33.5139
	minimum = 7
	maximum = 77
Slowest packet = 4811
Flit latency average = 33.5139
	minimum = 7
	maximum = 77
Slowest flit = 4811
Fragmentation average = 0
	minimum = 0
	maximum = 0
Injected packet rate average = 0.0105625
	minimum = 0.0055 (at node 25)
	maximum = 0.0155 (at node 23)
Accepted packet rate average = 0.0103672
	minimum = 0.0055 (at node 57)
	maximum = 0.0155 (at node 46)
Injected flit rate average = 0.0105625
	minimum = 0.0055 (at node 25)
	maximum = 0.0155 (at node 23)
Accepted flit rate average= 0.0103672
	minimum = 0.0055 (at node 57)
	maximum = 0.0155 (at node 46)
Injected packet length average = 1
Accepted packet length average = 1
Total in-flight flits = 25 (0 measured)
latency change    = 0.0119375
throughput change = 0.0535041
Class 0:
Packet latency average = 33.8951
	minimum = 7
	maximum = 67
Network latency average = 33.8951
	minimum = 7
	maximum = 67
Slowest packet = 5146
Flit latency average = 33.8951
	minimum = 7
	maximum = 67
Slowest flit = 5146
Fragmentation average = 0
	minimum = 0
	maximum = 0
Injected packet rate average = 0.01025
	minimum = 0.004 (at node 3)
	maximum = 0.018 (at node 23)
Accepted packet rate average = 0.0102813
	minimum = 0.004 (at node 24)
	maximum = 0.018 (at node 61)
Injected flit rate average = 0.01025
	minimum = 0.004 (at node 3)
	maximum = 0.018 (at node 23)
Accepted flit rate average= 0.0102813
	minimum = 0.004 (at node 24)
	maximum = 0.018 (at node 61)
Injected packet length average = 1
Accepted packet length average = 1
Total in-flight flits = 23 (0 measured)
latency change    = 0.0112463
throughput change = 0.00835866
Warmed up ...Time used is 3000 cycles
Class 0:
Packet latency average = 32.5979
	minimum = 7
	maximum = 72
Network latency average = 32.5979
	minimum = 7
	maximum = 72
Slowest packet = 5929
Flit latency average = 32.9719
	minimum = 7
	maximum = 72
Slowest flit = 5929
Fragmentation average = 0
	minimum = 0
	maximum = 0
Injected packet rate average = 0.00932812
	minimum = 0.003 (at node 50)
	maximum = 0.014 (at node 1)
Accepted packet rate average = 0.00945312
	minimum = 0.003 (at node 10)
	maximum = 0.018 (at node 28)
Injected flit rate average = 0.00932812
	minimum = 0.003 (at node 50)
	maximum = 0.014 (at node 1)
Accepted flit rate average= 0.00945312
	minimum = 0.003 (at node 10)
	maximum = 0.018 (at node 28)
Injected packet length average = 1
Accepted packet length average = 1
Total in-flight flits = 15 (15 measured)
latency change    = 0.0397939
throughput change = 0.0876033
Class 0:
Packet latency average = 33.6264
	minimum = 7
	maximum = 77
Network latency average = 33.6264
	minimum = 7
	maximum = 77
Slowest packet = 6500
Flit latency average = 33.7866
	minimum = 7
	maximum = 77
Slowest flit = 6500
Fragmentation average = 0
	minimum = 0
	maximum = 0
Injected packet rate average = 0.00985938
	minimum = 0.005 (at node 12)
	maximum = 0.0155 (at node 25)
Accepted packet rate average = 0.00988281
	minimum = 0.0045 (at node 10)
	maximum = 0.016 (at node 22)
Injected flit rate average = 0.00985938
	minimum = 0.005 (at node 12)
	maximum = 0.0155 (at node 25)
Accepted flit rate average= 0.00988281
	minimum = 0.0045 (at node 10)
	maximum = 0.016 (at node 22)
Injected packet length average = 1
Accepted packet length average = 1
Total in-flight flits = 20 (20 measured)
latency change    = 0.0305852
throughput change = 0.0434783
Class 0:
Packet latency average = 33.4768
	minimum = 7
	maximum = 77
Network latency average = 33.4768
	minimum = 7
	maximum = 77
Slowest packet = 6500
Flit latency average = 33.5854
	minimum = 7
	maximum = 77
Slowest flit = 6500
Fragmentation average = 0
	minimum = 0
	maximum = 0
Injected packet rate average = 0.00985417
	minimum = 0.00666667 (at node 6)
	maximum = 0.0146667 (at node 51)
Accepted packet rate average = 0.00988542
	minimum = 0.006 (at node 12)
	maximum = 0.0146667 (at node 22)
Injected flit rate average = 0.00985417
	minimum = 0.00666667 (at node 6)
	maximum = 0.0146667 (at node 51)
Accepted flit rate average= 0.00988542
	minimum = 0.006 (at node 12)
	maximum = 0.0146667 (at node 22)
Injected packet length average = 1
Accepted packet length average = 1
Total in-flight flits = 17 (17 measured)
latency change    = 0.00446904
throughput change = 0.000263435
Class 0:
Packet latency average = 33.303
	minimum = 7
	maximum = 77
Network latency average = 33.303
	minimum = 7
	maximum = 77
Slowest packet = 6500
Flit latency average = 33.3861
	minimum = 7
	maximum = 77
Slowest flit = 6500
Fragmentation average = 0
	minimum = 0
	maximum = 0
Injected packet rate average = 0.00985156
	minimum = 0.0065 (at node 12)
	maximum = 0.013 (at node 48)
Accepted packet rate average = 0.00986328
	minimum = 0.00725 (at node 6)
	maximum = 0.01425 (at node 22)
Injected flit rate average = 0.00985156
	minimum = 0.0065 (at node 12)
	maximum = 0.013 (at node 48)
Accepted flit rate average= 0.00986328
	minimum = 0.00725 (at node 6)
	maximum = 0.01425 (at node 22)
Injected packet length average = 1
Accepted packet length average = 1
Total in-flight flits = 20 (20 measured)
latency change    = 0.00522003
throughput change = 0.00224422
Draining all recorded packets ...
Draining remaining packets ...
Time taken is 7091 cycles
Class 0:
Packet latency average = 32.3361
	minimum = 7
	maximum = 72
Network latency average = 32.3361
	minimum = 7
	maximum = 72
Slowest packet = 8649
Flit latency average = 32.3361
	minimum = 7
	maximum = 72
Slowest flit = 8649
Fragmentation average = 0
	minimum = 0
	maximum = 0
Injected packet rate average = 0.00979688
	minimum = 0.004 (at node 36)
	maximum = 0.019 (at node 12)
Accepted packet rate average = 0.0094375
	minimum = 0.004 (at node 21)
	maximum = 0.015 (at node 6)
Injected flit rate average = 0.00979688
	minimum = 0.004 (at node 36)
	maximum = 0.019 (at node 12)
Accepted flit rate average= 0.0094375
	minimum = 0.004 (at node 21)
	maximum = 0.015 (at node 6)
Injected packet length average = 1
Accepted packet length average = 1
Total in-flight flits = 23 (0 measured)
latency change    = 1
throughput change = 1
Class 0:
Packet latency average = 32.785
	minimum = 7
	maximum = 72
Network latency average = 32.785
	minimum = 7
	maximum = 72
Slowest packet = 8649
Flit latency average = 32.785
	minimum = 7
	maximum = 72
Slowest flit = 8649
Fragmentation average = 0
	minimum = 0
	maximum = 0
Injected packet rate average = 0.00979688
	minimum = 0.005 (at node 36)
	maximum = 0.016 (at node 12)
Accepted packet rate average = 0.00966406
	minimum = 0.006 (at node 38)
	maximum = 0.0135 (at node 5)
Injected flit rate average = 0.00979688
	minimum = 0.005 (at node 36)
	maximum = 0.016 (at node 12)
Accepted flit rate average= 0.00966406
	minimum = 0.006 (at node 38)
	maximum = 0.0135 (at node 5)
Injected packet length average = 1
Accepted packet length average = 1
Total in-flight flits = 17 (0 measured)
latency change    = 0.0136914
throughput change = 0.0234438
Class 0:
Packet latency average = 34.221
	minimum = 7
	maximum = 77
Network latency average = 34.221
	minimum = 7
	maximum = 77
Slowest packet = 9638
Flit latency average = 34.221
	minimum = 7
	maximum = 77
Slowest flit = 9638
Fragmentation average = 0
	minimum = 0
	maximum = 0
Injected packet rate average = 0.0098125
	minimum = 0.003 (at node 38)
	maximum = 0.017 (at node 4)
Accepted packet rate average = 0.0096875
	minimum = 0.003 (at node 9)
	maximum = 0.019 (at node 56)
Injected flit rate average = 0.0098125
	minimum = 0.003 (at node 38)
	maximum = 0.017 (at node 4)
Accepted flit rate average= 0.0096875
	minimum = 0.003 (at node 9)
	maximum = 0.019 (at node 56)
Injected packet length average = 1
Accepted packet length average = 1
Total in-flight flits = 25 (0 measured)
latency change    = 0.0419627
throughput change = 0.00241935
Warmed up ...Time used is 3000 cycles
Class 0:
Packet latency average = 32.7578
	minimum = 7
	maximum = 77
Network latency average = 32.7578
	minimum = 7
	maximum = 77
Slowest packet = 10740
Flit latency average = 33.0493
	minimum = 7
	maximum = 77
Slowest flit = 10740
Fragmentation average = 0
	minimum = 0
	maximum = 0
Injected packet rate average = 0.0104219
	minimum = 0.003 (at node 18)
	maximum = 0.018 (at node 54)
Accepted packet rate average = 0.0104531
	minimum = 0.005 (at node 14)
	maximum = 0.019 (at node 36)
Injected flit rate average = 0.0104219
	minimum = 0.003 (at node 18)
	maximum = 0.018 (at node 54)
Accepted flit rate average= 0.0104531
	minimum = 0.005 (at node 14)
	maximum = 0.019 (at node 36)
Injected packet length average = 1
Accepted packet length average = 1
Total in-flight flits = 23 (23 measured)
latency change    = 0.0446674
throughput change = 0.0732436
Class 0:
Packet latency average = 32.9014
	minimum = 7
	maximum = 77
Network latency average = 32.9014
	minimum = 7
	maximum = 77
Slowest packet = 10740
Flit latency average = 33.0483
	minimum = 7
	maximum = 77
Slowest flit = 10740
Fragmentation average = 0
	minimum = 0
	maximum = 0
Injected packet rate average = 0.0101563
	minimum = 0.005 (at node 50)
	maximum = 0.016 (at node 44)
Accepted packet rate average = 0.0101797
	minimum = 0.006 (at node 56)
	maximum = 0.015 (at node 61)
Injected flit rate average = 0.0101563
	minimum = 0.005 (at node 50)
	maximum = 0.016 (at node 44)
Accepted flit rate average= 0.0101797
	minimum = 0.006 (at node 56)
	maximum = 0.015 (at node 61)
Injected packet length average = 1
Accepted packet length average = 1
Total in-flight flits = 22 (22 measured)
latency change    = 0.00436591
throughput change = 0.0268611
Class 0:
Packet latency average = 33.062
	minimum = 7
	maximum = 77
Network latency average = 33.062
	minimum = 7
	maximum = 77
Slowest packet = 10740
Flit latency average = 33.1577
	minimum = 7
	maximum = 77
Slowest flit = 10740
Fragmentation average = 0
	minimum = 0
	maximum = 0
Injected packet rate average = 0.0101875
	minimum = 0.00666667 (at node 26)
	maximum = 0.014 (at node 20)
Accepted packet rate average = 0.0102031
	minimum = 0.00666667 (at node 60)
	maximum = 0.0156667 (at node 63)
Injected flit rate average = 0.0101875
	minimum = 0.00666667 (at node 26)
	maximum = 0.014 (at node 20)
Accepted flit rate average= 0.0102031
	minimum = 0.00666667 (at node 60)
	maximum = 0.0156667 (at node 63)
Injected packet length average = 1
Accepted packet length average = 1
Total in-flight flits = 22 (22 measured)
latency change    = 0.00485872
throughput change = 0.00229709
Class 0:
Packet latency average = 33.0526
	minimum = 7
	maximum = 77
Network latency average = 33.0526
	minimum = 7
	maximum = 77
Slowest packet = 10740
Flit latency average = 33.125
	minimum = 7
	maximum = 77
Slowest flit = 10740
Fragmentation average = 0
	minimum = 0
	maximum = 0
Injected packet rate average = 0.0101406
	minimum = 0.00725 (at node 6)
	maximum = 0.01325 (at node 12)
Accepted packet rate average = 0.0101289
	minimum = 0.00675 (at node 45)
	maximum = 0.015 (at node 52)
Injected flit rate average = 0.0101406
	minimum = 0.00725 (at node 6)
	maximum = 0.01325 (at node 12)
Accepted flit rate average= 0.0101289
	minimum = 0.00675 (at node 45)
	maximum = 0.015 (at node 52)
Injected packet length average = 1
Accepted packet length average = 1
Total in-flight flits = 28 (28 measured)
latency change    = 0.000286739
throughput change = 0.00732742
Draining all recorded packets ...
Draining remaining packets ...
Time taken is 7112 cycles
Class 0:
Packet latency average = 33.3929
	minimum = 7
	maximum = 72
Network latency average = 33.3929
	minimum = 7
	maximum = 72
Slowest packet = 13148
Flit latency average = 33.3929
	minimum = 7
	maximum = 72
Slowest flit = 13148
Fragmentation average = 0
	minimum = 0
	maximum = 0
Injected packet rate average = 0.0096875
	minimum = 0.005 (at node 17)
	maximum = 0.018 (at node 33)
Accepted packet rate average = 0.00926562
	minimum = 0.004 (at node 50)
	maximum = 0.019 (at node 26)
Injected flit rate average = 0.0096875
	minimum = 0.005 (at node 17)
	maximum = 0.018 (at node 33)
Accepted flit rate average= 0.00926562
	minimum = 0.004 (at node 50)
	maximum = 0.019 (at node 26)
Injected packet length average = 1
Accepted packet length average = 1
Total in-flight flits = 27 (0 measured)
latency change    = 1
throughput change = 1
Class 0:
Packet latency average = 33.6008
	minimum = 7
	maximum = 77
Network latency average = 33.6008
	minimum = 7
	maximum = 77
Slowest packet = 13710
Flit latency average = 33.6008
	minimum = 7
	maximum = 77
Slowest flit = 13710
Fragmentation average = 0
	minimum = 0
	maximum = 0
Injected packet rate average = 0.00958594
	minimum = 0.0055 (at node 2)
	maximum = 0.0155 (at node 33)
Accepted packet rate average = 0.00941406
	minimum = 0.0045 (at node 61)
	maximum = 0.0145 (at node 46)
Injected flit rate average = 0.00958594
	minimum = 0.0055 (at node 2)
	maximum = 0.0155 (at node 33)
Accepted flit rate average= 0.00941406
	minimum = 0.0045 (at node 61)
	maximum = 0.0145 (at node 46)
Injected packet length average = 1
Accepted packet length average = 1
Total in-flight flits = 22 (0 measured)
latency change    = 0.00618772
throughput change = 0.0157676
Class 0:
Packet latency average = 32.7941
	minimum = 7
	maximum = 77
Network latency average = 32.7941
	minimum = 7
	maximum = 77
Slowest packet = 14487
Flit latency average = 32.7941
	minimum = 7
	maximum = 77
Slowest flit = 14487
Fragmentation average = 0
	minimum = 0
	maximum = 0
Injected packet rate average = 0.00940625
	minimum = 0.004 (at node 16)
	maximum = 0.019 (at node 15)
Accepted packet rate average = 0.00948437
	minimum = 0.003 (at node 25)
	maximum = 0.017 (at node 9)
Injected flit rate average = 0.00940625
	minimum = 0.004 (at node 16)
	maximum = 0.019 (at node 15)
Accepted flit rate average= 0.00948437
	minimum = 0.003 (at node 25)
	maximum = 0.017 (at node 9)
Injected packet length average = 1
Accepted packet length average = 1
Total in-flight flits = 17 (0 measured)
latency change    = 0.0246008
throughput change = 0.00741351
Warmed up ...Time used is 3000 cycles
Class 0:
Packet latency average = 32.6908
	minimum = 7
	maximum = 72
Network latency average = 32.6908
	minimum = 7
	maximum = 72
Slowest packet = 14945
Flit latency average = 32.933
	minimum = 7
	maximum = 77
Slowest flit = 14747
Fragmentation average = 0
	minimum = 0
	maximum = 0
Injected packet rate average = 0.00959375
	minimum = 0.003 (at node 0)
	maximum = 0.018 (at node 28)
Accepted packet rate average = 0.0095625
	minimum = 0.004 (at node 0)
	maximum = 0.016 (at node 25)
Injected flit rate average = 0.00959375
	minimum = 0.003 (at node 0)
	maximum = 0.018 (at node 28)
Accepted flit rate average= 0.0095625
	minimum = 0.004 (at node 0)
	maximum = 0.016 (at node 25)
Injected packet length average = 1
Accepted packet length average = 1
Total in-flight flits = 19 (19 measured)
latency change    = 0.00316031
throughput change = 0.00816993
Class 0:
Packet latency average = 33.7534
	minimum = 7
	maximum = 72
Network latency average = 33.7534
	minimum = 7
	maximum = 72
Slowest packet = 14945
Flit latency average = 33.8576
	minimum = 7
	maximum = 77
Slowest flit = 14747
Fragmentation average = 0
	minimum = 0
	maximum = 0
Injected packet rate average = 0.00973437
	minimum = 0.0055 (at node 14)
	maximum = 0.0145 (at node 3)
Accepted packet rate average = 0.00976562
	minimum = 0.0045 (at node 18)
	maximum = 0.0155 (at node 36)
Injected flit rate average = 0.00973437
	minimum = 0.0055 (at node 14)
	maximum = 0.0145 (at node 3)
Accepted flit rate average= 0.00976562
	minimum = 0.0045 (at node 18)
	maximum = 0.0155 (at node 36)
Injected packet length average = 1
Accepted packet length average = 1
Total in-flight flits = 13 (13 measured)
latency change    = 0.0314839
throughput change = 0.0208
Class 0:
Packet latency average = 33.2862
	minimum = 7
	maximum = 72
Network latency average = 33.2862
	minimum = 7
	maximum = 72
Slowest packet = 14945
Flit latency average = 33.3595
	minimum = 7
	maximum = 77
Slowest flit = 14747
Fragmentation average = 0
	minimum = 0
	maximum = 0
Injected packet rate average = 0.00983333
	minimum = 0.00633333 (at node 18)
	maximum = 0.0136667 (at node 11)
Accepted packet rate average = 0.00980729
	minimum = 0.006 (at node 24)
	maximum = 0.014 (at node 25)
Injected flit rate average = 0.00983333
	minimum = 0.00633333 (at node 18)
	maximum = 0.0136667 (at node 11)
Accepted flit rate average= 0.00980729
	minimum = 0.006 (at node 24)
	maximum = 0.014 (at node 25)
Injected packet length average = 1
Accepted packet length average = 1
Total in-flight flits = 22 (22 measured)
latency change    = 0.0140381
throughput change = 0.00424854
Draining all recorded packets ...
Draining remaining packets ...
Time taken is 6096 cycles
Class 0:
Packet latency average = 33.3921
	minimum = 7
	maximum = 72
Network latency average = 33.3921
	minimum = 7
	maximum = 72
Slowest packet = 16745
Flit latency average = 33.3921
	minimum = 7
	maximum = 72
Slowest flit = 16745
Fragmentation average = 0
	minimum = 0
	maximum = 0
Injected packet rate average = 0.0100625
	minimum = 0.002 (at node 30)
	maximum = 0.02 (at node 63)
Accepted packet rate average = 0.00984375
	minimum = 0.004 (at node 13)
	maximum = 0.017 (at node 63)
Injected flit rate average = 0.0100625
	minimum = 0.002 (at node 30)
	maximum = 0.02 (at node 63)
Accepted flit rate average= 0.00984375
	minimum = 0.004 (at node 13)
	maximum = 0.017 (at node 63)
Injected packet length average = 1
Accepted packet length average = 1
Total in-flight flits = 14 (0 measured)
latency change    = 1
throughput change = 1
Class 0:
Packet latency average = 33.9417
	minimum = 7
	maximum = 77
Network latency average = 33.9417
	minimum = 7
	maximum = 77
Slowest packet = 17571
Flit latency average = 33.9417
	minimum = 7
	maximum = 77
Slowest flit = 17571
Fragmentation average = 0
	minimum = 0
	maximum = 0
Injected packet rate average = 0.0104375
	minimum = 0.0055 (at node 19)
	maximum = 0.0165 (at node 33)
Accepted packet rate average = 0.0101797
	minimum = 0.0055 (at node 50)
	maximum = 0.0145 (at node 19)
Injected flit rate average = 0.0104375
	minimum = 0.0055 (at node 19)
	maximum = 0.0165 (at node 33)
Accepted flit rate average= 0.0101797
	minimum = 0.0055 (at node 50)
	maximum = 0.0145 (at node 19)
Injected packet length average = 1
Accepted packet length average = 1
Total in-flight flits = 33 (0 measured)
latency change    = 0.0161928
throughput change = 0.0330008
Class 0:
Packet latency average = 33.8177
	minimum = 7
	maximum = 77
Network latency average = 33.8177
	minimum = 7
	maximum = 77
Slowest packet = 18063
Flit latency average = 33.8177
	minimum = 7
	maximum = 77
Slowest flit = 18063
Fragmentation average = 0
	minimum = 0
	maximum = 0
Injected packet rate average = 0.00960937
	minimum = 0.003 (at node 45)
	maximum = 0.018 (at node 57)
Accepted packet rate average = 0.00985938
	minimum = 0 (at node 21)
	maximum = 0.016 (at node 19)
Injected flit rate average = 0.00960937
	minimum = 0.003 (at node 45)
	maximum = 0.018 (at node 57)
Accepted flit rate average= 0.00985938
	minimum = 0 (at node 21)
	maximum = 0.016 (at node 19)
Injected packet length average = 1
Accepted packet length average = 1
Total in-flight flits = 17 (0 measured)
latency change    = 0.00366445
throughput change = 0.0324881
Warmed up ...Time used is 3000 cycles
Class 0:
Packet latency average = 32.4408
	minimum = 7
	maximum = 72
Network latency average = 32.4408
	minimum = 7
	maximum = 72
Slowest packet = 18704
Flit latency average = 32.7129
	minimum = 7
	maximum = 72
Slowest flit = 18704
Fragmentation average = 0
	minimum = 0
	maximum = 0
Injected packet rate average = 0.0100469
	minimum = 0.004 (at node 34)
	maximum = 0.019 (at node 1)
Accepted packet rate average = 0.00990625
	minimum = 0.004 (at node 39)
	maximum = 0.017 (at node 22)
Injected flit rate average = 0.0100469
	minimum = 0.004 (at node 34)
	maximum = 0.019 (at node 1)
Accepted flit rate average= 0.00990625
	minimum = 0.004 (at node 39)
	maximum = 0.017 (at node 22)
Injected packet length average = 1
Accepted packet length average = 1
Total in-flight flits = 26 (26 measured)
latency change    = 0.0424436
throughput change = 0.00473186
Class 0:
Packet latency average = 32.7268
	minimum = 7
	maximum = 72
Network latency average = 32.7268
	minimum = 7
	maximum = 72
Slowest packet = 18704
Flit latency average = 32.8593
	minimum = 7
	maximum = 72
Slowest flit = 18704
Fragmentation average = 0
	minimum = 0
	maximum = 0
Injected packet rate average = 0.00992188
	minimum = 0.0055 (at node 16)
	maximum = 0.015 (at node 1)
Accepted packet rate average = 0.00988281
	minimum = 0.0065 (at node 0)
	maximum = 0.017 (at node 37)
Injected flit rate average = 0.00992188
	minimum = 0.0055 (at node 16)
	maximum = 0.015 (at node 1)
Accepted flit rate average= 0.00988281
	minimum = 0.0065 (at node 0)
	maximum = 0.017 (at node 37)
Injected packet length average = 1
Accepted packet length average = 1
Total in-flight flits = 22 (22 measured)
latency change    = 0.00873658
throughput change = 0.00237154
Class 0:
Packet latency average = 32.959
	minimum = 7
	maximum = 72
Network latency average = 32.959
	minimum = 7
	maximum = 72
Slowest packet = 18704
Flit latency average = 33.0454
	minimum = 7
	maximum = 72
Slowest flit = 18704
Fragmentation average = 0
	minimum = 0
	maximum = 0
Injected packet rate average = 0.00982813
	minimum = 0.00666667 (at node 16)
	maximum = 0.014 (at node 1)
Accepted packet rate average = 0.00986458
	minimum = 0.007 (at node 28)
	maximum = 0.0166667 (at node 37)
Injected flit rate average = 0.00982813
	minimum = 0.00666667 (at node 16)
	maximum = 0.014 (at node 1)
Accepted flit rate average= 0.00986458
	minimum = 0.007 (at node 28)
	maximum = 0.0166667 (at node 37)
Injected packet length average = 1
Accepted packet length average = 1
Total in-flight flits = 10 (10 measured)
latency change    = 0.00704555
throughput change = 0.00184794
Draining all recorded packets ...
Draining remaining packets ...
Time taken is 6106 cycles
Class 0:
Packet latency average = 33.3708
	minimum = 7
	maximum = 72
Network latency average = 33.3708
	minimum = 7
	maximum = 72
Slowest packet = 20641
Flit latency average = 33.3708
	minimum = 7
	maximum = 72
Slowest flit = 20641
Fragmentation average = 0
	minimum = 0
	maximum = 0
Injected packet rate average = 0.0105625
	minimum = 0.004 (at node 16)
	maximum = 0.019 (at node 62)
Accepted packet rate average = 0.0102813
	minimum = 0.004 (at node 60)
	maximum = 0.017 (at node 21)
Injected flit rate average = 0.0105625
	minimum = 0.004 (at node 16)
	maximum = 0.019 (at node 62)
Accepted flit rate average= 0.0102813
	minimum = 0.004 (at node 60)
	maximum = 0.017 (at node 21)
Injected packet length average = 1
Accepted packet length average = 1
Total in-flight flits = 18 (0 measured)
latency change    = 1
throughput change = 1
Class 0:
Packet latency average = 33.623
	minimum = 7
	maximum = 77
Network latency average = 33.623
	minimum = 7
	maximum = 77
Slowest packet = 21458
Flit latency average = 33.623
	minimum = 7
	maximum = 77
Slowest flit = 21458
Fragmentation average = 0
	minimum = 0
	maximum = 0
Injected packet rate average = 0.0105156
	minimum = 0.006 (at node 45)
	maximum = 0.0175 (at node 42)
Accepted packet rate average = 0.0103203
	minimum = 0.0055 (at node 27)
	maximum = 0.0155 (at node 4)
Injected flit rate average = 0.0105156
	minimum = 0.006 (at node 45)
	maximum = 0.0175 (at node 42)
Accepted flit rate average= 0.0103203
	minimum = 0.0055 (at node 27)
	maximum = 0.0155 (at node 4)
Injected packet length average = 1
Accepted packet length average = 1
Total in-flight flits = 25 (0 measured)
latency change    = 0.00750058
throughput change = 0.00378501
Class 0:
Packet latency average = 32.6755
	minimum = 7
	maximum = 77
Network latency average = 32.6755
	minimum = 7
	maximum = 77
Slowest packet = 22089
Flit latency average = 32.6755
	minimum = 7
	maximum = 77
Slowest flit = 22089
Fragmentation average = 0
	minimum = 0
	maximum = 0
Injected packet rate average = 0.0104688
	minimum = 0.003 (at node 31)
	maximum = 0.019 (at node 54)
Accepted packet rate average = 0.0105938
	minimum = 0.005 (at node 20)
	maximum = 0.019 (at node 7)
Injected flit rate average = 0.0104688
	minimum = 0.003 (at node 31)
	maximum = 0.019 (at node 54)
Accepted flit rate average= 0.0105938
	minimum = 0.005 (at node 20)
	maximum = 0.019 (at node 7)
Injected packet length average = 1
Accepted packet length average = 1
Total in-flight flits = 17 (0 measured)
latency change    = 0.0289971
throughput change = 0.0258112
Warmed up ...Time used is 3000 cycles
Class 0:
Packet latency average = 33.1696
	minimum = 7
	maximum = 77
Network latency average = 33.1696
	minimum = 7
	maximum = 77
Slowest packet = 22715
Flit latency average = 33.4891
	minimum = 7
	maximum = 77
Slowest flit = 22715
Fragmentation average = 0
	minimum = 0
	maximum = 0
Injected packet rate average = 0.0100469
	minimum = 0.004 (at node 18)
	maximum = 0.019 (at node 48)
Accepted packet rate average = 0.0100313
	minimum = 0.002 (at node 8)
	maximum = 0.017 (at node 62)
Injected flit rate average = 0.0100469
	minimum = 0.004 (at node 18)
	maximum = 0.019 (at node 48)
Accepted flit rate average= 0.0100313
	minimum = 0.002 (at node 8)
	maximum = 0.017 (at node 62)
Injected packet length average = 1
Accepted packet length average = 1
Total in-flight flits = 18 (18 measured)
latency change    = 0.0148957
throughput change = 0.0560748
Class 0:
Packet latency average = 33.0681
	minimum = 7
	maximum = 77
Network latency average = 33.0681
	minimum = 7
	maximum = 77
Slowest packet = 22715
Flit latency average = 33.2336
	minimum = 7
	maximum = 77
Slowest flit = 22715
Fragmentation average = 0
	minimum = 0
	maximum = 0
Injected packet rate average = 0.00982031
	minimum = 0.004 (at node 7)
	maximum = 0.0155 (at node 20)
Accepted packet rate average = 0.00976562
	minimum = 0.005 (at node 36)
	maximum = 0.0145 (at node 19)
Injected flit rate average = 0.00982031
	minimum = 0.004 (at node 7)
	maximum = 0.0155 (at node 20)
Accepted flit rate average= 0.00976562
	minimum = 0.005 (at node 36)
	maximum = 0.0145 (at node 19)
Injected packet length average = 1
Accepted packet length average = 1
Total in-flight flits = 24 (24 measured)
latency change    = 0.00306862
throughput change = 0.0272
Class 0:
Packet latency average = 33.0768
	minimum = 7
	maximum = 77
Network latency average = 33.0768
	minimum = 7
	maximum = 77
Slowest packet = 22715
Flit latency average = 33.1839
	minimum = 7
	maximum = 77
Slowest flit = 22715
Fragmentation average = 0
	minimum = 0
	maximum = 0
Injected packet rate average = 0.0100469
	minimum = 0.006 (at node 13)
	maximum = 0.0146667 (at node 48)
Accepted packet rate average = 0.0100521
	minimum = 0.006 (at node 21)
	maximum = 0.0136667 (at node 19)
Injected flit rate average = 0.0100469
	minimum = 0.006 (at node 13)
	maximum = 0.0146667 (at node 48)
Accepted flit rate average= 0.0100521
	minimum = 0.006 (at node 21)
	maximum = 0.0136667 (at node 19)
Injected packet length average = 1
Accepted packet length average = 1
Total in-flight flits = 16 (16 measured)
latency change    = 0.000263512
throughput change = 0.0284974
Class 0:
Packet latency average = 33.1346
	minimum = 7
	maximum = 77
Network latency average = 33.1346
	minimum = 7
	maximum = 77
Slowest packet = 22715
Flit latency average = 33.2148
	minimum = 7
	maximum = 77
Slowest flit = 22715
Fragmentation average = 0
	minimum = 0
	maximum = 0
Injected packet rate average = 0.0100586
	minimum = 0.0065 (at node 53)
	maximum = 0.01475 (at node 48)
Accepted packet rate average = 0.0100195
	minimum = 0.00625 (at node 36)
	maximum = 0.0135 (at node 3)
Injected flit rate average = 0.0100586
	minimum = 0.0065 (at node 53)
	maximum = 0.01475 (at node 48)
Accepted flit rate average= 0.0100195
	minimum = 0.00625 (at node 36)
	maximum = 0.0135 (at node 3)
Injected packet length average = 1
Accepted packet length average = 1
Total in-flight flits = 27 (27 measured)
latency change    = 0.00174358
throughput change = 0.00324886
Draining all recorded packets ...
Draining remaining packets ...
Time taken is 7089 cycles
Class 0:
Packet latency average = 33.3178
	minimum = 7
	maximum = 77
Network latency average = 33.3178
	minimum = 7
	maximum = 77
Slowest packet = 25367
Flit latency average = 33.3178
	minimum = 7
	maximum = 77
Slowest flit = 25367
Fragmentation average = 0
	minimum = 0
	maximum = 0
Injected packet rate average = 0.00965625
	minimum = 0.004 (at node 12)
	maximum = 0.017 (at node 1)
Accepted packet rate average = 0.00939062
	minimum = 0.003 (at node 51)
	maximum = 0.016 (at node 56)
Injected flit rate average = 0.00965625
	minimum = 0.004 (at node 12)
	maximum = 0.017 (at node 1)
Accepted flit rate average= 0.00939062
	minimum = 0.003 (at node 51)
	maximum = 0.016 (at node 56)
Injected packet length average = 1
Accepted packet length average = 1
Total in-flight flits = 17 (0 measured)
latency change    = 1
throughput change = 1
Class 0:
Packet latency average = 33.444
	minimum = 7
	maximum = 77
Network latency average = 33.444
	minimum = 7
	maximum = 77
Slowest packet = 25367
Flit latency average = 33.444
	minimum = 7
	maximum = 77
Slowest flit = 25367
Fragmentation average = 0
	minimum = 0
	maximum = 0
Injected packet rate average = 0.00995313
	minimum = 0.006 (at node 24)
	maximum = 0.0145 (at node 63)
Accepted packet rate average = 0.00983594
	minimum = 0.0055 (at node 51)
	maximum = 0.015 (at node 61)
Injected flit rate average = 0.00995313
	minimum = 0.006 (at node 24)
	maximum = 0.0145 (at node 63)
Accepted flit rate average= 0.00983594
	minimum = 0.0055 (at node 51)
	maximum = 0.015 (at node 61)
Injected packet length average = 1
Accepted packet length average = 1
Total in-flight flits = 15 (0 measured)
latency change    = 0.00377346
throughput change = 0.045274
Class 0:
Packet latency average = 33.6776
	minimum = 7
	maximum = 72
Network latency average = 33.6776
	minimum = 7
	maximum = 72
Slowest packet = 26879
Flit latency average = 33.6776
	minimum = 7
	maximum = 72
Slowest flit = 26879
Fragmentation average = 0
	minimum = 0
	maximum = 0
Injected packet rate average = 0.0100625
	minimum = 0.004 (at node 39)
	maximum = 0.017 (at node 35)
Accepted packet rate average = 0.00998438
	minimum = 0.003 (at node 0)
	maximum = 0.018 (at node 6)
Injected flit rate average = 0.0100625
	minimum = 0.004 (at node 39)
	maximum = 0.017 (at node 35)
Accepted flit rate average= 0.00998438
	minimum = 0.003 (at node 0)
	maximum = 0.018 (at node 6)
Injected packet length average = 1
Accepted packet length average = 1
Total in-flight flits = 20 (0 measured)
latency change    = 0.00693689
throughput change = 0.014867
Warmed up ...Time used is 3000 cycles
Class 0:
Packet latency average = 31.981
	minimum = 7
	maximum = 72
Network latency average = 31.981
	minimum = 7
	maximum = 72
Slowest packet = 27387
Flit latency average = 32.0234
	minimum = 7
	maximum = 72
Slowest flit = 27387
Fragmentation average = 0
	minimum = 0
	maximum = 0
Injected packet rate average = 0.00939062
	minimum = 0.002 (at node 50)
	maximum = 0.018 (at node 7)
Accepted packet rate average = 0.00935937
	minimum = 0.004 (at node 36)
	maximum = 0.018 (at node 26)
Injected flit rate average = 0.00939062
	minimum = 0.002 (at node 50)
	maximum = 0.018 (at node 7)
Accepted flit rate average= 0.00935937
	minimum = 0.004 (at node 36)
	maximum = 0.018 (at node 26)
Injected packet length average = 1
Accepted packet length average = 1
Total in-flight flits = 22 (22 measured)
latency change    = 0.0530509
throughput change = 0.066778
Class 0:
Packet latency average = 32.3755
	minimum = 7
	maximum = 72
Network latency average = 32.3755
	minimum = 7
	maximum = 72
Slowest packet = 27387
Flit latency average = 32.3897
	minimum = 7
	maximum = 72
Slowest flit = 27387
Fragmentation average = 0
	minimum = 0
	maximum = 0
Injected packet rate average = 0.00964062
	minimum = 0.0045 (at node 39)
	maximum = 0.0145 (at node 10)
Accepted packet rate average = 0.00966406
	minimum = 0.005 (at node 49)
	maximum = 0.014 (at node 3)
Injected flit rate average = 0.00964062
	minimum = 0.0045 (at node 39)
	maximum = 0.0145 (at node 10)
Accepted flit rate average= 0.00966406
	minimum = 0.005 (at node 49)
	maximum = 0.014 (at node 3)
Injected packet length average = 1
Accepted packet length average = 1
Total in-flight flits = 17 (17 measured)
latency change    = 0.0121855
throughput change = 0.0315279
Class 0:
Packet latency average = 32.5818
	minimum = 7
	maximum = 77
Network latency average = 32.5818
	minimum = 7
	maximum = 77
Slowest packet = 28320
Flit latency average = 32.5889
	minimum = 7
	maximum = 77
Slowest flit = 28320
Fragmentation average = 0
	minimum = 0
	maximum = 0
Injected packet rate average = 0.00975
	minimum = 0.00566667 (at node 39)
	maximum = 0.0136667 (at node 45)
Accepted packet rate average = 0.00975521
	minimum = 0.00533333 (at node 49)
	maximum = 0.014 (at node 25)
Injected flit rate average = 0.00975
	minimum = 0.00566667 (at node 39)
	maximum = 0.0136667 (at node 45)
Accepted flit rate average= 0.00975521
	minimum = 0.00533333 (at node 49)
	maximum = 0.014 (at node 25)
Injected packet length average = 1
Accepted packet length average = 1
Total in-flight flits = 19 (19 measured)
latency change    = 0.0063301
throughput change = 0.0093433
Class 0:
Packet latency average = 32.7707
	minimum = 7
	maximum = 77
Network latency average = 32.7707
	minimum = 7
	maximum = 77
Slowest packet = 28320
Flit latency average = 32.7745
	minimum = 7
	maximum = 77
Slowest flit = 28320
Fragmentation average = 0
	minimum = 0
	maximum = 0
Injected packet rate average = 0.00966797
	minimum = 0.00575 (at node 39)
	maximum = 0.01275 (at node 45)
Accepted packet rate average = 0.00966797
	minimum = 0.00675 (at node 49)
	maximum = 0.014 (at node 25)
Injected flit rate average = 0.00966797
	minimum = 0.00575 (at node 39)
	maximum = 0.01275 (at node 45)
Accepted flit rate average= 0.00966797
	minimum = 0.00675 (at node 49)
	maximum = 0.014 (at node 25)
Injected packet length average = 1
Accepted packet length average = 1
Total in-flight flits = 20 (20 measured)
latency change    = 0.00576469
throughput change = 0.00902357
Draining all recorded packets ...
Draining remaining packets ...
Time taken is 7093 cycles
Class 0:
Packet latency average = 32.7811
	minimum = 7
	maximum = 77
Network latency average = 32.7811
	minimum = 7
	maximum = 77
Slowest packet = 29878
Flit latency average = 32.7811
	minimum = 7
	maximum = 77
Slowest flit = 29878
Fragmentation average = 0
	minimum = 0
	maximum = 0
Injected packet rate average = 0.0104531
	minimum = 0.004 (at node 4)
	maximum = 0.019 (at node 36)
Accepted packet rate average = 0.0100625
	minimum = 0.005 (at node 5)
	maximum = 0.02 (at node 19)
Injected flit rate average = 0.0104531
	minimum = 0.004 (at node 4)
	maximum = 0.019 (at node 36)
Accepted flit rate average= 0.0100625
	minimum = 0.005 (at node 5)
	maximum = 0.02 (at node 19)
Injected packet length average = 1
Accepted packet length average = 1
Total in-flight flits = 25 (0 measured)
latency change    = 1
throughput change = 1
Class 0:
Packet latency average = 33.3543
	minimum = 7
	maximum = 77
Network latency average = 33.3543
	minimum = 7
	maximum = 77
Slowest packet = 29878
Flit latency average = 33.3543
	minimum = 7
	maximum = 77
Slowest flit = 29878
Fragmentation average = 0
	minimum = 0
	maximum = 0
Injected packet rate average = 0.0104531
	minimum = 0.0065 (at node 4)
	maximum = 0.016 (at node 50)
Accepted packet rate average = 0.0102969
	minimum = 0.006 (at node 1)
	maximum = 0.015 (at node 63)
Injected flit rate average = 0.0104531
	minimum = 0.0065 (at node 4)
	maximum = 0.016 (at node 50)
Accepted flit rate average= 0.0102969
	minimum = 0.006 (at node 1)
	maximum = 0.015 (at node 63)
Injected packet length average = 1
Accepted packet length average = 1
Total in-flight flits = 20 (0 measured)
latency change    = 0.0171872
throughput change = 0.0227618
Class 0:
Packet latency average = 33.4715
	minimum = 7
	maximum = 72
Network latency average = 33.4715
	minimum = 7
	maximum = 72
Slowest packet = 30925
Flit latency average = 33.4715
	minimum = 7
	maximum = 72
Slowest flit = 30925
Fragmentation average = 0
	minimum = 0
	maximum = 0
Injected packet rate average = 0.00995313
	minimum = 0.003 (at node 7)
	maximum = 0.019 (at node 19)
Accepted packet rate average = 0.009875
	minimum = 0.003 (at node 42)
	maximum = 0.017 (at node 23)
Injected flit rate average = 0.00995313
	minimum = 0.003 (at node 7)
	maximum = 0.019 (at node 19)
Accepted flit rate average= 0.009875
	minimum = 0.003 (at node 42)
	maximum = 0.017 (at node 23)
Injected packet length average = 1
Accepted packet length average = 1
Total in-flight flits = 25 (0 measured)
latency change    = 0.00350131
throughput change = 0.0427215
Warmed up ...Time used is 3000 cycles
Class 0:
Packet latency average = 33.5309
	minimum = 7
	maximum = 77
Network latency average = 33.5309
	minimum = 7
	maximum = 77
Slowest packet = 31779
Flit latency average = 33.6119
	minimum = 7
	maximum = 77
Slowest flit = 31779
Fragmentation average = 0
	minimum = 0
	maximum = 0
Injected packet rate average = 0.00996875
	minimum = 0.003 (at node 53)
	maximum = 0.019 (at node 31)
Accepted packet rate average = 0.00998438
	minimum = 0.002 (at node 36)
	maximum = 0.016 (at node 19)
Injected flit rate average = 0.00996875
	minimum = 0.003 (at node 53)
	maximum = 0.019 (at node 31)
Accepted flit rate average= 0.00998438
	minimum = 0.002 (at node 36)
	maximum = 0.016 (at node 19)
Injected packet length average = 1
Accepted packet length average = 1
Total in-flight flits = 24 (24 measured)
latency change    = 0.00177226
throughput change = 0.0109546
Class 0:
Packet latency average = 33.0547
	minimum = 7
	maximum = 77
Network latency average = 33.0547
	minimum = 7
	maximum = 77
Slowest packet = 31779
Flit latency average = 33.1027
	minimum = 7
	maximum = 77
Slowest flit = 31779
Fragmentation average = 0
	minimum = 0
	maximum = 0
Injected packet rate average = 0.0102578
	minimum = 0.0045 (at node 0)
	maximum = 0.016 (at node 18)
Accepted packet rate average = 0.0103438
	minimum = 0.004 (at node 36)
	maximum = 0.017 (at node 12)
Injected flit rate average = 0.0102578
	minimum = 0.0045 (at node 0)
	maximum = 0.016 (at node 18)
Accepted flit rate average= 0.0103438
	minimum = 0.004 (at node 36)
	maximum = 0.017 (at node 12)
Injected packet length average = 1
Accepted packet length average = 1
Total in-flight flits = 14 (14 measured)
latency change    = 0.0144091
throughput change = 0.0347432
Class 0:
Packet latency average = 33.4028
	minimum = 7
	maximum = 77
Network latency average = 33.4028
	minimum = 7
	maximum = 77
Slowest packet = 31779
Flit latency average = 33.4308
	minimum = 7
	maximum = 77
Slowest flit = 31779
Fragmentation average = 0
	minimum = 0
	maximum = 0
Injected packet rate average = 0.0101875
	minimum = 0.00433333 (at node 21)
	maximum = 0.0153333 (at node 31)
Accepted packet rate average = 0.0102292
	minimum = 0.00633333 (at node 36)
	maximum = 0.016 (at node 28)
Injected flit rate average = 0.0101875
	minimum = 0.00433333 (at node 21)
	maximum = 0.0153333 (at node 31)
Accepted flit rate average= 0.0102292
	minimum = 0.00633333 (at node 36)
	maximum = 0.016 (at node 28)
Injected packet length average = 1
Accepted packet length average = 1
Total in-flight flits = 17 (17 measured)
latency change    = 0.0104221
throughput change = 0.0112016
Draining all recorded packets ...
Draining remaining packets ...
Time taken is 6111 cycles
Class 0:
Packet latency average = 32.7247
	minimum = 7
	maximum = 77
Network latency average = 32.7247
	minimum = 7
	maximum = 77
Slowest packet = 33749
Flit latency average = 32.7247
	minimum = 7
	maximum = 77
Slowest flit = 33749
Fragmentation average = 0
	minimum = 0
	maximum = 0
Injected packet rate average = 0.00978125
	minimum = 0.003 (at node 47)
	maximum = 0.015 (at node 61)
Accepted packet rate average = 0.00942187
	minimum = 0.003 (at node 19)
	maximum = 0.018 (at node 57)
Injected flit rate average = 0.00978125
	minimum = 0.003 (at node 47)
	maximum = 0.015 (at node 61)
Accepted flit rate average= 0.00942187
	minimum = 0.003 (at node 19)
	maximum = 0.018 (at node 57)
Injected packet length average = 1
Accepted packet length average = 1
Total in-flight flits = 23 (0 measured)
latency change    = 1
throughput change = 1
Class 0:
Packet latency average = 33.3715
	minimum = 7
	maximum = 77
Network latency average = 33.3715
	minimum = 7
	maximum = 77
Slowest packet = 33749
Flit latency average = 33.3715
	minimum = 7
	maximum = 77
Slowest flit = 33749
Fragmentation average = 0
	minimum = 0
	maximum = 0
Injected packet rate average = 0.00958594
	minimum = 0.003 (at node 47)
	maximum = 0.0145 (at node 42)
Accepted packet rate average = 0.00942187
	minimum = 0.0045 (at node 58)
	maximum = 0.015 (at node 22)
Injected flit rate average = 0.00958594
	minimum = 0.003 (at node 47)
	maximum = 0.0145 (at node 42)
Accepted flit rate average= 0.00942187
	minimum = 0.0045 (at node 58)
	maximum = 0.015 (at node 22)
Injected packet length average = 1
Accepted packet length average = 1
Total in-flight flits = 21 (0 measured)
latency change    = 0.0193808
throughput change = 0
Class 0:
Packet latency average = 33.1874
	minimum = 7
	maximum = 77
Network latency average = 33.1874
	minimum = 7
	maximum = 77
Slowest packet = 35207
Flit latency average = 33.1874
	minimum = 7
	maximum = 77
Slowest flit = 35207
Fragmentation average = 0
	minimum = 0
	maximum = 0
Injected packet rate average = 0.0100469
	minimum = 0.002 (at node 1)
	maximum = 0.016 (at node 5)
Accepted packet rate average = 0.00992188
	minimum = 0.004 (at node 8)
	maximum = 0.021 (at node 52)
Injected flit rate average = 0.0100469
	minimum = 0.002 (at node 1)
	maximum = 0.016 (at node 5)
Accepted flit rate average= 0.00992188
	minimum = 0.004 (at node 8)
	maximum = 0.021 (at node 52)
Injected packet length average = 1
Accepted packet length average = 1
Total in-flight flits = 29 (0 measured)
latency change    = 0.00554651
throughput change = 0.0503937
Warmed up ...Time used is 3000 cycles
Class 0:
Packet latency average = 33.4171
	minimum = 7
	maximum = 77
Network latency average = 33.4171
	minimum = 7
	maximum = 77
Slowest packet = 35946
Flit latency average = 33.6086
	minimum = 7
	maximum = 77
Slowest flit = 35946
Fragmentation average = 0
	minimum = 0
	maximum = 0
Injected packet rate average = 0.00957812
	minimum = 0.002 (at node 29)
	maximum = 0.018 (at node 41)
Accepted packet rate average = 0.00978125
	minimum = 0.003 (at node 9)
	maximum = 0.018 (at node 0)
Injected flit rate average = 0.00957812
	minimum = 0.002 (at node 29)
	maximum = 0.018 (at node 41)
Accepted flit rate average= 0.00978125
	minimum = 0.003 (at node 9)
	maximum = 0.018 (at node 0)
Injected packet length average = 1
Accepted packet length average = 1
Total in-flight flits = 16 (16 measured)
latency change    = 0.00687325
throughput change = 0.014377
Class 0:
Packet latency average = 33.5057
	minimum = 7
	maximum = 77
Network latency average = 33.5057
	minimum = 7
	maximum = 77
Slowest packet = 35946
Flit latency average = 33.5992
	minimum = 7
	maximum = 77
Slowest flit = 35946
Fragmentation average = 0
	minimum = 0
	maximum = 0
Injected packet rate average = 0.00974219
	minimum = 0.006 (at node 45)
	maximum = 0.0155 (at node 22)
Accepted packet rate average = 0.00980469
	minimum = 0.004 (at node 44)
	maximum = 0.017 (at node 5)
Injected flit rate average = 0.00974219
	minimum = 0.006 (at node 45)
	maximum = 0.0155 (at node 22)
Accepted flit rate average= 0.00980469
	minimum = 0.004 (at node 44)
	maximum = 0.017 (at node 5)
Injected packet length average = 1
Accepted packet length average = 1
Total in-flight flits = 21 (21 measured)
latency change    = 0.00264505
throughput change = 0.00239044
Class 0:
Packet latency average = 33.4865
	minimum = 7
	maximum = 77
Network latency average = 33.4865
	minimum = 7
	maximum = 77
Slowest packet = 35946
Flit latency average = 33.5478
	minimum = 7
	maximum = 77
Slowest flit = 35946
Fragmentation average = 0
	minimum = 0
	maximum = 0
Injected packet rate average = 0.00996354
	minimum = 0.00633333 (at node 46)
	maximum = 0.013 (at node 14)
Accepted packet rate average = 0.0100208
	minimum = 0.00466667 (at node 36)
	maximum = 0.0153333 (at node 5)
Injected flit rate average = 0.00996354
	minimum = 0.00633333 (at node 46)
	maximum = 0.013 (at node 14)
Accepted flit rate average= 0.0100208
	minimum = 0.00466667 (at node 36)
	maximum = 0.0153333 (at node 5)
Injected packet length average = 1
Accepted packet length average = 1
Total in-flight flits = 18 (18 measured)
latency change    = 0.000572352
throughput change = 0.0215696
Draining all recorded packets ...
Draining remaining packets ...
Time taken is 6100 cycles
Class 0:
Packet latency average = 32.5961
	minimum = 7
	maximum = 77
Network latency average = 32.5961
	minimum = 7
	maximum = 77
Slowest packet = 37394
Flit latency average = 32.5961
	minimum = 7
	maximum = 77
Slowest flit = 37394
Fragmentation average = 0
	minimum = 0
	maximum = 0
Injected packet rate average = 0.0108437
	minimum = 0.005 (at node 27)
	maximum = 0.018 (at node 42)
Accepted packet rate average = 0.0104063
	minimum = 0.002 (at node 62)
	maximum = 0.019 (at node 29)
Injected flit rate average = 0.0108437
	minimum = 0.005 (at node 27)
	maximum = 0.018 (at node 42)
Accepted flit rate average= 0.0104063
	minimum = 0.002 (at node 62)
	maximum = 0.019 (at node 29)
Injected packet length average = 1
Accepted packet length average = 1
Total in-flight flits = 28 (0 measured)
latency change    = 1
throughput change = 1
Class 0:
Packet latency average = 33.1633
	minimum = 7
	maximum = 77
Network latency average = 33.1633
	minimum = 7
	maximum = 77
Slowest packet = 37394
Flit latency average = 33.1633
	minimum = 7
	maximum = 77
Slowest flit = 37394
Fragmentation average = 0
	minimum = 0
	maximum = 0
Injected packet rate average = 0.0105938
	minimum = 0.006 (at node 27)
	maximum = 0.017 (at node 58)
Accepted packet rate average = 0.0103828
	minimum = 0.0045 (at node 13)
	maximum = 0.0175 (at node 14)
Injected flit rate average = 0.0105938
	minimum = 0.006 (at node 27)
	maximum = 0.017 (at node 58)
Accepted flit rate average= 0.0103828
	minimum = 0.0045 (at node 13)
	maximum = 0.0175 (at node 14)
Injected packet length average = 1
Accepted packet length average = 1
Total in-flight flits = 27 (0 measured)
latency change    = 0.0171028
throughput change = 0.00225734
Class 0:
Packet latency average = 33.7774
	minimum = 7
	maximum = 73
Network latency average = 33.7774
	minimum = 7
	maximum = 73
Slowest packet = 38995
Flit latency average = 33.7774
	minimum = 7
	maximum = 73
Slowest flit = 38995
Fragmentation average = 0
	minimum = 0
	maximum = 0
Injected packet rate average = 0.00954687
	minimum = 0.004 (at node 40)
	maximum = 0.016 (at node 21)
Accepted packet rate average = 0.0096875
	minimum = 0.002 (at node 9)
	maximum = 0.016 (at node 1)
Injected flit rate average = 0.00954687
	minimum = 0.004 (at node 40)
	maximum = 0.016 (at node 21)
Accepted flit rate average= 0.0096875
	minimum = 0.002 (at node 9)
	maximum = 0.016 (at node 1)
Injected packet length average = 1
Accepted packet length average = 1
Total in-flight flits = 18 (0 measured)
latency change    = 0.0181819
throughput change = 0.0717742
Warmed up ...Time used is 3000 cycles
Class 0:
Packet latency average = 32.7216
	minimum = 7
	maximum = 77
Network latency average = 32.7216
	minimum = 7
	maximum = 77
Slowest packet = 39767
Flit latency average = 32.9728
	minimum = 7
	maximum = 77
Slowest flit = 39767
Fragmentation average = 0
	minimum = 0
	maximum = 0
Injected packet rate average = 0.00982813
	minimum = 0.005 (at node 17)
	maximum = 0.019 (at node 56)
Accepted packet rate average = 0.00976562
	minimum = 0.002 (at node 7)
	maximum = 0.021 (at node 10)
Injected flit rate average = 0.00982813
	minimum = 0.005 (at node 17)
	maximum = 0.019 (at node 56)
Accepted flit rate average= 0.00976562
	minimum = 0.002 (at node 7)
	maximum = 0.021 (at node 10)
Injected packet length average = 1
Accepted packet length average = 1
Total in-flight flits = 22 (22 measured)
latency change    = 0.0322673
throughput change = 0.008
Class 0:
Packet latency average = 32.9647
	minimum = 7
	maximum = 77
Network latency average = 32.9647
	minimum = 7
	maximum = 77
Slowest packet = 39767
Flit latency average = 33.0828
	minimum = 7
	maximum = 77
Slowest flit = 39767
Fragmentation average = 0
	minimum = 0
	maximum = 0
Injected packet rate average = 0.0101016
	minimum = 0.0045 (at node 28)
	maximum = 0.0155 (at node 26)
Accepted packet rate average = 0.0100938
	minimum = 0.0055 (at node 7)
	maximum = 0.0145 (at node 21)
Injected flit rate average = 0.0101016
	minimum = 0.0045 (at node 28)
	maximum = 0.0155 (at node 26)
Accepted flit rate average= 0.0100938
	minimum = 0.0055 (at node 7)
	maximum = 0.0145 (at node 21)
Injected packet length average = 1
Accepted packet length average = 1
Total in-flight flits = 19 (19 measured)
latency change    = 0.00737446
throughput change = 0.0325077
Class 0:
Packet latency average = 33.0304
	minimum = 7
	maximum = 77
Network latency average = 33.0304
	minimum = 7
	maximum = 77
Slowest packet = 39767
Flit latency average = 33.109
	minimum = 7
	maximum = 77
Slowest flit = 39767
Fragmentation average = 0
	minimum = 0
	maximum = 0
Injected packet rate average = 0.0100833
	minimum = 0.00666667 (at node 51)
	maximum = 0.015 (at node 26)
Accepted packet rate average = 0.0100365
	minimum = 0.00533333 (at node 28)
	maximum = 0.0143333 (at node 13)
Injected flit rate average = 0.0100833
	minimum = 0.00666667 (at node 51)
	maximum = 0.015 (at node 26)
Accepted flit rate average= 0.0100365
	minimum = 0.00533333 (at node 28)
	maximum = 0.0143333 (at node 13)
Injected packet length average = 1
Accepted packet length average = 1
Total in-flight flits = 27 (27 measured)
latency change    = 0.00198921
throughput change = 0.00570835
Draining all recorded packets ...
Draining remaining packets ...
Time taken is 6120 cycles
Class 0:
Packet latency average = 32.1316
	minimum = 7
	maximum = 77
Network latency average = 32.1316
	minimum = 7
	maximum = 77
Slowest packet = 41721
Flit latency average = 32.1316
	minimum = 7
	maximum = 77
Slowest flit = 41721
Fragmentation average = 0
	minimum = 0
	maximum = 0
Injected packet rate average = 0.00960937
	minimum = 0.001 (at node 45)
	maximum = 0.019 (at node 36)
Accepted packet rate average = 0.00914062
	minimum = 0.004 (at node 30)
	maximum = 0.017 (at node 11)
Injected flit rate average = 0.00960937
	minimum = 0.001 (at node 45)
	maximum = 0.019 (at node 36)
Accepted flit rate average= 0.00914062
	minimum = 0.004 (at node 30)
	maximum = 0.017 (at node 11)
Injected packet length average = 1
Accepted packet length average = 1
Total in-flight flits = 30 (0 measured)
latency change    = 1
throughput change = 1
Class 0:
Packet latency average = 33.1929
	minimum = 7
	maximum = 77
Network latency average = 33.1929
	minimum = 7
	maximum = 77
Slowest packet = 41721
Flit latency average = 33.1929
	minimum = 7
	maximum = 77
Slowest flit = 41721
Fragmentation average = 0
	minimum = 0
	maximum = 0
Injected packet rate average = 0.00969531
	minimum = 0.004 (at node 34)
	maximum = 0.016 (at node 18)
Accepted packet rate average = 0.00951562
	minimum = 0.005 (at node 50)
	maximum = 0.0155 (at node 53)
Injected flit rate average = 0.00969531
	minimum = 0.004 (at node 34)
	maximum = 0.016 (at node 18)
Accepted flit rate average= 0.00951562
	minimum = 0.005 (at node 50)
	maximum = 0.0155 (at node 53)
Injected packet length average = 1
Accepted packet length average = 1
Total in-flight flits = 23 (0 measured)
latency change    = 0.0319741
throughput change = 0.0394089
Class 0:
Packet latency average = 33.7698
	minimum = 7
	maximum = 77
Network latency average = 33.7698
	minimum = 7
	maximum = 77
Slowest packet = 43048
Flit latency average = 33.7698
	minimum = 7
	maximum = 77
Slowest flit = 43048
Fragmentation average = 0
	minimum = 0
	maximum = 0
Injected packet rate average = 0.0101875
	minimum = 0.004 (at node 58)
	maximum = 0.02 (at node 16)
Accepted packet rate average = 0.01025
	minimum = 0.004 (at node 20)
	maximum = 0.018 (at node 48)
Injected flit rate average = 0.0101875
	minimum = 0.004 (at node 58)
	maximum = 0.02 (at node 16)
Accepted flit rate average= 0.01025
	minimum = 0.004 (at node 20)
	maximum = 0.018 (at node 48)
Injected packet length average = 1
Accepted packet length average = 1
Total in-flight flits = 19 (0 measured)
latency change    = 0.0170826
throughput change = 0.0716463
Warmed up ...Time used is 3000 cycles
Class 0:
Packet latency average = 33.8402
	minimum = 7
	maximum = 72
Network latency average = 33.8402
	minimum = 7
	maximum = 72
Slowest packet = 43348
Flit latency average = 34.0553
	minimum = 7
	maximum = 72
Slowest flit = 43348
Fragmentation average = 0
	minimum = 0
	maximum = 0
Injected packet rate average = 0.0101406
	minimum = 0.003 (at node 2)
	maximum = 0.018 (at node 11)
Accepted packet rate average = 0.0101719
	minimum = 0.003 (at node 17)
	maximum = 0.017 (at node 12)
Injected flit rate average = 0.0101406
	minimum = 0.003 (at node 2)
	maximum = 0.018 (at node 11)
Accepted flit rate average= 0.0101719
	minimum = 0.003 (at node 17)
	maximum = 0.017 (at node 12)
Injected packet length average = 1
Accepted packet length average = 1
Total in-flight flits = 17 (17 measured)
latency change    = 0.00207956
throughput change = 0.00768049
Class 0:
Packet latency average = 33.6239
	minimum = 7
	maximum = 77
Network latency average = 33.6239
	minimum = 7
	maximum = 77
Slowest packet = 44340
Flit latency average = 33.735
	minimum = 7
	maximum = 77
Slowest flit = 44340
Fragmentation average = 0
	minimum = 0
	maximum = 0
Injected packet rate average = 0.0102031
	minimum = 0.007 (at node 28)
	maximum = 0.015 (at node 9)
Accepted packet rate average = 0.0101406
	minimum = 0.0055 (at node 61)
	maximum = 0.0155 (at node 47)
Injected flit rate average = 0.0102031
	minimum = 0.007 (at node 28)
	maximum = 0.015 (at node 9)
Accepted flit rate average= 0.0101406
	minimum = 0.0055 (at node 61)
	maximum = 0.0155 (at node 47)
Injected packet length average = 1
Accepted packet length average = 1
Total in-flight flits = 27 (27 measured)
latency change    = 0.00643188
throughput change = 0.00308166
Class 0:
Packet latency average = 33.654
	minimum = 7
	maximum = 77
Network latency average = 33.654
	minimum = 7
	maximum = 77
Slowest packet = 44340
Flit latency average = 33.728
	minimum = 7
	maximum = 77
Slowest flit = 44340
Fragmentation average = 0
	minimum = 0
	maximum = 0
Injected packet rate average = 0.0101042
	minimum = 0.007 (at node 14)
	maximum = 0.0143333 (at node 42)
Accepted packet rate average = 0.0101094
	minimum = 0.006 (at node 61)
	maximum = 0.0146667 (at node 49)
Injected flit rate average = 0.0101042
	minimum = 0.007 (at node 14)
	maximum = 0.0143333 (at node 42)
Accepted flit rate average= 0.0101094
	minimum = 0.006 (at node 61)
	maximum = 0.0146667 (at node 49)
Injected packet length average = 1
Accepted packet length average = 1
Total in-flight flits = 18 (18 measured)
latency change    = 0.00089384
throughput change = 0.00309119
Draining all recorded packets ...
Draining remaining packets ...
Time taken is 6108 cycles
Class 0:
Packet latency average = 32.4764
	minimum = 7
	maximum = 72
Network latency average = 32.4764
	minimum = 7
	maximum = 72
Slowest packet = 45334
Flit latency average = 32.4764
	minimum = 7
	maximum = 72
Slowest flit = 45334
Fragmentation average = 0
	minimum = 0
	maximum = 0
Injected packet rate average = 0.00998438
	minimum = 0.005 (at node 4)
	maximum = 0.018 (at node 38)
Accepted packet rate average = 0.00960937
	minimum = 0.001 (at node 19)
	maximum = 0.017 (at node 43)
Injected flit rate average = 0.00998438
	minimum = 0.005 (at node 4)
	maximum = 0.018 (at node 38)
Accepted flit rate average= 0.00960937
	minimum = 0.001 (at node 19)
	maximum = 0.017 (at node 43)
Injected packet length average = 1
Accepted packet length average = 1
Total in-flight flits = 24 (0 measured)
latency change    = 1
throughput change = 1
Class 0:
Packet latency average = 33.2211
	minimum = 7
	maximum = 72
Network latency average = 33.2211
	minimum = 7
	maximum = 72
Slowest packet = 45334
Flit latency average = 33.2211
	minimum = 7
	maximum = 72
Slowest flit = 45334
Fragmentation average = 0
	minimum = 0
	maximum = 0
Injected packet rate average = 0.0102656
	minimum = 0.006 (at node 29)
	maximum = 0.0165 (at node 5)
Accepted packet rate average = 0.0100703
	minimum = 0.003 (at node 19)
	maximum = 0.0155 (at node 43)
Injected flit rate average = 0.0102656
	minimum = 0.006 (at node 29)
	maximum = 0.0165 (at node 5)
Accepted flit rate average= 0.0100703
	minimum = 0.003 (at node 19)
	maximum = 0.0155 (at node 43)
Injected packet length average = 1
Accepted packet length average = 1
Total in-flight flits = 25 (0 measured)
latency change    = 0.0224158
throughput change = 0.0457719
Class 0:
Packet latency average = 33.0214
	minimum = 7
	maximum = 77
Network latency average = 33.0214
	minimum = 7
	maximum = 77
Slowest packet = 46488
Flit latency average = 33.0214
	minimum = 7
	maximum = 77
Slowest flit = 46488
Fragmentation average = 0
	minimum = 0
	maximum = 0
Injected packet rate average = 0.0100156
	minimum = 0.005 (at node 62)
	maximum = 0.015 (at node 1)
Accepted packet rate average = 0.0102031
	minimum = 0.003 (at node 1)
	maximum = 0.019 (at node 31)
Injected flit rate average = 0.0100156
	minimum = 0.005 (at node 62)
	maximum = 0.015 (at node 1)
Accepted flit rate average= 0.0102031
	minimum = 0.003 (at node 1)
	maximum = 0.019 (at node 31)
Injected packet length average = 1
Accepted packet length average = 1
Total in-flight flits = 13 (0 measured)
latency change    = 0.00604644
throughput change = 0.0130168
Warmed up ...Time used is 3000 cycles
Class 0:
Packet latency average = 33.3807
	minimum = 7
	maximum = 72
Network latency average = 33.3807
	minimum = 7
	maximum = 72
Slowest packet = 47460
Flit latency average = 33.469
	minimum = 7
	maximum = 72
Slowest flit = 47460
Fragmentation average = 0
	minimum = 0
	maximum = 0
Injected packet rate average = 0.0102031
	minimum = 0.005 (at node 25)
	maximum = 0.018 (at node 26)
Accepted packet rate average = 0.0100938
	minimum = 0.002 (at node 10)
	maximum = 0.018 (at node 51)
Injected flit rate average = 0.0102031
	minimum = 0.005 (at node 25)
	maximum = 0.018 (at node 26)
Accepted flit rate average= 0.0100938
	minimum = 0.002 (at node 10)
	maximum = 0.018 (at node 51)
Injected packet length average = 1
Accepted packet length average = 1
Total in-flight flits = 20 (20 measured)
latency change    = 0.0107633
throughput change = 0.0108359
Class 0:
Packet latency average = 33.4739
	minimum = 7
	maximum = 77
Network latency average = 33.4739
	minimum = 7
	maximum = 77
Slowest packet = 48187
Flit latency average = 33.5169
	minimum = 7
	maximum = 77
Slowest flit = 48187
Fragmentation average = 0
	minimum = 0
	maximum = 0
Injected packet rate average = 0.0102109
	minimum = 0.0045 (at node 56)
	maximum = 0.0145 (at node 57)
Accepted packet rate average = 0.0101406
	minimum = 0.006 (at node 8)
	maximum = 0.0145 (at node 30)
Injected flit rate average = 0.0102109
	minimum = 0.0045 (at node 56)
	maximum = 0.0145 (at node 57)
Accepted flit rate average= 0.0101406
	minimum = 0.006 (at node 8)
	maximum = 0.0145 (at node 30)
Injected packet length average = 1
Accepted packet length average = 1
Total in-flight flits = 22 (22 measured)
latency change    = 0.00278435
throughput change = 0.0046225
Class 0:
Packet latency average = 33.4159
	minimum = 7
	maximum = 77
Network latency average = 33.4159
	minimum = 7
	maximum = 77
Slowest packet = 48187
Flit latency average = 33.4446
	minimum = 7
	maximum = 77
Slowest flit = 48187
Fragmentation average = 0
	minimum = 0
	maximum = 0
Injected packet rate average = 0.0103177
	minimum = 0.00666667 (at node 56)
	maximum = 0.015 (at node 57)
Accepted packet rate average = 0.0102865
	minimum = 0.005 (at node 22)
	maximum = 0.0156667 (at node 41)
Injected flit rate average = 0.0103177
	minimum = 0.00666667 (at node 56)
	maximum = 0.015 (at node 57)
Accepted flit rate average= 0.0102865
	minimum = 0.005 (at node 22)
	maximum = 0.0156667 (at node 41)
Injected packet length average = 1
Accepted packet length average = 1
Total in-flight flits = 19 (19 measured)
latency change    = 0.00173653
throughput change = 0.0141772
Draining all recorded packets ...
Draining remaining packets ...
Time taken is 6092 cycles
Class 0:
Packet latency average = 34.1643
	minimum = 7
	maximum = 72
Network latency average = 34.1643
	minimum = 7
	maximum = 72
Slowest packet = 49559
Flit latency average = 34.1643
	minimum = 7
	maximum = 72
Slowest flit = 49559
Fragmentation average = 0
	minimum = 0
	maximum = 0
Injected packet rate average = 0.0105313
	minimum = 0.004 (at node 29)
	maximum = 0.018 (at node 26)
Accepted packet rate average = 0.0100781
	minimum = 0.003 (at node 30)
	maximum = 0.02 (at node 47)
Injected flit rate average = 0.0105313
	minimum = 0.004 (at node 29)
	maximum = 0.018 (at node 26)
Accepted flit rate average= 0.0100781
	minimum = 0.003 (at node 30)
	maximum = 0.02 (at node 47)
Injected packet length average = 1
Accepted packet length average = 1
Total in-flight flits = 29 (0 measured)
latency change    = 1
throughput change = 1
Class 0:
Packet latency average = 33.6319
	minimum = 7
	maximum = 77
Network latency average = 33.6319
	minimum = 7
	maximum = 77
Slowest packet = 50178
Flit latency average = 33.6319
	minimum = 7
	maximum = 77
Slowest flit = 50178
Fragmentation average = 0
	minimum = 0
	maximum = 0
Injected packet rate average = 0.0100234
	minimum = 0.007 (at node 6)
	maximum = 0.0135 (at node 9)
Accepted packet rate average = 0.00980469
	minimum = 0.0055 (at node 46)
	maximum = 0.016 (at node 25)
Injected flit rate average = 0.0100234
	minimum = 0.007 (at node 6)
	maximum = 0.0135 (at node 9)
Accepted flit rate average= 0.00980469
	minimum = 0.0055 (at node 46)
	maximum = 0.016 (at node 25)
Injected packet length average = 1
Accepted packet length average = 1
Total in-flight flits = 28 (0 measured)
latency change    = 0.0158323
throughput change = 0.0278884
Class 0:
Packet latency average = 33.8346
	minimum = 7
	maximum = 72
Network latency average = 33.8346
	minimum = 7
	maximum = 72
Slowest packet = 50673
Flit latency average = 33.8346
	minimum = 7
	maximum = 72
Slowest flit = 50673
Fragmentation average = 0
	minimum = 0
	maximum = 0
Injected packet rate average = 0.0103594
	minimum = 0.005 (at node 5)
	maximum = 0.021 (at node 33)
Accepted packet rate average = 0.0104844
	minimum = 0.003 (at node 2)
	maximum = 0.019 (at node 58)
Injected flit rate average = 0.0103594
	minimum = 0.005 (at node 5)
	maximum = 0.021 (at node 33)
Accepted flit rate average= 0.0104844
	minimum = 0.003 (at node 2)
	maximum = 0.019 (at node 58)
Injected packet length average = 1
Accepted packet length average = 1
Total in-flight flits = 20 (0 measured)
latency change    = 0.00599099
throughput change = 0.0648286
Warmed up ...Time used is 3000 cycles
Class 0:
Packet latency average = 33.7969
	minimum = 7
	maximum = 72
Network latency average = 33.7969
	minimum = 7
	maximum = 72
Slowest packet = 51374
Flit latency average = 33.9746
	minimum = 7
	maximum = 72
Slowest flit = 51374
Fragmentation average = 0
	minimum = 0
	maximum = 0
Injected packet rate average = 0.0103438
	minimum = 0.005 (at node 55)
	maximum = 0.017 (at node 14)
Accepted packet rate average = 0.0104688
	minimum = 0.004 (at node 13)
	maximum = 0.017 (at node 7)
Injected flit rate average = 0.0103438
	minimum = 0.005 (at node 55)
	maximum = 0.017 (at node 14)
Accepted flit rate average= 0.0104688
	minimum = 0.004 (at node 13)
	maximum = 0.017 (at node 7)
Injected packet length average = 1
Accepted packet length average = 1
Total in-flight flits = 12 (12 measured)
latency change    = 0.00111407
throughput change = 0.00149254
Class 0:
Packet latency average = 33.3719
	minimum = 7
	maximum = 72
Network latency average = 33.3719
	minimum = 7
	maximum = 72
Slowest packet = 51374
Flit latency average = 33.4683
	minimum = 7
	maximum = 72
Slowest flit = 51374
Fragmentation average = 0
	minimum = 0
	maximum = 0
Injected packet rate average = 0.0104141
	minimum = 0.0065 (at node 55)
	maximum = 0.0165 (at node 18)
Accepted packet rate average = 0.0103438
	minimum = 0.0045 (at node 13)
	maximum = 0.017 (at node 63)
Injected flit rate average = 0.0104141
	minimum = 0.0065 (at node 55)
	maximum = 0.0165 (at node 18)
Accepted flit rate average= 0.0103438
	minimum = 0.0045 (at node 13)
	maximum = 0.017 (at node 63)
Injected packet length average = 1
Accepted packet length average = 1
Total in-flight flits = 29 (29 measured)
latency change    = 0.012735
throughput change = 0.0120846
Class 0:
Packet latency average = 33.5731
	minimum = 7
	maximum = 77
Network latency average = 33.5731
	minimum = 7
	maximum = 77
Slowest packet = 52368
Flit latency average = 33.6362
	minimum = 7
	maximum = 77
Slowest flit = 52368
Fragmentation average = 0
	minimum = 0
	maximum = 0
Injected packet rate average = 0.0101667
	minimum = 0.006 (at node 55)
	maximum = 0.0143333 (at node 18)
Accepted packet rate average = 0.0101927
	minimum = 0.007 (at node 12)
	maximum = 0.015 (at node 49)
Injected flit rate average = 0.0101667
	minimum = 0.006 (at node 55)
	maximum = 0.0143333 (at node 18)
Accepted flit rate average= 0.0101927
	minimum = 0.007 (at node 12)
	maximum = 0.015 (at node 49)
Injected packet length average = 1
Accepted packet length average = 1
Total in-flight flits = 15 (15 measured)
latency change    = 0.00599048
throughput change = 0.0148186
Draining all recorded packets ...
Draining remaining packets ...
Time taken is 6107 cycles
Class 0:
Packet latency average = 32.5211
	minimum = 7
	maximum = 77
Network latency average = 32.5211
	minimum = 7
	maximum = 77
Slowest packet = 53219
Flit latency average = 32.5211
	minimum = 7
	maximum = 77
Slowest flit = 53219
Fragmentation average = 0
	minimum = 0
	maximum = 0
Injected packet rate average = 0.0102344
	minimum = 0.003 (at node 59)
	maximum = 0.019 (at node 2)
Accepted packet rate average = 0.0100156
	minimum = 0.002 (at node 5)
	maximum = 0.017 (at node 61)
Injected flit rate average = 0.0102344
	minimum = 0.003 (at node 59)
	maximum = 0.019 (at node 2)
Accepted flit rate average= 0.0100156
	minimum = 0.002 (at node 5)
	maximum = 0.017 (at node 61)
Injected packet length average = 1
Accepted packet length average = 1
Total in-flight flits = 14 (0 measured)
latency change    = 1
throughput change = 1
Class 0:
Packet latency average = 32.4088
	minimum = 7
	maximum = 77
Network latency average = 32.4088
	minimum = 7
	maximum = 77
Slowest packet = 53219
Flit latency average = 32.4088
	minimum = 7
	maximum = 77
Slowest flit = 53219
Fragmentation average = 0
	minimum = 0
	maximum = 0
Injected packet rate average = 0.0100469
	minimum = 0.005 (at node 46)
	maximum = 0.0155 (at node 2)
Accepted packet rate average = 0.00989844
	minimum = 0.005 (at node 52)
	maximum = 0.0155 (at node 48)
Injected flit rate average = 0.0100469
	minimum = 0.005 (at node 46)
	maximum = 0.0155 (at node 2)
Accepted flit rate average= 0.00989844
	minimum = 0.005 (at node 52)
	maximum = 0.0155 (at node 48)
Injected packet length average = 1
Accepted packet length average = 1
Total in-flight flits = 19 (0 measured)
latency change    = 0.00346267
throughput change = 0.011839
Class 0:
Packet latency average = 33.3782
	minimum = 7
	maximum = 78
Network latency average = 33.3782
	minimum = 7
	maximum = 78
Slowest packet = 54666
Flit latency average = 33.3782
	minimum = 7
	maximum = 78
Slowest flit = 54666
Fragmentation average = 0
	minimum = 0
	maximum = 0
Injected packet rate average = 0.00996875
	minimum = 0.003 (at node 16)
	maximum = 0.018 (at node 9)
Accepted packet rate average = 0.009875
	minimum = 0.003 (at node 42)
	maximum = 0.019 (at node 22)
Injected flit rate average = 0.00996875
	minimum = 0.003 (at node 16)
	maximum = 0.018 (at node 9)
Accepted flit rate average= 0.009875
	minimum = 0.003 (at node 42)
	maximum = 0.019 (at node 22)
Injected packet length average = 1
Accepted packet length average = 1
Total in-flight flits = 25 (0 measured)
latency change    = 0.0290407
throughput change = 0.00237342
Warmed up ...Time used is 3000 cycles
Class 0:
Packet latency average = 32.6783
	minimum = 7
	maximum = 72
Network latency average = 32.6783
	minimum = 7
	maximum = 72
Slowest packet = 55091
Flit latency average = 32.876
	minimum = 7
	maximum = 72
Slowest flit = 55091
Fragmentation average = 0
	minimum = 0
	maximum = 0
Injected packet rate average = 0.00925
	minimum = 0.005 (at node 9)
	maximum = 0.015 (at node 3)
Accepted packet rate average = 0.00932812
	minimum = 0.003 (at node 19)
	maximum = 0.017 (at node 27)
Injected flit rate average = 0.00925
	minimum = 0.005 (at node 9)
	maximum = 0.015 (at node 3)
Accepted flit rate average= 0.00932812
	minimum = 0.003 (at node 19)
	maximum = 0.017 (at node 27)
Injected packet length average = 1
Accepted packet length average = 1
Total in-flight flits = 20 (20 measured)
latency change    = 0.0214161
throughput change = 0.0586265
Class 0:
Packet latency average = 32.8076
	minimum = 7
	maximum = 72
Network latency average = 32.8076
	minimum = 7
	maximum = 72
Slowest packet = 55091
Flit latency average = 32.899
	minimum = 7
	maximum = 72
Slowest flit = 55091
Fragmentation average = 0
	minimum = 0
	maximum = 0
Injected packet rate average = 0.00978125
	minimum = 0.006 (at node 1)
	maximum = 0.015 (at node 34)
Accepted packet rate average = 0.00982031
	minimum = 0.0035 (at node 35)
	maximum = 0.016 (at node 27)
Injected flit rate average = 0.00978125
	minimum = 0.006 (at node 1)
	maximum = 0.015 (at node 34)
Accepted flit rate average= 0.00982031
	minimum = 0.0035 (at node 35)
	maximum = 0.016 (at node 27)
Injected packet length average = 1
Accepted packet length average = 1
Total in-flight flits = 20 (20 measured)
latency change    = 0.00394141
throughput change = 0.0501193
Class 0:
Packet latency average = 33.0661
	minimum = 7
	maximum = 72
Network latency average = 33.0661
	minimum = 7
	maximum = 72
Slowest packet = 55091
Flit latency average = 33.1249
	minimum = 7
	maximum = 72
Slowest flit = 55091
Fragmentation average = 0
	minimum = 0
	maximum = 0
Injected packet rate average = 0.00954687
	minimum = 0.006 (at node 36)
	maximum = 0.013 (at node 51)
Accepted packet rate average = 0.00958854
	minimum = 0.00533333 (at node 22)
	maximum = 0.0143333 (at node 20)
Injected flit rate average = 0.00954687
	minimum = 0.006 (at node 36)
	maximum = 0.013 (at node 51)
Accepted flit rate average= 0.00958854
	minimum = 0.00533333 (at node 22)
	maximum = 0.0143333 (at node 20)
Injected packet length average = 1
Accepted packet length average = 1
Total in-flight flits = 17 (17 measured)
latency change    = 0.00781615
throughput change = 0.0241716
Class 0:
Packet latency average = 33.0919
	minimum = 7
	maximum = 72
Network latency average = 33.0919
	minimum = 7
	maximum = 72
Slowest packet = 55091
Flit latency average = 33.1345
	minimum = 7
	maximum = 72
Slowest flit = 55091
Fragmentation average = 0
	minimum = 0
	maximum = 0
Injected packet rate average = 0.009875
	minimum = 0.00625 (at node 36)
	maximum = 0.01275 (at node 34)
Accepted packet rate average = 0.00987109
	minimum = 0.007 (at node 5)
	maximum = 0.01475 (at node 20)
Injected flit rate average = 0.009875
	minimum = 0.00625 (at node 36)
	maximum = 0.01275 (at node 34)
Accepted flit rate average= 0.00987109
	minimum = 0.007 (at node 5)
	maximum = 0.01475 (at node 20)
Injected packet length average = 1
Accepted packet length average = 1
Total in-flight flits = 26 (26 measured)
latency change    = 0.000781072
throughput change = 0.0286242
Class 0:
Packet latency average = 33.0786
	minimum = 7
	maximum = 77
Network latency average = 33.0786
	minimum = 7
	maximum = 77
Slowest packet = 57831
Flit latency average = 33.1127
	minimum = 7
	maximum = 77
Slowest flit = 57831
Fragmentation average = 0
	minimum = 0
	maximum = 0
Injected packet rate average = 0.009875
	minimum = 0.0058 (at node 36)
	maximum = 0.012 (at node 28)
Accepted packet rate average = 0.00989687
	minimum = 0.0066 (at node 6)
	maximum = 0.0146 (at node 20)
Injected flit rate average = 0.009875
	minimum = 0.0058 (at node 36)
	maximum = 0.012 (at node 28)
Accepted flit rate average= 0.00989687
	minimum = 0.0066 (at node 6)
	maximum = 0.0146 (at node 20)
Injected packet length average = 1
Accepted packet length average = 1
Total in-flight flits = 18 (18 measured)
latency change    = 0.000402499
throughput change = 0.00260499
Draining all recorded packets ...
Draining remaining packets ...
Time taken is 8116 cycles
Class 0:
Packet latency average = 32.5518
	minimum = 7
	maximum = 77
Network latency average = 32.5518
	minimum = 7
	maximum = 77
Slowest packet = 58329
Flit latency average = 32.5518
	minimum = 7
	maximum = 77
Slowest flit = 58329
Fragmentation average = 0
	minimum = 0
	maximum = 0
Injected packet rate average = 0.0095625
	minimum = 0.004 (at node 35)
	maximum = 0.015 (at node 2)
Accepted packet rate average = 0.00920312
	minimum = 0.002 (at node 32)
	maximum = 0.019 (at node 57)
Injected flit rate average = 0.0095625
	minimum = 0.004 (at node 35)
	maximum = 0.015 (at node 2)
[...]
	maximum = 0.015 (at node 46)
Accepted flit rate average= 0.00965625
	minimum = 0.0055 (at node 58)
	maximum = 0.015 (at node 15)
Injected packet length average = 1
Accepted packet length average = 1
Total in-flight flits = 26 (26 measured)
latency change    = 0.0215422
throughput change = 0.00161812
Class 0:
Packet latency average = 33.0011
	minimum = 7
	maximum = 77
Network latency average = 33.0011
	minimum = 7
	maximum = 77
Slowest packet = 393485
Flit latency average = 33.0739
	minimum = 7
	maximum = 77
Slowest flit = 393485
Fragmentation average = 0
	minimum = 0
	maximum = 0
Injected packet rate average = 0.00992708
	minimum = 0.00533333 (at node 10)
	maximum = 0.014 (at node 26)
Accepted packet rate average = 0.00986979
	minimum = 0.00666667 (at node 11)
	maximum = 0.014 (at node 4)
Injected flit rate average = 0.00992708
	minimum = 0.00533333 (at node 10)
	maximum = 0.014 (at node 26)
Accepted flit rate average= 0.00986979
	minimum = 0.00666667 (at node 11)
	maximum = 0.014 (at node 4)
Injected packet length average = 1
Accepted packet length average = 1
Total in-flight flits = 33 (33 measured)
latency change    = 0.0144845
throughput change = 0.0216359
Draining all recorded packets ...
Draining remaining packets ...
Time taken is 6099 cycles
Class 0:
Packet latency average = 33.8097
	minimum = 7
	maximum = 72
Network latency average = 33.8097
	minimum = 7
	maximum = 72
Slowest packet = 394022
Flit latency average = 33.8097
	minimum = 7
	maximum = 72
Slowest flit = 394022
Fragmentation average = 0
	minimum = 0
	maximum = 0
Injected packet rate average = 0.00982813
	minimum = 0.005 (at node 18)
	maximum = 0.016 (at node 33)
Accepted packet rate average = 0.00935937
	minimum = 0.003 (at node 7)
	maximum = 0.016 (at node 19)
Injected flit rate average = 0.00982813
	minimum = 0.005 (at node 18)
	maximum = 0.016 (at node 33)
Accepted flit rate average= 0.00935937
	minimum = 0.003 (at node 7)
	maximum = 0.016 (at node 19)
Injected packet length average = 1
Accepted packet length average = 1
Total in-flight flits = 30 (0 measured)
latency change    = 1
throughput change = 1
Class 0:
Packet latency average = 34.5307
	minimum = 7
	maximum = 77
Network latency average = 34.5307
	minimum = 7
	maximum = 77
Slowest packet = 394475
Flit latency average = 34.5307
	minimum = 7
	maximum = 77
Slowest flit = 394475
Fragmentation average = 0
	minimum = 0
	maximum = 0
Injected packet rate average = 0.0103047
	minimum = 0.006 (at node 37)
	maximum = 0.016 (at node 33)
Accepted packet rate average = 0.0100547
	minimum = 0.005 (at node 41)
	maximum = 0.0155 (at node 40)
Injected flit rate average = 0.0103047
	minimum = 0.006 (at node 37)
	maximum = 0.016 (at node 33)
Accepted flit rate average= 0.0100547
	minimum = 0.005 (at node 41)
	maximum = 0.0155 (at node 40)
Injected packet length average = 1
Accepted packet length average = 1
Total in-flight flits = 32 (0 measured)
latency change    = 0.0208802
throughput change = 0.0691531
Class 0:
Packet latency average = 34.441
	minimum = 7
	maximum = 78
Network latency average = 34.441
	minimum = 7
	maximum = 78
Slowest packet = 395193
Flit latency average = 34.441
	minimum = 7
	maximum = 78
Slowest flit = 395193
Fragmentation average = 0
	minimum = 0
	maximum = 0
Injected packet rate average = 0.0101719
	minimum = 0.002 (at node 37)
	maximum = 0.018 (at node 10)
Accepted packet rate average = 0.0104531
	minimum = 0.004 (at node 24)
	maximum = 0.019 (at node 63)
Injected flit rate average = 0.0101719
	minimum = 0.002 (at node 37)
	maximum = 0.018 (at node 10)
Accepted flit rate average= 0.0104531
	minimum = 0.004 (at node 24)
	maximum = 0.019 (at node 63)
Injected packet length average = 1
Accepted packet length average = 1
Total in-flight flits = 14 (0 measured)
latency change    = 0.00260547
throughput change = 0.0381166
Warmed up ...Time used is 3000 cycles
Class 0:
Packet latency average = 33.3891
	minimum = 7
	maximum = 72
Network latency average = 33.3891
	minimum = 7
	maximum = 72
Slowest packet = 396045
Flit latency average = 33.4385
	minimum = 7
	maximum = 72
Slowest flit = 396045
Fragmentation average = 0
	minimum = 0
	maximum = 0
Injected packet rate average = 0.009875
	minimum = 0.003 (at node 2)
	maximum = 0.016 (at node 4)
Accepted packet rate average = 0.00965625
	minimum = 0.003 (at node 31)
	maximum = 0.017 (at node 5)
Injected flit rate average = 0.009875
	minimum = 0.003 (at node 2)
	maximum = 0.016 (at node 4)
Accepted flit rate average= 0.00965625
	minimum = 0.003 (at node 31)
	maximum = 0.017 (at node 5)
Injected packet length average = 1
Accepted packet length average = 1
Total in-flight flits = 28 (28 measured)
latency change    = 0.0315038
throughput change = 0.0825243
Class 0:
Packet latency average = 33.3314
	minimum = 7
	maximum = 77
Network latency average = 33.3314
	minimum = 7
	maximum = 77
Slowest packet = 396417
Flit latency average = 33.3574
	minimum = 7
	maximum = 77
Slowest flit = 396417
Fragmentation average = 0
	minimum = 0
	maximum = 0
Injected packet rate average = 0.00948437
	minimum = 0.0055 (at node 10)
	maximum = 0.014 (at node 58)
Accepted packet rate average = 0.00942187
	minimum = 0.005 (at node 23)
	maximum = 0.015 (at node 37)
Injected flit rate average = 0.00948437
	minimum = 0.0055 (at node 10)
	maximum = 0.014 (at node 58)
Accepted flit rate average= 0.00942187
	minimum = 0.005 (at node 23)
	maximum = 0.015 (at node 37)
Injected packet length average = 1
Accepted packet length average = 1
Total in-flight flits = 22 (22 measured)
latency change    = 0.00173101
throughput change = 0.0248756
Class 0:
Packet latency average = 33.5875
	minimum = 7
	maximum = 77
Network latency average = 33.5875
	minimum = 7
	maximum = 77
Slowest packet = 396417
Flit latency average = 33.6026
	minimum = 7
	maximum = 77
Slowest flit = 396417
Fragmentation average = 0
	minimum = 0
	maximum = 0
Injected packet rate average = 0.00959896
	minimum = 0.00633333 (at node 42)
	maximum = 0.0133333 (at node 58)
Accepted packet rate average = 0.00954167
	minimum = 0.005 (at node 24)
	maximum = 0.0136667 (at node 47)
Injected flit rate average = 0.00959896
	minimum = 0.00633333 (at node 42)
	maximum = 0.0133333 (at node 58)
Accepted flit rate average= 0.00954167
	minimum = 0.005 (at node 24)
	maximum = 0.0136667 (at node 47)
Injected packet length average = 1
Accepted packet length average = 1
Total in-flight flits = 25 (25 measured)
latency change    = 0.00762436
throughput change = 0.0125546
Class 0:
Packet latency average = 33.4677
	minimum = 7
	maximum = 77
Network latency average = 33.4677
	minimum = 7
	maximum = 77
Slowest packet = 396417
Flit latency average = 33.4795
	minimum = 7
	maximum = 77
Slowest flit = 396417
Fragmentation average = 0
	minimum = 0
	maximum = 0
Injected packet rate average = 0.00975781
	minimum = 0.00725 (at node 27)
	maximum = 0.0155 (at node 58)
Accepted packet rate average = 0.00972656
	minimum = 0.0065 (at node 34)
	maximum = 0.0125 (at node 21)
Injected flit rate average = 0.00975781
	minimum = 0.00725 (at node 27)
	maximum = 0.0155 (at node 58)
Accepted flit rate average= 0.00972656
	minimum = 0.0065 (at node 34)
	maximum = 0.0125 (at node 21)
Injected packet length average = 1
Accepted packet length average = 1
Total in-flight flits = 22 (22 measured)
latency change    = 0.00357864
throughput change = 0.0190094
Draining all recorded packets ...
Draining remaining packets ...
Time taken is 7095 cycles
Class 0:
Packet latency average = 34.0523
	minimum = 7
	maximum = 77
Network latency average = 34.0523
	minimum = 7
	maximum = 77
Slowest packet = 398364
Flit latency average = 34.0523
	minimum = 7
	maximum = 77
Slowest flit = 398364
Fragmentation average = 0
	minimum = 0
	maximum = 0
Injected packet rate average = 0.00959375
	minimum = 0.004 (at node 21)
	maximum = 0.015 (at node 6)
Accepted packet rate average = 0.00926562
	minimum = 0.002 (at node 42)
	maximum = 0.018 (at node 23)
Injected flit rate average = 0.00959375
	minimum = 0.004 (at node 21)
	maximum = 0.015 (at node 6)
Accepted flit rate average= 0.00926562
	minimum = 0.002 (at node 42)
	maximum = 0.018 (at node 23)
Injected packet length average = 1
Accepted packet length average = 1
Total in-flight flits = 21 (0 measured)
latency change    = 1
throughput change = 1
Class 0:
Packet latency average = 33.5875
	minimum = 7
	maximum = 77
Network latency average = 33.5875
	minimum = 7
	maximum = 77
Slowest packet = 398364
Flit latency average = 33.5875
	minimum = 7
	maximum = 77
Slowest flit = 398364
Fragmentation average = 0
	minimum = 0
	maximum = 0
Injected packet rate average = 0.00992188
	minimum = 0.0055 (at node 41)
	maximum = 0.015 (at node 55)
Accepted packet rate average = 0.00973437
	minimum = 0.0045 (at node 42)
	maximum = 0.0155 (at node 13)
Injected flit rate average = 0.00992188
	minimum = 0.0055 (at node 41)
	maximum = 0.015 (at node 55)
Accepted flit rate average= 0.00973437
	minimum = 0.0045 (at node 42)
	maximum = 0.0155 (at node 13)
Injected packet length average = 1
Accepted packet length average = 1
Total in-flight flits = 24 (0 measured)
latency change    = 0.0138384
throughput change = 0.0481541
Class 0:
Packet latency average = 32.9268
	minimum = 7
	maximum = 77
Network latency average = 32.9268
	minimum = 7
	maximum = 77
Slowest packet = 399897
Flit latency average = 32.9268
	minimum = 7
	maximum = 77
Slowest flit = 399897
Fragmentation average = 0
	minimum = 0
	maximum = 0
Injected packet rate average = 0.00979688
	minimum = 0.004 (at node 11)
	maximum = 0.017 (at node 63)
Accepted packet rate average = 0.0100313
	minimum = 0.003 (at node 30)
	maximum = 0.016 (at node 8)
Injected flit rate average = 0.00979688
	minimum = 0.004 (at node 11)
	maximum = 0.017 (at node 63)
Accepted flit rate average= 0.0100313
	minimum = 0.003 (at node 30)
	maximum = 0.016 (at node 8)
Injected packet length average = 1
Accepted packet length average = 1
Total in-flight flits = 9 (0 measured)
latency change    = 0.0200654
throughput change = 0.029595
Warmed up ...Time used is 3000 cycles
Class 0:
Packet latency average = 33.1111
	minimum = 7
	maximum = 72
Network latency average = 33.1111
	minimum = 7
	maximum = 72
Slowest packet = 400140
Flit latency average = 33.248
	minimum = 7
	maximum = 72
Slowest flit = 400140
Fragmentation average = 0
	minimum = 0
	maximum = 0
Injected packet rate average = 0.00992188
	minimum = 0.003 (at node 52)
	maximum = 0.018 (at node 8)
Accepted packet rate average = 0.00970312
	minimum = 0.004 (at node 24)
	maximum = 0.021 (at node 11)
Injected flit rate average = 0.00992188
	minimum = 0.003 (at node 52)
	maximum = 0.018 (at node 8)
Accepted flit rate average= 0.00970312
	minimum = 0.004 (at node 24)
	maximum = 0.021 (at node 11)
Injected packet length average = 1
Accepted packet length average = 1
Total in-flight flits = 23 (23 measured)
latency change    = 0.00556671
throughput change = 0.0338164
Class 0:
Packet latency average = 33.3179
	minimum = 7
	maximum = 72
Network latency average = 33.3179
	minimum = 7
	maximum = 72
Slowest packet = 400140
Flit latency average = 33.3873
	minimum = 7
	maximum = 72
Slowest flit = 400140
Fragmentation average = 0
	minimum = 0
	maximum = 0
Injected packet rate average = 0.00941406
	minimum = 0.005 (at node 14)
	maximum = 0.0145 (at node 15)
Accepted packet rate average = 0.00935937
	minimum = 0.0035 (at node 53)
	maximum = 0.015 (at node 11)
Injected flit rate average = 0.00941406
	minimum = 0.005 (at node 14)
	maximum = 0.0145 (at node 15)
Accepted flit rate average= 0.00935937
	minimum = 0.0035 (at node 53)
	maximum = 0.015 (at node 11)
Injected packet length average = 1
Accepted packet length average = 1
Total in-flight flits = 16 (16 measured)
latency change    = 0.00620696
throughput change = 0.0367279
Class 0:
Packet latency average = 33.3163
	minimum = 7
	maximum = 77
Network latency average = 33.3163
	minimum = 7
	maximum = 77
Slowest packet = 401750
Flit latency average = 33.3612
	minimum = 7
	maximum = 77
Slowest flit = 401750
Fragmentation average = 0
	minimum = 0
	maximum = 0
Injected packet rate average = 0.00975521
	minimum = 0.00633333 (at node 49)
	maximum = 0.0126667 (at node 1)
Accepted packet rate average = 0.00964583
	minimum = 0.006 (at node 32)
	maximum = 0.0133333 (at node 47)
Injected flit rate average = 0.00975521
	minimum = 0.00633333 (at node 49)
	maximum = 0.0126667 (at node 1)
Accepted flit rate average= 0.00964583
	minimum = 0.006 (at node 32)
	maximum = 0.0133333 (at node 47)
Injected packet length average = 1
Accepted packet length average = 1
Total in-flight flits = 30 (30 measured)
latency change    = 4.74886e-05
throughput change = 0.0296976
Draining all recorded packets ...
Draining remaining packets ...
Time taken is 6088 cycles
Class 0:
Packet latency average = 32.4194
	minimum = 7
	maximum = 72
Network latency average = 32.4194
	minimum = 7
	maximum = 72
Slowest packet = 402110
Flit latency average = 32.4194
	minimum = 7
	maximum = 72
Slowest flit = 402110
Fragmentation average = 0
	minimum = 0
	maximum = 0
Injected packet rate average = 0.0102344
	minimum = 0.005 (at node 6)
	maximum = 0.018 (at node 33)
Accepted packet rate average = 0.00998438
	minimum = 0.004 (at node 59)
	maximum = 0.017 (at node 61)
Injected flit rate average = 0.0102344
	minimum = 0.005 (at node 6)
	maximum = 0.018 (at node 33)
Accepted flit rate average= 0.00998438
	minimum = 0.004 (at node 59)
	maximum = 0.017 (at node 61)
Injected packet length average = 1
Accepted packet length average = 1
Total in-flight flits = 16 (0 measured)
latency change    = 1
throughput change = 1
Class 0:
Packet latency average = 32.9475
	minimum = 7
	maximum = 77
Network latency average = 32.9475
	minimum = 7
	maximum = 77
Slowest packet = 402956
Flit latency average = 32.9475
	minimum = 7
	maximum = 77
Slowest flit = 402956
Fragmentation average = 0
	minimum = 0
	maximum = 0
Injected packet rate average = 0.0103125
	minimum = 0.0065 (at node 1)
	maximum = 0.015 (at node 10)
Accepted packet rate average = 0.010125
	minimum = 0.007 (at node 29)
	maximum = 0.014 (at node 48)
Injected flit rate average = 0.0103125
	minimum = 0.0065 (at node 1)
	maximum = 0.015 (at node 10)
Accepted flit rate average= 0.010125
	minimum = 0.007 (at node 29)
	maximum = 0.014 (at node 48)
Injected packet length average = 1
Accepted packet length average = 1
Total in-flight flits = 24 (0 measured)
latency change    = 0.0160293
throughput change = 0.0138889
Class 0:
Packet latency average = 33.6526
	minimum = 7
	maximum = 72
Network latency average = 33.6526
	minimum = 7
	maximum = 72
Slowest packet = 403485
Flit latency average = 33.6526
	minimum = 7
	maximum = 72
Slowest flit = 403485
Fragmentation average = 0
	minimum = 0
	maximum = 0
Injected packet rate average = 0.0103281
	minimum = 0.003 (at node 15)
	maximum = 0.023 (at node 37)
Accepted packet rate average = 0.0103906
	minimum = 0.005 (at node 26)
	maximum = 0.019 (at node 38)
Injected flit rate average = 0.0103281
	minimum = 0.003 (at node 15)
	maximum = 0.023 (at node 37)
Accepted flit rate average= 0.0103906
	minimum = 0.005 (at node 26)
	maximum = 0.019 (at node 38)
Injected packet length average = 1
Accepted packet length average = 1
Total in-flight flits = 20 (0 measured)
latency change    = 0.0209523
throughput change = 0.0255639
Warmed up ...Time used is 3000 cycles
Class 0:
Packet latency average = 34.4605
	minimum = 7
	maximum = 77
Network latency average = 34.4605
	minimum = 7
	maximum = 77
Slowest packet = 404279
Flit latency average = 34.5552
	minimum = 7
	maximum = 77
Slowest flit = 404279
Fragmentation average = 0
	minimum = 0
	maximum = 0
Injected packet rate average = 0.00928125
	minimum = 0.002 (at node 8)
	maximum = 0.018 (at node 12)
Accepted packet rate average = 0.00920312
	minimum = 0.002 (at node 58)
	maximum = 0.017 (at node 47)
Injected flit rate average = 0.00928125
	minimum = 0.002 (at node 8)
	maximum = 0.018 (at node 12)
Accepted flit rate average= 0.00920312
	minimum = 0.002 (at node 58)
	maximum = 0.017 (at node 47)
Injected packet length average = 1
Accepted packet length average = 1
Total in-flight flits = 25 (25 measured)
latency change    = 0.0234421
throughput change = 0.129032
Class 0:
Packet latency average = 33.515
	minimum = 7
	maximum = 77
Network latency average = 33.515
	minimum = 7
	maximum = 77
Slowest packet = 404279
Flit latency average = 33.5761
	minimum = 7
	maximum = 77
Slowest flit = 404279
Fragmentation average = 0
	minimum = 0
	maximum = 0
Injected packet rate average = 0.00952344
	minimum = 0.005 (at node 8)
	maximum = 0.0145 (at node 12)
Accepted packet rate average = 0.00954687
	minimum = 0.005 (at node 58)
	maximum = 0.0145 (at node 53)
Injected flit rate average = 0.00952344
	minimum = 0.005 (at node 8)
	maximum = 0.0145 (at node 12)
Accepted flit rate average= 0.00954687
	minimum = 0.005 (at node 58)
	maximum = 0.0145 (at node 53)
Injected packet length average = 1
Accepted packet length average = 1
Total in-flight flits = 17 (17 measured)
latency change    = 0.0282107
throughput change = 0.0360065
Class 0:
Packet latency average = 33.3631
	minimum = 7
	maximum = 77
Network latency average = 33.3631
	minimum = 7
	maximum = 77
Slowest packet = 404279
Flit latency average = 33.406
	minimum = 7
	maximum = 77
Slowest flit = 404279
Fragmentation average = 0
	minimum = 0
	maximum = 0
Injected packet rate average = 0.0094375
	minimum = 0.006 (at node 51)
	maximum = 0.0143333 (at node 46)
Accepted packet rate average = 0.00944271
	minimum = 0.00533333 (at node 58)
	maximum = 0.0136667 (at node 3)
Injected flit rate average = 0.0094375
	minimum = 0.006 (at node 51)
	maximum = 0.0143333 (at node 46)
Accepted flit rate average= 0.00944271
	minimum = 0.00533333 (at node 58)
	maximum = 0.0136667 (at node 3)
Injected packet length average = 1
Accepted packet length average = 1
Total in-flight flits = 19 (19 measured)
latency change    = 0.00455283
throughput change = 0.0110314
Class 0:
Packet latency average = 33.3111
	minimum = 7
	maximum = 77
Network latency average = 33.3111
	minimum = 7
	maximum = 77
Slowest packet = 404279
Flit latency average = 33.3435
	minimum = 7
	maximum = 77
Slowest flit = 404279
Fragmentation average = 0
	minimum = 0
	maximum = 0
Injected packet rate average = 0.00950781
	minimum = 0.0065 (at node 51)
	maximum = 0.0135 (at node 56)
Accepted packet rate average = 0.00950781
	minimum = 0.00625 (at node 43)
	maximum = 0.0135 (at node 33)
Injected flit rate average = 0.00950781
	minimum = 0.0065 (at node 51)
	maximum = 0.0135 (at node 56)
Accepted flit rate average= 0.00950781
	minimum = 0.00625 (at node 43)
	maximum = 0.0135 (at node 33)
Injected packet length average = 1
Accepted packet length average = 1
Total in-flight flits = 20 (20 measured)
latency change    = 0.00156034
throughput change = 0.00684744
Draining all recorded packets ...
Draining remaining packets ...
Time taken is 7096 cycles
====== Overall Traffic Statistics ======
====== Traffic class 0 ======
Packet latency average = 33.2972 (100 samples)
	minimum = 7 (100 samples)
	maximum = 76.57 (100 samples)
Network latency average = 33.2972 (100 samples)
	minimum = 7 (100 samples)
	maximum = 76.57 (100 samples)
Flit latency average = 33.3485 (100 samples)
	minimum = 7 (100 samples)
	maximum = 76.66 (100 samples)
Fragmentation average = 0 (100 samples)
	minimum = 0 (100 samples)
	maximum = 0 (100 samples)
Injected packet rate average = 0.0100249 (100 samples)
	minimum = 0.00616267 (100 samples)
	maximum = 0.0142995 (100 samples)
Accepted packet rate average = 0.0100251 (100 samples)
	minimum = 0.0062595 (100 samples)
	maximum = 0.0144173 (100 samples)
Injected flit rate average = 0.0100249 (100 samples)
	minimum = 0.00616267 (100 samples)
	maximum = 0.0142995 (100 samples)
Accepted flit rate average = 0.0100251 (100 samples)
	minimum = 0.0062595 (100 samples)
	maximum = 0.0144173 (100 samples)
Injected packet size average = 1 (100 samples)
Accepted packet size average = 1 (100 samples)
Hops average = 6.25556 (100 samples)
Total run time 49.2007
