BEGIN Configuration File: /tmp/tmplx5b2ej9.cfg
topology = mesh;
k = 4;
n = 2;
routing_function = adaptive_xy_yx;
num_vcs = 4;
vc_buf_size = 4;
wait_for_tail_credit = 1;
vc_allocator = islip;
sw_allocator = islip;
alloc_iters = 1;
credit_delay = 2;
routing_delay = 1;
vc_alloc_delay = 1;
sw_alloc_delay = 1;
input_speedup = 2;
output_speedup = 1;
internal_speedup = 1.0;
traffic = uniform;
packet_size = 1;
sim_type = latency;
injection_rate = 0.01;
warmup_periods = 3;
sample_period = 1000;
sim_count = 100;
seed = 2;

END Configuration File: /tmp/tmplx5b2ej9.cfg
Class 0:
Packet latency average = 19.4887
	minimum = 7
	maximum = 37
Network latency average = 19.4887
	minimum = 7
	maximum = 37
Slowest packet = 112
Flit latency average = 19.4887
	minimum = 7
	maximum = 37
Slowest flit = 112
Fragmentation average = 0
	minimum = 0
	maximum = 0
Injected packet rate average = 0.008625
	minimum = 0.003 (at node 2)
	maximum = 0.015 (at node 13)
Accepted packet rate average = 0.0083125
	minimum = 0.002 (at node 1)
	maximum = 0.014 (at node 7)
Injected flit rate average = 0.008625
	minimum = 0.003 (at node 2)
	maximum = 0.015 (at node 13)
Accepted flit rate average= 0.0083125
	minimum = 0.002 (at node 1)
	maximum = 0.014 (at node 7)
Injected packet length average = 1
Accepted packet length average = 1
Total in-flight flits = 5 (0 measured)
latency change    = 1
throughput change = 1
Class 0:
Packet latency average = 18.9803
	minimum = 7
	maximum = 37
Network latency average = 18.9803
	minimum = 7
	maximum = 37
Slowest packet = 112
Flit latency average = 18.9803
	minimum = 7
	maximum = 37
Slowest flit = 112
Fragmentation average = 0
	minimum = 0
	maximum = 0
Injected packet rate average = 0.009625
	minimum = 0.005 (at node 2)
	maximum = 0.015 (at node 13)
Accepted packet rate average = 0.0095
	minimum = 0.0065 (at node 3)
	maximum = 0.016 (at node 7)
Injected flit rate average = 0.009625
	minimum = 0.005 (at node 2)
	maximum = 0.015 (at node 13)
Accepted flit rate average= 0.0095
	minimum = 0.0065 (at node 3)
	maximum = 0.016 (at node 7)
Injected packet length average = 1
Accepted packet length average = 1
Total in-flight flits = 4 (0 measured)
latency change    = 0.0267888
throughput change = 0.125
Class 0:
Packet latency average = 19.651
	minimum = 7
	maximum = 37
Network latency average = 19.651
	minimum = 7
	maximum = 37
Slowest packet = 326
Flit latency average = 19.651
	minimum = 7
	maximum = 37
Slowest flit = 326
Fragmentation average = 0
	minimum = 0
	maximum = 0
Injected packet rate average = 0.009125
	minimum = 0.003 (at node 8)
	maximum = 0.018 (at node 3)
Accepted packet rate average = 0.0093125
	minimum = 0.005 (at node 3)
	maximum = 0.014 (at node 10)
Injected flit rate average = 0.009125
	minimum = 0.003 (at node 8)
	maximum = 0.018 (at node 3)
Accepted flit rate average= 0.0093125
	minimum = 0.005 (at node 3)
	maximum = 0.014 (at node 10)
Injected packet length average = 1
Accepted packet length average = 1
Total in-flight flits = 1 (0 measured)
latency change    = 0.0341328
throughput change = 0.0201342
Warmed up ...Time used is 3000 cycles
Class 0:
Packet latency average = 19.6763
	minimum = 7
	maximum = 37
Network latency average = 19.6763
	minimum = 7
	maximum = 37
Slowest packet = 457
Flit latency average = 19.6897
	minimum = 7
	maximum = 37
Slowest flit = 457
Fragmentation average = 0
	minimum = 0
	maximum = 0
Injected packet rate average = 0.0109375
	minimum = 0.007 (at node 3)
	maximum = 0.017 (at node 12)
Accepted packet rate average = 0.010875
	minimum = 0.007 (at node 5)
	maximum = 0.018 (at node 1)
Injected flit rate average = 0.0109375
	minimum = 0.007 (at node 3)
	maximum = 0.017 (at node 12)
Accepted flit rate average= 0.010875
	minimum = 0.007 (at node 5)
	maximum = 0.018 (at node 1)
Injected packet length average = 1
Accepted packet length average = 1
Total in-flight flits = 2 (2 measured)
latency change    = 0.0012855
throughput change = 0.143678
Class 0:
Packet latency average = 19.6738
	minimum = 7
	maximum = 37
Network latency average = 19.6738
	minimum = 7
	maximum = 37
Slowest packet = 457
Flit latency average = 19.681
	minimum = 7
	maximum = 37
Slowest flit = 457
Fragmentation average = 0
	minimum = 0
	maximum = 0
Injected packet rate average = 0.0102188
	minimum = 0.0075 (at node 15)
	maximum = 0.0125 (at node 0)
Accepted packet rate average = 0.0101875
	minimum = 0.008 (at node 6)
	maximum = 0.017 (at node 1)
Injected flit rate average = 0.0102188
	minimum = 0.0075 (at node 15)
	maximum = 0.0125 (at node 0)
Accepted flit rate average= 0.0101875
	minimum = 0.008 (at node 6)
	maximum = 0.017 (at node 1)
Injected packet length average = 1
Accepted packet length average = 1
Total in-flight flits = 2 (2 measured)
latency change    = 0.000124756
throughput change = 0.0674847
Class 0:
Packet latency average = 19.3646
	minimum = 7
	maximum = 37
Network latency average = 19.3646
	minimum = 7
	maximum = 37
Slowest packet = 457
Flit latency average = 19.3699
	minimum = 7
	maximum = 37
Slowest flit = 457
Fragmentation average = 0
	minimum = 0
	maximum = 0
Injected packet rate average = 0.0102917
	minimum = 0.00733333 (at node 2)
	maximum = 0.0126667 (at node 6)
Accepted packet rate average = 0.01025
	minimum = 0.008 (at node 6)
	maximum = 0.013 (at node 1)
Injected flit rate average = 0.0102917
	minimum = 0.00733333 (at node 2)
	maximum = 0.0126667 (at node 6)
Accepted flit rate average= 0.01025
	minimum = 0.008 (at node 6)
	maximum = 0.013 (at node 1)
Injected packet length average = 1
Accepted packet length average = 1
Total in-flight flits = 3 (3 measured)
latency change    = 0.0159717
throughput change = 0.00609756
Class 0:
Packet latency average = 19.3697
	minimum = 7
	maximum = 37
Network latency average = 19.3697
	minimum = 7
	maximum = 37
Slowest packet = 457
Flit latency average = 19.3737
	minimum = 7
	maximum = 37
Slowest flit = 457
Fragmentation average = 0
	minimum = 0
	maximum = 0
Injected packet rate average = 0.0104531
	minimum = 0.0075 (at node 2)
	maximum = 0.0125 (at node 5)
Accepted packet rate average = 0.0103281
	minimum = 0.00675 (at node 14)
	maximum = 0.013 (at node 1)
Injected flit rate average = 0.0104531
	minimum = 0.0075 (at node 2)
	maximum = 0.0125 (at node 5)
Accepted flit rate average= 0.0103281
	minimum = 0.00675 (at node 14)
	maximum = 0.013 (at node 1)
Injected packet length average = 1
Accepted packet length average = 1
Total in-flight flits = 9 (9 measured)
latency change    = 0.000265097
throughput change = 0.0075643
Class 0:
Packet latency average = 19.5383
	minimum = 7
	maximum = 37
Network latency average = 19.5383
	minimum = 7
	maximum = 37
Slowest packet = 457
Flit latency average = 19.5413
	minimum = 7
	maximum = 37
Slowest flit = 457
Fragmentation average = 0
	minimum = 0
	maximum = 0
Injected packet rate average = 0.0103375
	minimum = 0.0078 (at node 2)
	maximum = 0.0124 (at node 5)
Accepted packet rate average = 0.0103
	minimum = 0.0076 (at node 14)
	maximum = 0.0132 (at node 1)
Injected flit rate average = 0.0103375
	minimum = 0.0078 (at node 2)
	maximum = 0.0124 (at node 5)
Accepted flit rate average= 0.0103
	minimum = 0.0076 (at node 14)
	maximum = 0.0132 (at node 1)
Injected packet length average = 1
Accepted packet length average = 1
Total in-flight flits = 4 (4 measured)
latency change    = 0.00862807
throughput change = 0.00273058
Draining all recorded packets ...
Draining remaining packets ...
Time taken is 8062 cycles
Class 0:
Packet latency average = 19.7812
	minimum = 7
	maximum = 37
Network latency average = 19.7812
	minimum = 7
	maximum = 37
Slowest packet = 1368
Flit latency average = 19.7812
	minimum = 7
	maximum = 37
Slowest flit = 1368
Fragmentation average = 0
	minimum = 0
	maximum = 0
Injected packet rate average = 0.010375
	minimum = 0.005 (at node 5)
	maximum = 0.015 (at node 15)
Accepted packet rate average = 0.01
	minimum = 0.002 (at node 14)
	maximum = 0.016 (at node 5)
Injected flit rate average = 0.010375
	minimum = 0.005 (at node 5)
	maximum = 0.015 (at node 15)
Accepted flit rate average= 0.01
	minimum = 0.002 (at node 14)
	maximum = 0.016 (at node 5)
Injected packet length average = 1
Accepted packet length average = 1
Total in-flight flits = 6 (0 measured)
latency change    = 1
throughput change = 1
Class 0:
Packet latency average = 19.8914
	minimum = 7
	maximum = 40
Network latency average = 19.8914
	minimum = 7
	maximum = 40
Slowest packet = 1564
Flit latency average = 19.8914
	minimum = 7
	maximum = 40
Slowest flit = 1564
Fragmentation average = 0
	minimum = 0
	maximum = 0
Injected packet rate average = 0.0110937
	minimum = 0.0075 (at node 9)
	maximum = 0.017 (at node 8)
Accepted packet rate average = 0.0109375
	minimum = 0.006 (at node 14)
	maximum = 0.0165 (at node 5)
Injected flit rate average = 0.0110937
	minimum = 0.0075 (at node 9)
	maximum = 0.017 (at node 8)
Accepted flit rate average= 0.0109375
	minimum = 0.006 (at node 14)
	maximum = 0.0165 (at node 5)
Injected packet length average = 1
Accepted packet length average = 1
Total in-flight flits = 5 (0 measured)
latency change    = 0.005539
throughput change = 0.0857143
Class 0:
Packet latency average = 19.7616
	minimum = 7
	maximum = 37
Network latency average = 19.7616
	minimum = 7
	maximum = 37
Slowest packet = 1665
Flit latency average = 19.7616
	minimum = 7
	maximum = 37
Slowest flit = 1665
Fragmentation average = 0
	minimum = 0
	maximum = 0
Injected packet rate average = 0.011
	minimum = 0.005 (at node 1)
	maximum = 0.018 (at node 12)
Accepted packet rate average = 0.01075
	minimum = 0.006 (at node 2)
	maximum = 0.016 (at node 8)
Injected flit rate average = 0.011
	minimum = 0.005 (at node 1)
	maximum = 0.018 (at node 12)
Accepted flit rate average= 0.01075
	minimum = 0.006 (at node 2)
	maximum = 0.016 (at node 8)
Injected packet length average = 1
Accepted packet length average = 1
Total in-flight flits = 9 (0 measured)
latency change    = 0.00656832
throughput change = 0.0174419
Warmed up ...Time used is 3000 cycles
Class 0:
Packet latency average = 19.5906
	minimum = 7
	maximum = 37
Network latency average = 19.5906
	minimum = 7
	maximum = 37
Slowest packet = 1890
Flit latency average = 19.6556
	minimum = 7
	maximum = 37
Slowest flit = 1890
Fragmentation average = 0
	minimum = 0
	maximum = 0
Injected packet rate average = 0.01075
	minimum = 0.005 (at node 9)
	maximum = 0.017 (at node 1)
Accepted packet rate average = 0.01125
	minimum = 0.006 (at node 5)
	maximum = 0.018 (at node 13)
Injected flit rate average = 0.01075
	minimum = 0.005 (at node 9)
	maximum = 0.017 (at node 1)
Accepted flit rate average= 0.01125
	minimum = 0.006 (at node 5)
	maximum = 0.018 (at node 13)
Injected packet length average = 1
Accepted packet length average = 1
Total in-flight flits = 1 (1 measured)
latency change    = 0.00872787
throughput change = 0.0444444
Class 0:
Packet latency average = 19.6783
	minimum = 7
	maximum = 37
Network latency average = 19.6783
	minimum = 7
	maximum = 37
Slowest packet = 1890
Flit latency average = 19.7121
	minimum = 7
	maximum = 37
Slowest flit = 1890
Fragmentation average = 0
	minimum = 0
	maximum = 0
Injected packet rate average = 0.00984375
	minimum = 0.006 (at node 9)
	maximum = 0.014 (at node 0)
Accepted packet rate average = 0.0100938
	minimum = 0.007 (at node 1)
	maximum = 0.0145 (at node 13)
Injected flit rate average = 0.00984375
	minimum = 0.006 (at node 9)
	maximum = 0.014 (at node 0)
Accepted flit rate average= 0.0100938
	minimum = 0.007 (at node 1)
	maximum = 0.0145 (at node 13)
Injected packet length average = 1
Accepted packet length average = 1
Total in-flight flits = 1 (1 measured)
latency change    = 0.00445671
throughput change = 0.114551
Class 0:
Packet latency average = 19.5021
	minimum = 7
	maximum = 37
Network latency average = 19.5021
	minimum = 7
	maximum = 37
Slowest packet = 1890
Flit latency average = 19.5274
	minimum = 7
	maximum = 37
Slowest flit = 1890
Fragmentation average = 0
	minimum = 0
	maximum = 0
Injected packet rate average = 0.0101042
	minimum = 0.00766667 (at node 10)
	maximum = 0.0133333 (at node 0)
Accepted packet rate average = 0.0102708
	minimum = 0.008 (at node 12)
	maximum = 0.0126667 (at node 3)
Injected flit rate average = 0.0101042
	minimum = 0.00766667 (at node 10)
	maximum = 0.0133333 (at node 0)
Accepted flit rate average= 0.0102708
	minimum = 0.008 (at node 12)
	maximum = 0.0126667 (at node 3)
Injected packet length average = 1
Accepted packet length average = 1
Total in-flight flits = 1 (1 measured)
latency change    = 0.00903893
throughput change = 0.0172414
Class 0:
Packet latency average = 19.3748
	minimum = 7
	maximum = 37
Network latency average = 19.3748
	minimum = 7
	maximum = 37
Slowest packet = 1890
Flit latency average = 19.396
	minimum = 7
	maximum = 37
Slowest flit = 1890
Fragmentation average = 0
	minimum = 0
	maximum = 0
Injected packet rate average = 0.00995313
	minimum = 0.0075 (at node 10)
	maximum = 0.01225 (at node 2)
Accepted packet rate average = 0.0100625
	minimum = 0.00675 (at node 12)
	maximum = 0.01225 (at node 0)
Injected flit rate average = 0.00995313
	minimum = 0.0075 (at node 10)
	maximum = 0.01225 (at node 2)
Accepted flit rate average= 0.0100625
	minimum = 0.00675 (at node 12)
	maximum = 0.01225 (at node 0)
Injected packet length average = 1
Accepted packet length average = 1
Total in-flight flits = 2 (2 measured)
latency change    = 0.00656848
throughput change = 0.0207039
Class 0:
Packet latency average = 19.5203
	minimum = 7
	maximum = 37
Network latency average = 19.5203
	minimum = 7
	maximum = 37
Slowest packet = 1890
Flit latency average = 19.5353
	minimum = 7
	maximum = 37
Slowest flit = 1890
Fragmentation average = 0
	minimum = 0
	maximum = 0
Injected packet rate average = 0.010225
	minimum = 0.008 (at node 10)
	maximum = 0.0126 (at node 1)
Accepted packet rate average = 0.010275
	minimum = 0.0064 (at node 12)
	maximum = 0.0132 (at node 0)
Injected flit rate average = 0.010225
	minimum = 0.008 (at node 10)
	maximum = 0.0126 (at node 1)
Accepted flit rate average= 0.010275
	minimum = 0.0064 (at node 12)
	maximum = 0.0132 (at node 0)
Injected packet length average = 1
Accepted packet length average = 1
Total in-flight flits = 5 (5 measured)
latency change    = 0.00745337
throughput change = 0.0206813
Draining all recorded packets ...
Draining remaining packets ...
Time taken is 8041 cycles
Class 0:
Packet latency average = 20.4429
	minimum = 7
	maximum = 37
Network latency average = 20.4429
	minimum = 7
	maximum = 37
Slowest packet = 2750
Flit latency average = 20.4429
	minimum = 7
	maximum = 37
Slowest flit = 2750
Fragmentation average = 0
	minimum = 0
	maximum = 0
Injected packet rate average = 0.008875
	minimum = 0.002 (at node 7)
	maximum = 0.015 (at node 8)
Accepted packet rate average = 0.00875
	minimum = 0.005 (at node 12)
	maximum = 0.013 (at node 7)
Injected flit rate average = 0.008875
	minimum = 0.002 (at node 7)
	maximum = 0.015 (at node 8)
Accepted flit rate average= 0.00875
	minimum = 0.005 (at node 12)
	maximum = 0.013 (at node 7)
Injected packet length average = 1
Accepted packet length average = 1
Total in-flight flits = 2 (0 measured)
latency change    = 1
throughput change = 1
Class 0:
Packet latency average = 19.9161
	minimum = 7
	maximum = 37
Network latency average = 19.9161
	minimum = 7
	maximum = 37
Slowest packet = 2750
Flit latency average = 19.9161
	minimum = 7
	maximum = 37
Slowest flit = 2750
Fragmentation average = 0
	minimum = 0
	maximum = 0
Injected packet rate average = 0.0091875
	minimum = 0.0065 (at node 3)
	maximum = 0.0135 (at node 6)
Accepted packet rate average = 0.0089375
	minimum = 0.0055 (at node 12)
	maximum = 0.0125 (at node 1)
Injected flit rate average = 0.0091875
	minimum = 0.0065 (at node 3)
	maximum = 0.0135 (at node 6)
Accepted flit rate average= 0.0089375
	minimum = 0.0055 (at node 12)
	maximum = 0.0125 (at node 1)
Injected packet length average = 1
Accepted packet length average = 1
Total in-flight flits = 8 (0 measured)
latency change    = 0.0264496
throughput change = 0.020979
Class 0:
Packet latency average = 20.3897
	minimum = 7
	maximum = 37
Network latency average = 20.3897
	minimum = 7
	maximum = 37
Slowest packet = 3046
Flit latency average = 20.3897
	minimum = 7
	maximum = 37
Slowest flit = 3046
Fragmentation average = 0
	minimum = 0
	maximum = 0
Injected packet rate average = 0.0080625
	minimum = 0.005 (at node 10)
	maximum = 0.013 (at node 12)
Accepted packet rate average = 0.0085
	minimum = 0.003 (at node 1)
	maximum = 0.015 (at node 3)
Injected flit rate average = 0.0080625
	minimum = 0.005 (at node 10)
	maximum = 0.013 (at node 12)
Accepted flit rate average= 0.0085
	minimum = 0.003 (at node 1)
	maximum = 0.015 (at node 3)
Injected packet length average = 1
Accepted packet length average = 1
Total in-flight flits = 1 (0 measured)
latency change    = 0.0232285
throughput change = 0.0514706
Warmed up ...Time used is 3000 cycles
Class 0:
Packet latency average = 20.0759
	minimum = 7
	maximum = 37
Network latency average = 20.0759
	minimum = 7
	maximum = 37
Slowest packet = 3138
Flit latency average = 20.1509
	minimum = 7
	maximum = 37
Slowest flit = 3138
Fragmentation average = 0
	minimum = 0
	maximum = 0
Injected packet rate average = 0.010125
	minimum = 0.005 (at node 4)
	maximum = 0.019 (at node 12)
Accepted packet rate average = 0.0099375
	minimum = 0.004 (at node 4)
	maximum = 0.021 (at node 1)
Injected flit rate average = 0.010125
	minimum = 0.005 (at node 4)
	maximum = 0.019 (at node 12)
Accepted flit rate average= 0.0099375
	minimum = 0.004 (at node 4)
	maximum = 0.021 (at node 1)
Injected packet length average = 1
Accepted packet length average = 1
Total in-flight flits = 4 (4 measured)
latency change    = 0.0156285
throughput change = 0.144654
Class 0:
Packet latency average = 19.6404
	minimum = 7
	maximum = 37
Network latency average = 19.6404
	minimum = 7
	maximum = 37
Slowest packet = 3138
Flit latency average = 19.6764
	minimum = 7
	maximum = 37
Slowest flit = 3138
Fragmentation average = 0
	minimum = 0
	maximum = 0
Injected packet rate average = 0.01075
	minimum = 0.0075 (at node 4)
	maximum = 0.0155 (at node 12)
Accepted packet rate average = 0.0107188
	minimum = 0.005 (at node 14)
	maximum = 0.0155 (at node 0)
Injected flit rate average = 0.01075
	minimum = 0.0075 (at node 4)
	maximum = 0.0155 (at node 12)
Accepted flit rate average= 0.0107188
	minimum = 0.005 (at node 14)
	maximum = 0.0155 (at node 0)
Injected packet length average = 1
Accepted packet length average = 1
Total in-flight flits = 2 (2 measured)
latency change    = 0.0221788
throughput change = 0.0728863
Class 0:
Packet latency average = 19.5746
	minimum = 7
	maximum = 37
Network latency average = 19.5746
	minimum = 7
	maximum = 37
Slowest packet = 3138
Flit latency average = 19.5992
	minimum = 7
	maximum = 37
Slowest flit = 3138
Fragmentation average = 0
	minimum = 0
	maximum = 0
Injected packet rate average = 0.010625
	minimum = 0.00766667 (at node 9)
	maximum = 0.013 (at node 7)
Accepted packet rate average = 0.0105
	minimum = 0.006 (at node 14)
	maximum = 0.014 (at node 0)
Injected flit rate average = 0.010625
	minimum = 0.00766667 (at node 9)
	maximum = 0.013 (at node 7)
Accepted flit rate average= 0.0105
	minimum = 0.006 (at node 14)
	maximum = 0.014 (at node 0)
Injected packet length average = 1
Accepted packet length average = 1
Total in-flight flits = 7 (7 measured)
latency change    = 0.00336141
throughput change = 0.0208333
Class 0:
Packet latency average = 19.6786
	minimum = 7
	maximum = 37
Network latency average = 19.6786
	minimum = 7
	maximum = 37
Slowest packet = 3138
Flit latency average = 19.697
	minimum = 7
	maximum = 37
Slowest flit = 3138
Fragmentation average = 0
	minimum = 0
	maximum = 0
Injected packet rate average = 0.0105
	minimum = 0.008 (at node 2)
	maximum = 0.01325 (at node 7)
Accepted packet rate average = 0.0104688
	minimum = 0.00725 (at node 14)
	maximum = 0.01425 (at node 0)
Injected flit rate average = 0.0105
	minimum = 0.008 (at node 2)
	maximum = 0.01325 (at node 7)
Accepted flit rate average= 0.0104688
	minimum = 0.00725 (at node 14)
	maximum = 0.01425 (at node 0)
Injected packet length average = 1
Accepted packet length average = 1
Total in-flight flits = 3 (3 measured)
latency change    = 0.00528859
throughput change = 0.00298507
Class 0:
Packet latency average = 19.7118
	minimum = 7
	maximum = 37
Network latency average = 19.7118
	minimum = 7
	maximum = 37
Slowest packet = 3138
Flit latency average = 19.7269
	minimum = 7
	maximum = 37
Slowest flit = 3138
Fragmentation average = 0
	minimum = 0
	maximum = 0
Injected packet rate average = 0.01015
	minimum = 0.0078 (at node 2)
	maximum = 0.0124 (at node 7)
Accepted packet rate average = 0.0101625
	minimum = 0.0072 (at node 4)
	maximum = 0.0134 (at node 0)
Injected flit rate average = 0.01015
	minimum = 0.0078 (at node 2)
	maximum = 0.0124 (at node 7)
Accepted flit rate average= 0.0101625
	minimum = 0.0072 (at node 4)
	maximum = 0.0134 (at node 0)
Injected packet length average = 1
Accepted packet length average = 1
Total in-flight flits = 0 (0 measured)
latency change    = 0.00168416
throughput change = 0.0301353
Draining all recorded packets ...
Draining remaining packets ...
Time taken is 8001 cycles
Class 0:
Packet latency average = 19.4558
	minimum = 7
	maximum = 37
Network latency average = 19.4558
	minimum = 7
	maximum = 37
Slowest packet = 3924
Flit latency average = 19.4558
	minimum = 7
	maximum = 37
Slowest flit = 3924
Fragmentation average = 0
	minimum = 0
	maximum = 0
Injected packet rate average = 0.0094375
	minimum = 0.005 (at node 5)
	maximum = 0.014 (at node 15)
Accepted packet rate average = 0.0091875
	minimum = 0.005 (at node 5)
	maximum = 0.018 (at node 3)
Injected flit rate average = 0.0094375
	minimum = 0.005 (at node 5)
	maximum = 0.014 (at node 15)
Accepted flit rate average= 0.0091875
	minimum = 0.005 (at node 5)
	maximum = 0.018 (at node 3)
Injected packet length average = 1
Accepted packet length average = 1
Total in-flight flits = 4 (0 measured)
latency change    = 1
throughput change = 1
Class 0:
Packet latency average = 20.0799
	minimum = 7
	maximum = 37
Network latency average = 20.0799
	minimum = 7
	maximum = 37
Slowest packet = 3924
Flit latency average = 20.0799
	minimum = 7
	maximum = 37
Slowest flit = 3924
Fragmentation average = 0
	minimum = 0
	maximum = 0
Injected packet rate average = 0.0098125
	minimum = 0.0035 (at node 5)
	maximum = 0.013 (at node 15)
Accepted packet rate average = 0.00978125
	minimum = 0.007 (at node 15)
	maximum = 0.0165 (at node 3)
Injected flit rate average = 0.0098125
	minimum = 0.0035 (at node 5)
	maximum = 0.013 (at node 15)
Accepted flit rate average= 0.00978125
	minimum = 0.007 (at node 15)
	maximum = 0.0165 (at node 3)
Injected packet length average = 1
Accepted packet length average = 1
Total in-flight flits = 1 (0 measured)
latency change    = 0.0310804
throughput change = 0.0607029
Class 0:
Packet latency average = 19.7143
	minimum = 7
	maximum = 37
Network latency average = 19.7143
	minimum = 7
	maximum = 37
Slowest packet = 4264
Flit latency average = 19.7143
	minimum = 7
	maximum = 37
Slowest flit = 4264
Fragmentation average = 0
	minimum = 0
	maximum = 0
Injected packet rate average = 0.01025
	minimum = 0.004 (at node 9)
	maximum = 0.019 (at node 4)
Accepted packet rate average = 0.0100625
	minimum = 0.005 (at node 14)
	maximum = 0.014 (at node 13)
Injected flit rate average = 0.01025
	minimum = 0.004 (at node 9)
	maximum = 0.019 (at node 4)
Accepted flit rate average= 0.0100625
	minimum = 0.005 (at node 14)
	maximum = 0.014 (at node 13)
Injected packet length average = 1
Accepted packet length average = 1
Total in-flight flits = 4 (0 measured)
latency change    = 0.0185442
throughput change = 0.0279503
Warmed up ...Time used is 3000 cycles
Class 0:
Packet latency average = 19.8276
	minimum = 7
	maximum = 37
Network latency average = 19.8276
	minimum = 7
	maximum = 37
Slowest packet = 4371
Flit latency average = 19.8764
	minimum = 7
	maximum = 37
Slowest flit = 4371
Fragmentation average = 0
	minimum = 0
	maximum = 0
Injected packet rate average = 0.011
	minimum = 0.005 (at node 7)
	maximum = 0.016 (at node 3)
Accepted packet rate average = 0.011125
	minimum = 0.007 (at node 10)
	maximum = 0.015 (at node 3)
Injected flit rate average = 0.011
	minimum = 0.005 (at node 7)
	maximum = 0.016 (at node 3)
Accepted flit rate average= 0.011125
	minimum = 0.007 (at node 10)
	maximum = 0.015 (at node 3)
Injected packet length average = 1
Accepted packet length average = 1
Total in-flight flits = 2 (2 measured)
latency change    = 0.00571429
throughput change = 0.0955056
Class 0:
Packet latency average = 19.688
	minimum = 7
	maximum = 37
Network latency average = 19.688
	minimum = 7
	maximum = 37
Slowest packet = 4371
Flit latency average = 19.7147
	minimum = 7
	maximum = 37
Slowest flit = 4371
Fragmentation average = 0
	minimum = 0
	maximum = 0
Injected packet rate average = 0.0108125
	minimum = 0.0055 (at node 7)
	maximum = 0.0155 (at node 10)
Accepted packet rate average = 0.0108437
	minimum = 0.0085 (at node 1)
	maximum = 0.014 (at node 3)
Injected flit rate average = 0.0108125
	minimum = 0.0055 (at node 7)
	maximum = 0.0155 (at node 10)
Accepted flit rate average= 0.0108437
	minimum = 0.0085 (at node 1)
	maximum = 0.014 (at node 3)
Injected packet length average = 1
Accepted packet length average = 1
Total in-flight flits = 3 (3 measured)
latency change    = 0.00708753
throughput change = 0.0259366
Class 0:
Packet latency average = 19.7771
	minimum = 7
	maximum = 37
Network latency average = 19.7771
	minimum = 7
	maximum = 37
Slowest packet = 4371
Flit latency average = 19.7945
	minimum = 7
	maximum = 37
Slowest flit = 4371
Fragmentation average = 0
	minimum = 0
	maximum = 0
Injected packet rate average = 0.0106875
	minimum = 0.00633333 (at node 7)
	maximum = 0.0133333 (at node 2)
Accepted packet rate average = 0.0106458
	minimum = 0.007 (at node 10)
	maximum = 0.014 (at node 3)
Injected flit rate average = 0.0106875
	minimum = 0.00633333 (at node 7)
	maximum = 0.0133333 (at node 2)
Accepted flit rate average= 0.0106458
	minimum = 0.007 (at node 10)
	maximum = 0.014 (at node 3)
Injected packet length average = 1
Accepted packet length average = 1
Total in-flight flits = 6 (6 measured)
latency change    = 0.00450387
throughput change = 0.018591
Class 0:
Packet latency average = 19.7333
	minimum = 7
	maximum = 37
Network latency average = 19.7333
	minimum = 7
	maximum = 37
Slowest packet = 4371
Flit latency average = 19.7467
	minimum = 7
	maximum = 37
Slowest flit = 4371
Fragmentation average = 0
	minimum = 0
	maximum = 0
Injected packet rate average = 0.0105781
	minimum = 0.00725 (at node 7)
	maximum = 0.0125 (at node 2)
Accepted packet rate average = 0.0106094
	minimum = 0.00825 (at node 10)
	maximum = 0.01375 (at node 2)
Injected flit rate average = 0.0105781
	minimum = 0.00725 (at node 7)
	maximum = 0.0125 (at node 2)
Accepted flit rate average= 0.0106094
	minimum = 0.00825 (at node 10)
	maximum = 0.01375 (at node 2)
Injected packet length average = 1
Accepted packet length average = 1
Total in-flight flits = 2 (2 measured)
latency change    = 0.00221893
throughput change = 0.00343643
Draining all recorded packets ...
Draining remaining packets ...
Time taken is 7032 cycles
Class 0:
Packet latency average = 18.8227
	minimum = 7
	maximum = 37
Network latency average = 18.8227
	minimum = 7
	maximum = 37
Slowest packet = 5117
Flit latency average = 18.8227
	minimum = 7
	maximum = 37
Slowest flit = 5117
Fragmentation average = 0
	minimum = 0
	maximum = 0
Injected packet rate average = 0.0090625
	minimum = 0.002 (at node 0)
	maximum = 0.015 (at node 9)
Accepted packet rate average = 0.0088125
	minimum = 0.005 (at node 1)
	maximum = 0.014 (at node 2)
Injected flit rate average = 0.0090625
	minimum = 0.002 (at node 0)
	maximum = 0.015 (at node 9)
Accepted flit rate average= 0.0088125
	minimum = 0.005 (at node 1)
	maximum = 0.014 (at node 2)
Injected packet length average = 1
Accepted packet length average = 1
Total in-flight flits = 4 (0 measured)
latency change    = 1
throughput change = 1
Class 0:
Packet latency average = 19.1443
	minimum = 7
	maximum = 39
Network latency average = 19.1443
	minimum = 7
	maximum = 39
Slowest packet = 5223
Flit latency average = 19.1443
	minimum = 7
	maximum = 39
Slowest flit = 5223
Fragmentation average = 0
	minimum = 0
	maximum = 0
Injected packet rate average = 0.0095625
	minimum = 0.003 (at node 0)
	maximum = 0.0125 (at node 10)
Accepted packet rate average = 0.00953125
	minimum = 0.007 (at node 6)
	maximum = 0.013 (at node 3)
Injected flit rate average = 0.0095625
	minimum = 0.003 (at node 0)
	maximum = 0.0125 (at node 10)
Accepted flit rate average= 0.00953125
	minimum = 0.007 (at node 6)
	maximum = 0.013 (at node 3)
Injected packet length average = 1
Accepted packet length average = 1
Total in-flight flits = 1 (0 measured)
latency change    = 0.0167971
throughput change = 0.0754098
Class 0:
Packet latency average = 19.7625
	minimum = 7
	maximum = 37
Network latency average = 19.7625
	minimum = 7
	maximum = 37
Slowest packet = 5379
Flit latency average = 19.7625
	minimum = 7
	maximum = 37
Slowest flit = 5379
Fragmentation average = 0
	minimum = 0
	maximum = 0
Injected packet rate average = 0.0100625
	minimum = 0.004 (at node 14)
	maximum = 0.019 (at node 11)
Accepted packet rate average = 0.01
	minimum = 0.005 (at node 9)
	maximum = 0.017 (at node 6)
Injected flit rate average = 0.0100625
	minimum = 0.004 (at node 14)
	maximum = 0.019 (at node 11)
Accepted flit rate average= 0.01
	minimum = 0.005 (at node 9)
	maximum = 0.017 (at node 6)
Injected packet length average = 1
Accepted packet length average = 1
Total in-flight flits = 2 (0 measured)
latency change    = 0.0312834
throughput change = 0.046875
Warmed up ...Time used is 3000 cycles
Class 0:
Packet latency average = 19.0596
	minimum = 7
	maximum = 37
Network latency average = 19.0596
	minimum = 7
	maximum = 37
Slowest packet = 5504
Flit latency average = 19.098
	minimum = 7
	maximum = 37
Slowest flit = 5504
Fragmentation average = 0
	minimum = 0
	maximum = 0
Injected packet rate average = 0.00975
	minimum = 0.005 (at node 3)
	maximum = 0.016 (at node 7)
Accepted packet rate average = 0.0095625
	minimum = 0.002 (at node 6)
	maximum = 0.016 (at node 5)
Injected flit rate average = 0.00975
	minimum = 0.005 (at node 3)
	maximum = 0.016 (at node 7)
Accepted flit rate average= 0.0095625
	minimum = 0.002 (at node 6)
	maximum = 0.016 (at node 5)
Injected packet length average = 1
Accepted packet length average = 1
Total in-flight flits = 5 (5 measured)
latency change    = 0.0368789
throughput change = 0.0457516
Class 0:
Packet latency average = 19.3854
	minimum = 7
	maximum = 37
Network latency average = 19.3854
	minimum = 7
	maximum = 37
Slowest packet = 5504
Flit latency average = 19.4026
	minimum = 7
	maximum = 37
Slowest flit = 5504
Fragmentation average = 0
	minimum = 0
	maximum = 0
Injected packet rate average = 0.0095625
	minimum = 0.0075 (at node 15)
	maximum = 0.014 (at node 7)
Accepted packet rate average = 0.00946875
	minimum = 0.007 (at node 2)
	maximum = 0.0135 (at node 8)
Injected flit rate average = 0.0095625
	minimum = 0.0075 (at node 15)
	maximum = 0.014 (at node 7)
Accepted flit rate average= 0.00946875
	minimum = 0.007 (at node 2)
	maximum = 0.0135 (at node 8)
Injected packet length average = 1
Accepted packet length average = 1
Total in-flight flits = 5 (5 measured)
latency change    = 0.0168054
throughput change = 0.00990099
Class 0:
Packet latency average = 19.4499
	minimum = 7
	maximum = 37
Network latency average = 19.4499
	minimum = 7
	maximum = 37
Slowest packet = 5504
Flit latency average = 19.4612
	minimum = 7
	maximum = 37
Slowest flit = 5504
Fragmentation average = 0
	minimum = 0
	maximum = 0
Injected packet rate average = 0.00941667
	minimum = 0.00666667 (at node 12)
	maximum = 0.0136667 (at node 7)
Accepted packet rate average = 0.00939583
	minimum = 0.00766667 (at node 2)
	maximum = 0.012 (at node 8)
Injected flit rate average = 0.00941667
	minimum = 0.00666667 (at node 12)
	maximum = 0.0136667 (at node 7)
Accepted flit rate average= 0.00939583
	minimum = 0.00766667 (at node 2)
	maximum = 0.012 (at node 8)
Injected packet length average = 1
Accepted packet length average = 1
Total in-flight flits = 3 (3 measured)
latency change    = 0.00331655
throughput change = 0.00776053
Draining all recorded packets ...
Draining remaining packets ...
Time taken is 6036 cycles
Class 0:
Packet latency average = 18.8013
	minimum = 7
	maximum = 37
Network latency average = 18.8013
	minimum = 7
	maximum = 37
Slowest packet = 6000
Flit latency average = 18.8013
	minimum = 7
	maximum = 37
Slowest flit = 6000
Fragmentation average = 0
	minimum = 0
	maximum = 0
Injected packet rate average = 0.0100625
	minimum = 0.006 (at node 11)
	maximum = 0.018 (at node 0)
Accepted packet rate average = 0.00975
	minimum = 0.004 (at node 2)
	maximum = 0.015 (at node 5)
Injected flit rate average = 0.0100625
	minimum = 0.006 (at node 11)
	maximum = 0.018 (at node 0)
Accepted flit rate average= 0.00975
	minimum = 0.004 (at node 2)
	maximum = 0.015 (at node 5)
Injected packet length average = 1
Accepted packet length average = 1
Total in-flight flits = 5 (0 measured)
latency change    = 1
throughput change = 1
Class 0:
Packet latency average = 18.9354
	minimum = 7
	maximum = 37
Network latency average = 18.9354
	minimum = 7
	maximum = 37
Slowest packet = 6000
Flit latency average = 18.9354
	minimum = 7
	maximum = 37
Slowest flit = 6000
Fragmentation average = 0
	minimum = 0
	maximum = 0
Injected packet rate average = 0.00925
	minimum = 0.006 (at node 13)
	maximum = 0.0145 (at node 0)
Accepted packet rate average = 0.0091875
	minimum = 0.0055 (at node 2)
	maximum = 0.012 (at node 5)
Injected flit rate average = 0.00925
	minimum = 0.006 (at node 13)
	maximum = 0.0145 (at node 0)
Accepted flit rate average= 0.0091875
	minimum = 0.0055 (at node 2)
	maximum = 0.012 (at node 5)
Injected packet length average = 1
Accepted packet length average = 1
Total in-flight flits = 2 (0 measured)
latency change    = 0.00708157
throughput change = 0.0612245
Class 0:
Packet latency average = 20.2331
	minimum = 7
	maximum = 37
Network latency average = 20.2331
	minimum = 7
	maximum = 37
Slowest packet = 6260
Flit latency average = 20.2331
	minimum = 7
	maximum = 37
Slowest flit = 6260
Fragmentation average = 0
	minimum = 0
	maximum = 0
Injected packet rate average = 0.01025
	minimum = 0.004 (at node 13)
	maximum = 0.016 (at node 12)
Accepted packet rate average = 0.0101875
	minimum = 0.004 (at node 14)
	maximum = 0.017 (at node 4)
Injected flit rate average = 0.01025
	minimum = 0.004 (at node 13)
	maximum = 0.016 (at node 12)
Accepted flit rate average= 0.0101875
	minimum = 0.004 (at node 14)
	maximum = 0.017 (at node 4)
Injected packet length average = 1
Accepted packet length average = 1
Total in-flight flits = 3 (0 measured)
latency change    = 0.0641401
throughput change = 0.0981595
Warmed up ...Time used is 3000 cycles
Class 0:
Packet latency average = 19.5132
	minimum = 7
	maximum = 37
Network latency average = 19.5132
	minimum = 7
	maximum = 37
Slowest packet = 6433
Flit latency average = 19.5935
	minimum = 7
	maximum = 37
Slowest flit = 6433
Fragmentation average = 0
	minimum = 0
	maximum = 0
Injected packet rate average = 0.00975
	minimum = 0.007 (at node 9)
	maximum = 0.014 (at node 7)
Accepted packet rate average = 0.0096875
	minimum = 0.004 (at node 8)
	maximum = 0.014 (at node 2)
Injected flit rate average = 0.00975
	minimum = 0.007 (at node 9)
	maximum = 0.014 (at node 7)
Accepted flit rate average= 0.0096875
	minimum = 0.004 (at node 8)
	maximum = 0.014 (at node 2)
Injected packet length average = 1
Accepted packet length average = 1
Total in-flight flits = 4 (4 measured)
latency change    = 0.0368967
throughput change = 0.0516129
Class 0:
Packet latency average = 19.6832
	minimum = 7
	maximum = 37
Network latency average = 19.6832
	minimum = 7
	maximum = 37
Slowest packet = 6433
Flit latency average = 19.7222
	minimum = 7
	maximum = 37
Slowest flit = 6433
Fragmentation average = 0
	minimum = 0
	maximum = 0
Injected packet rate average = 0.00959375
	minimum = 0.0075 (at node 6)
	maximum = 0.0115 (at node 8)
Accepted packet rate average = 0.0095625
	minimum = 0.0065 (at node 13)
	maximum = 0.013 (at node 10)
Injected flit rate average = 0.00959375
	minimum = 0.0075 (at node 6)
	maximum = 0.0115 (at node 8)
Accepted flit rate average= 0.0095625
	minimum = 0.0065 (at node 13)
	maximum = 0.013 (at node 10)
Injected packet length average = 1
Accepted packet length average = 1
Total in-flight flits = 4 (4 measured)
latency change    = 0.00863735
throughput change = 0.0130719
Class 0:
Packet latency average = 19.4157
	minimum = 7
	maximum = 37
Network latency average = 19.4157
	minimum = 7
	maximum = 37
Slowest packet = 6433
Flit latency average = 19.4442
	minimum = 7
	maximum = 37
Slowest flit = 6433
Fragmentation average = 0
	minimum = 0
	maximum = 0
Injected packet rate average = 0.00933333
	minimum = 0.00733333 (at node 12)
	maximum = 0.0116667 (at node 8)
Accepted packet rate average = 0.00933333
	minimum = 0.006 (at node 0)
	maximum = 0.0116667 (at node 10)
Injected flit rate average = 0.00933333
	minimum = 0.00733333 (at node 12)
	maximum = 0.0116667 (at node 8)
Accepted flit rate average= 0.00933333
	minimum = 0.006 (at node 0)
	maximum = 0.0116667 (at node 10)
Injected packet length average = 1
Accepted packet length average = 1
Total in-flight flits = 3 (3 measured)
latency change    = 0.0137743
throughput change = 0.0245536
Class 0:
Packet latency average = 19.2602
	minimum = 7
	maximum = 37
Network latency average = 19.2602
	minimum = 7
	maximum = 37
Slowest packet = 6433
Flit latency average = 19.2816
	minimum = 7
	maximum = 37
Slowest flit = 6433
Fragmentation average = 0
	minimum = 0
	maximum = 0
Injected packet rate average = 0.00965625
	minimum = 0.008 (at node 12)
	maximum = 0.013 (at node 4)
Accepted packet rate average = 0.00965625
	minimum = 0.00675 (at node 0)
	maximum = 0.0125 (at node 10)
Injected flit rate average = 0.00965625
	minimum = 0.008 (at node 12)
	maximum = 0.013 (at node 4)
Accepted flit rate average= 0.00965625
	minimum = 0.00675 (at node 0)
	maximum = 0.0125 (at node 10)
Injected packet length average = 1
Accepted packet length average = 1
Total in-flight flits = 3 (3 measured)
latency change    = 0.00807718
throughput change = 0.0334412
Draining all recorded packets ...
Draining remaining packets ...
Time taken is 7014 cycles
Class 0:
Packet latency average = 19.5217
	minimum = 7
	maximum = 37
Network latency average = 19.5217
	minimum = 7
	maximum = 37
Slowest packet = 7095
Flit latency average = 19.5217
	minimum = 7
	maximum = 37
Slowest flit = 7095
Fragmentation average = 0
	minimum = 0
	maximum = 0
Injected packet rate average = 0.0103125
	minimum = 0.007 (at node 2)
	maximum = 0.015 (at node 15)
Accepted packet rate average = 0.0100625
	minimum = 0.004 (at node 0)
	maximum = 0.017 (at node 9)
Injected flit rate average = 0.0103125
	minimum = 0.007 (at node 2)
	maximum = 0.015 (at node 15)
Accepted flit rate average= 0.0100625
	minimum = 0.004 (at node 0)
	maximum = 0.017 (at node 9)
Injected packet length average = 1
Accepted packet length average = 1
Total in-flight flits = 4 (0 measured)
latency change    = 1
throughput change = 1
Class 0:
Packet latency average = 19.7508
	minimum = 7
	maximum = 37
Network latency average = 19.7508
	minimum = 7
	maximum = 37
Slowest packet = 7095
Flit latency average = 19.7508
	minimum = 7
	maximum = 37
Slowest flit = 7095
Fragmentation average = 0
	minimum = 0
	maximum = 0
Injected packet rate average = 0.0100313
	minimum = 0.0075 (at node 2)
	maximum = 0.0135 (at node 1)
Accepted packet rate average = 0.00990625
	minimum = 0.006 (at node 0)
	maximum = 0.015 (at node 2)
Injected flit rate average = 0.0100313
	minimum = 0.0075 (at node 2)
	maximum = 0.0135 (at node 1)
Accepted flit rate average= 0.00990625
	minimum = 0.006 (at node 0)
	maximum = 0.015 (at node 2)
Injected packet length average = 1
Accepted packet length average = 1
Total in-flight flits = 4 (0 measured)
latency change    = 0.011597
throughput change = 0.0157729
Class 0:
Packet latency average = 18.4046
	minimum = 7
	maximum = 32
Network latency average = 18.4046
	minimum = 7
	maximum = 32
Slowest packet = 7357
Flit latency average = 18.4046
	minimum = 7
	maximum = 32
Slowest flit = 7357
Fragmentation average = 0
	minimum = 0
	maximum = 0
Injected packet rate average = 0.01075
	minimum = 0.005 (at node 9)
	maximum = 0.017 (at node 0)
Accepted packet rate average = 0.0108125
	minimum = 0.008 (at node 0)
	maximum = 0.017 (at node 5)
Injected flit rate average = 0.01075
	minimum = 0.005 (at node 9)
	maximum = 0.017 (at node 0)
Accepted flit rate average= 0.0108125
	minimum = 0.008 (at node 0)
	maximum = 0.017 (at node 5)
Injected packet length average = 1
Accepted packet length average = 1
Total in-flight flits = 3 (0 measured)
latency change    = 0.0731427
throughput change = 0.083815
Warmed up ...Time used is 3000 cycles
Class 0:
Packet latency average = 20.8057
	minimum = 7
	maximum = 38
Network latency average = 20.8057
	minimum = 7
	maximum = 38
Slowest packet = 7586
Flit latency average = 20.7697
	minimum = 7
	maximum = 38
Slowest flit = 7586
Fragmentation average = 0
	minimum = 0
	maximum = 0
Injected packet rate average = 0.0111875
	minimum = 0.007 (at node 5)
	maximum = 0.017 (at node 6)
Accepted packet rate average = 0.011125
	minimum = 0.003 (at node 6)
	maximum = 0.015 (at node 4)
Injected flit rate average = 0.0111875
	minimum = 0.007 (at node 5)
	maximum = 0.017 (at node 6)
Accepted flit rate average= 0.011125
	minimum = 0.003 (at node 6)
	maximum = 0.015 (at node 4)
Injected packet length average = 1
Accepted packet length average = 1
Total in-flight flits = 4 (4 measured)
latency change    = 0.115405
throughput change = 0.0280899
Class 0:
Packet latency average = 20.342
	minimum = 7
	maximum = 38
Network latency average = 20.342
	minimum = 7
	maximum = 38
Slowest packet = 7586
Flit latency average = 20.3276
	minimum = 7
	maximum = 38
Slowest flit = 7586
Fragmentation average = 0
	minimum = 0
	maximum = 0
Injected packet rate average = 0.011
	minimum = 0.006 (at node 5)
	maximum = 0.0145 (at node 6)
Accepted packet rate average = 0.0109687
	minimum = 0.0075 (at node 9)
	maximum = 0.015 (at node 3)
Injected flit rate average = 0.011
	minimum = 0.006 (at node 5)
	maximum = 0.0145 (at node 6)
Accepted flit rate average= 0.0109687
	minimum = 0.0075 (at node 9)
	maximum = 0.015 (at node 3)
Injected packet length average = 1
Accepted packet length average = 1
Total in-flight flits = 4 (4 measured)
latency change    = 0.0227982
throughput change = 0.014245
Class 0:
Packet latency average = 20.4393
	minimum = 7
	maximum = 38
Network latency average = 20.4393
	minimum = 7
	maximum = 38
Slowest packet = 7586
Flit latency average = 20.4286
	minimum = 7
	maximum = 38
Slowest flit = 7586
Fragmentation average = 0
	minimum = 0
	maximum = 0
Injected packet rate average = 0.0103542
	minimum = 0.00833333 (at node 5)
	maximum = 0.0136667 (at node 6)
Accepted packet rate average = 0.0103542
	minimum = 0.008 (at node 6)
	maximum = 0.0136667 (at node 10)
Injected flit rate average = 0.0103542
	minimum = 0.00833333 (at node 5)
	maximum = 0.0136667 (at node 6)
Accepted flit rate average= 0.0103542
	minimum = 0.008 (at node 6)
	maximum = 0.0136667 (at node 10)
Injected packet length average = 1
Accepted packet length average = 1
Total in-flight flits = 3 (3 measured)
latency change    = 0.00476129
throughput change = 0.0593561
Class 0:
Packet latency average = 20.185
	minimum = 7
	maximum = 38
Network latency average = 20.185
	minimum = 7
	maximum = 38
Slowest packet = 7586
Flit latency average = 20.1781
	minimum = 7
	maximum = 38
Slowest flit = 7586
Fragmentation average = 0
	minimum = 0
	maximum = 0
Injected packet rate average = 0.0102344
	minimum = 0.0085 (at node 8)
	maximum = 0.0125 (at node 6)
Accepted packet rate average = 0.0102656
	minimum = 0.0075 (at node 11)
	maximum = 0.013 (at node 10)
Injected flit rate average = 0.0102344
	minimum = 0.0085 (at node 8)
	maximum = 0.0125 (at node 6)
Accepted flit rate average= 0.0102656
	minimum = 0.0075 (at node 11)
	maximum = 0.013 (at node 10)
Injected packet length average = 1
Accepted packet length average = 1
Total in-flight flits = 1 (1 measured)
latency change    = 0.0125963
throughput change = 0.00862506
Class 0:
Packet latency average = 20.1616
	minimum = 7
	maximum = 38
Network latency average = 20.1616
	minimum = 7
	maximum = 38
Slowest packet = 7586
Flit latency average = 20.1561
	minimum = 7
	maximum = 38
Slowest flit = 7586
Fragmentation average = 0
	minimum = 0
	maximum = 0
Injected packet rate average = 0.010225
	minimum = 0.008 (at node 8)
	maximum = 0.013 (at node 6)
Accepted packet rate average = 0.01025
	minimum = 0.0074 (at node 11)
	maximum = 0.0118 (at node 2)
Injected flit rate average = 0.010225
	minimum = 0.008 (at node 8)
	maximum = 0.013 (at node 6)
Accepted flit rate average= 0.01025
	minimum = 0.0074 (at node 11)
	maximum = 0.0118 (at node 2)
Injected packet length average = 1
Accepted packet length average = 1
Total in-flight flits = 1 (1 measured)
latency change    = 0.00116303
throughput change = 0.00152439
Class 0:
Packet latency average = 19.9125
	minimum = 7
	maximum = 38
Network latency average = 19.9125
	minimum = 7
	maximum = 38
Slowest packet = 7586
Flit latency average = 19.9087
	minimum = 7
	maximum = 38
Slowest flit = 7586
Fragmentation average = 0
	minimum = 0
	maximum = 0
Injected packet rate average = 0.0103125
	minimum = 0.0085 (at node 14)
	maximum = 0.013 (at node 2)
Accepted packet rate average = 0.0102708
	minimum = 0.008 (at node 12)
	maximum = 0.0126667 (at node 8)
Injected flit rate average = 0.0103125
	minimum = 0.0085 (at node 14)
	maximum = 0.013 (at node 2)
Accepted flit rate average= 0.0102708
	minimum = 0.008 (at node 12)
	maximum = 0.0126667 (at node 8)
Injected packet length average = 1
Accepted packet length average = 1
Total in-flight flits = 7 (7 measured)
latency change    = 0.0125074
throughput change = 0.0020284
Draining all recorded packets ...
Draining remaining packets ...
Time taken is 9041 cycles
Class 0:
Packet latency average = 19.5
	minimum = 7
	maximum = 32
Network latency average = 19.5
	minimum = 7
	maximum = 32
Slowest packet = 8531
Flit latency average = 19.5
	minimum = 7
	maximum = 32
Slowest flit = 8531
Fragmentation average = 0
	minimum = 0
	maximum = 0
Injected packet rate average = 0.0091875
	minimum = 0.004 (at node 10)
	maximum = 0.021 (at node 2)
Accepted packet rate average = 0.008875
	minimum = 0.004 (at node 10)
	maximum = 0.016 (at node 0)
Injected flit rate average = 0.0091875
	minimum = 0.004 (at node 10)
	maximum = 0.021 (at node 2)
Accepted flit rate average= 0.008875
	minimum = 0.004 (at node 10)
	maximum = 0.016 (at node 0)
Injected packet length average = 1
Accepted packet length average = 1
Total in-flight flits = 5 (0 measured)
latency change    = 1
throughput change = 1
Class 0:
Packet latency average = 19.6006
	minimum = 7
	maximum = 37
Network latency average = 19.6006
	minimum = 7
	maximum = 37
Slowest packet = 8702
Flit latency average = 19.6006
	minimum = 7
	maximum = 37
Slowest flit = 8702
Fragmentation average = 0
	minimum = 0
	maximum = 0
Injected packet rate average = 0.0096875
	minimum = 0.0065 (at node 10)
	maximum = 0.0155 (at node 2)
Accepted packet rate average = 0.009625
	minimum = 0.006 (at node 2)
	maximum = 0.0135 (at node 8)
Injected flit rate average = 0.0096875
	minimum = 0.0065 (at node 10)
	maximum = 0.0155 (at node 2)
Accepted flit rate average= 0.009625
	minimum = 0.006 (at node 2)
	maximum = 0.0135 (at node 8)
Injected packet length average = 1
Accepted packet length average = 1
Total in-flight flits = 2 (0 measured)
latency change    = 0.005135
throughput change = 0.0779221
Class 0:
Packet latency average = 20.1166
	minimum = 7
	maximum = 37
Network latency average = 20.1166
	minimum = 7
	maximum = 37
Slowest packet = 8847
Flit latency average = 20.1166
	minimum = 7
	maximum = 37
Slowest flit = 8847
Fragmentation average = 0
	minimum = 0
	maximum = 0
Injected packet rate average = 0.01025
	minimum = 0.004 (at node 7)
	maximum = 0.014 (at node 1)
Accepted packet rate average = 0.0101875
	minimum = 0.006 (at node 2)
	maximum = 0.018 (at node 10)
Injected flit rate average = 0.01025
	minimum = 0.004 (at node 7)
	maximum = 0.014 (at node 1)
Accepted flit rate average= 0.0101875
	minimum = 0.006 (at node 2)
	maximum = 0.018 (at node 10)
Injected packet length average = 1
Accepted packet length average = 1
Total in-flight flits = 3 (0 measured)
latency change    = 0.0256463
throughput change = 0.0552147
Warmed up ...Time used is 3000 cycles
Class 0:
Packet latency average = 18.4847
	minimum = 7
	maximum = 37
Network latency average = 18.4847
	minimum = 7
	maximum = 37
Slowest packet = 9009
Flit latency average = 18.5482
	minimum = 7
	maximum = 37
Slowest flit = 9009
Fragmentation average = 0
	minimum = 0
	maximum = 0
Injected packet rate average = 0.010375
	minimum = 0.001 (at node 13)
	maximum = 0.016 (at node 9)
Accepted packet rate average = 0.010375
	minimum = 0.004 (at node 7)
	maximum = 0.015 (at node 1)
Injected flit rate average = 0.010375
	minimum = 0.001 (at node 13)
	maximum = 0.016 (at node 9)
Accepted flit rate average= 0.010375
	minimum = 0.004 (at node 7)
	maximum = 0.015 (at node 1)
Injected packet length average = 1
Accepted packet length average = 1
Total in-flight flits = 3 (3 measured)
latency change    = 0.0882841
throughput change = 0.0180723
Class 0:
Packet latency average = 19.1317
	minimum = 7
	maximum = 37
Network latency average = 19.1317
	minimum = 7
	maximum = 37
Slowest packet = 9009
Flit latency average = 19.1573
	minimum = 7
	maximum = 37
Slowest flit = 9009
Fragmentation average = 0
	minimum = 0
	maximum = 0
Injected packet rate average = 0.0105938
	minimum = 0.0035 (at node 7)
	maximum = 0.015 (at node 9)
Accepted packet rate average = 0.0105313
	minimum = 0.007 (at node 13)
	maximum = 0.013 (at node 12)
Injected flit rate average = 0.0105938
	minimum = 0.0035 (at node 7)
	maximum = 0.015 (at node 9)
Accepted flit rate average= 0.0105313
	minimum = 0.007 (at node 13)
	maximum = 0.013 (at node 12)
Injected packet length average = 1
Accepted packet length average = 1
Total in-flight flits = 5 (5 measured)
latency change    = 0.033822
throughput change = 0.0148368
Class 0:
Packet latency average = 19.4125
	minimum = 7
	maximum = 37
Network latency average = 19.4125
	minimum = 7
	maximum = 37
Slowest packet = 9009
Flit latency average = 19.4275
	minimum = 7
	maximum = 37
Slowest flit = 9009
Fragmentation average = 0
	minimum = 0
	maximum = 0
Injected packet rate average = 0.0107708
	minimum = 0.00566667 (at node 7)
	maximum = 0.0153333 (at node 8)
Accepted packet rate average = 0.0107708
	minimum = 0.007 (at node 13)
	maximum = 0.0146667 (at node 12)
Injected flit rate average = 0.0107708
	minimum = 0.00566667 (at node 7)
	maximum = 0.0153333 (at node 8)
Accepted flit rate average= 0.0107708
	minimum = 0.007 (at node 13)
	maximum = 0.0146667 (at node 12)
Injected packet length average = 1
Accepted packet length average = 1
Total in-flight flits = 3 (3 measured)
latency change    = 0.0144606
throughput change = 0.0222437
Class 0:
Packet latency average = 19.3269
	minimum = 7
	maximum = 37
Network latency average = 19.3269
	minimum = 7
	maximum = 37
Slowest packet = 9009
Flit latency average = 19.3387
	minimum = 7
	maximum = 37
Slowest flit = 9009
Fragmentation average = 0
	minimum = 0
	maximum = 0
Injected packet rate average = 0.0105781
	minimum = 0.0075 (at node 7)
	maximum = 0.015 (at node 8)
Accepted packet rate average = 0.0106094
	minimum = 0.0065 (at node 13)
	maximum = 0.01325 (at node 0)
Injected flit rate average = 0.0105781
	minimum = 0.0075 (at node 7)
	maximum = 0.015 (at node 8)
Accepted flit rate average= 0.0106094
	minimum = 0.0065 (at node 13)
	maximum = 0.01325 (at node 0)
Injected packet length average = 1
Accepted packet length average = 1
Total in-flight flits = 1 (1 measured)
latency change    = 0.00442534
throughput change = 0.0152185
Draining all recorded packets ...
Draining remaining packets ...
Time taken is 7006 cycles
Class 0:
Packet latency average = 19.3179
	minimum = 7
	maximum = 37
Network latency average = 19.3179
	minimum = 7
	maximum = 37
Slowest packet = 9774
Flit latency average = 19.3179
	minimum = 7
	maximum = 37
Slowest flit = 9774
Fragmentation average = 0
	minimum = 0
	maximum = 0
Injected packet rate average = 0.0095
	minimum = 0.004 (at node 12)
	maximum = 0.02 (at node 13)
Accepted packet rate average = 0.0094375
	minimum = 0.004 (at node 0)
	maximum = 0.015 (at node 6)
Injected flit rate average = 0.0095
	minimum = 0.004 (at node 12)
	maximum = 0.02 (at node 13)
Accepted flit rate average= 0.0094375
	minimum = 0.004 (at node 0)
	maximum = 0.015 (at node 6)
Injected packet length average = 1
Accepted packet length average = 1
Total in-flight flits = 1 (0 measured)
latency change    = 1
throughput change = 1
Class 0:
Packet latency average = 18.89
	minimum = 7
	maximum = 37
Network latency average = 18.89
	minimum = 7
	maximum = 37
Slowest packet = 9774
Flit latency average = 18.89
	minimum = 7
	maximum = 37
Slowest flit = 9774
Fragmentation average = 0
	minimum = 0
	maximum = 0
Injected packet rate average = 0.00946875
	minimum = 0.0045 (at node 12)
	maximum = 0.0155 (at node 13)
Accepted packet rate average = 0.009375
	minimum = 0.005 (at node 0)
	maximum = 0.0135 (at node 11)
Injected flit rate average = 0.00946875
	minimum = 0.0045 (at node 12)
	maximum = 0.0155 (at node 13)
Accepted flit rate average= 0.009375
	minimum = 0.005 (at node 0)
	maximum = 0.0135 (at node 11)
Injected packet length average = 1
Accepted packet length average = 1
Total in-flight flits = 3 (0 measured)
latency change    = 0.0226512
throughput change = 0.00666667
Class 0:
Packet latency average = 20.1081
	minimum = 7
	maximum = 37
Network latency average = 20.1081
	minimum = 7
	maximum = 37
Slowest packet = 10065
Flit latency average = 20.1081
	minimum = 7
	maximum = 37
Slowest flit = 10065
Fragmentation average = 0
	minimum = 0
	maximum = 0
Injected packet rate average = 0.009125
	minimum = 0.004 (at node 5)
	maximum = 0.017 (at node 15)
Accepted packet rate average = 0.00925
	minimum = 0.003 (at node 10)
	maximum = 0.018 (at node 8)
Injected flit rate average = 0.009125
	minimum = 0.004 (at node 5)
	maximum = 0.017 (at node 15)
Accepted flit rate average= 0.00925
	minimum = 0.003 (at node 10)
	maximum = 0.018 (at node 8)
Injected packet length average = 1
Accepted packet length average = 1
Total in-flight flits = 1 (0 measured)
latency change    = 0.060578
throughput change = 0.0135135
Warmed up ...Time used is 3000 cycles
Class 0:
Packet latency average = 18.8588
	minimum = 7
	maximum = 37
Network latency average = 18.8588
	minimum = 7
	maximum = 37
Slowest packet = 10140
Flit latency average = 18.9357
	minimum = 7
	maximum = 37
Slowest flit = 10140
Fragmentation average = 0
	minimum = 0
	maximum = 0
Injected packet rate average = 0.0108125
	minimum = 0.004 (at node 4)
	maximum = 0.019 (at node 6)
Accepted packet rate average = 0.0106875
	minimum = 0.003 (at node 15)
	maximum = 0.019 (at node 5)
Injected flit rate average = 0.0108125
	minimum = 0.004 (at node 4)
	maximum = 0.019 (at node 6)
Accepted flit rate average= 0.0106875
	minimum = 0.003 (at node 15)
	maximum = 0.019 (at node 5)
Injected packet length average = 1
Accepted packet length average = 1
Total in-flight flits = 3 (3 measured)
latency change    = 0.066244
throughput change = 0.134503
Class 0:
Packet latency average = 19.0153
	minimum = 7
	maximum = 37
Network latency average = 19.0153
	minimum = 7
	maximum = 37
Slowest packet = 10140
Flit latency average = 19.055
	minimum = 7
	maximum = 37
Slowest flit = 10140
Fragmentation average = 0
	minimum = 0
	maximum = 0
Injected packet rate average = 0.01025
	minimum = 0.007 (at node 12)
	maximum = 0.015 (at node 6)
Accepted packet rate average = 0.0102188
	minimum = 0.0075 (at node 0)
	maximum = 0.014 (at node 11)
Injected flit rate average = 0.01025
	minimum = 0.007 (at node 12)
	maximum = 0.015 (at node 6)
Accepted flit rate average= 0.0102188
	minimum = 0.0075 (at node 0)
	maximum = 0.014 (at node 11)
Injected packet length average = 1
Accepted packet length average = 1
Total in-flight flits = 2 (2 measured)
latency change    = 0.00823093
throughput change = 0.0458716
Class 0:
Packet latency average = 19.5507
	minimum = 7
	maximum = 37
Network latency average = 19.5507
	minimum = 7
	maximum = 37
Slowest packet = 10140
Flit latency average = 19.5764
	minimum = 7
	maximum = 37
Slowest flit = 10140
Fragmentation average = 0
	minimum = 0
	maximum = 0
Injected packet rate average = 0.0100625
	minimum = 0.00666667 (at node 7)
	maximum = 0.0136667 (at node 8)
Accepted packet rate average = 0.0100833
	minimum = 0.00733333 (at node 6)
	maximum = 0.013 (at node 1)
Injected flit rate average = 0.0100625
	minimum = 0.00666667 (at node 7)
	maximum = 0.0136667 (at node 8)
Accepted flit rate average= 0.0100833
	minimum = 0.00733333 (at node 6)
	maximum = 0.013 (at node 1)
Injected packet length average = 1
Accepted packet length average = 1
Total in-flight flits = 0 (0 measured)
latency change    = 0.0273845
throughput change = 0.0134298
Class 0:
Packet latency average = 19.5514
	minimum = 7
	maximum = 37
Network latency average = 19.5514
	minimum = 7
	maximum = 37
Slowest packet = 10140
Flit latency average = 19.5701
	minimum = 7
	maximum = 37
Slowest flit = 10140
Fragmentation average = 0
	minimum = 0
	maximum = 0
Injected packet rate average = 0.0103906
	minimum = 0.00725 (at node 3)
	maximum = 0.01425 (at node 11)
Accepted packet rate average = 0.0103594
	minimum = 0.00775 (at node 0)
	maximum = 0.0135 (at node 2)
Injected flit rate average = 0.0103906
	minimum = 0.00725 (at node 3)
	maximum = 0.01425 (at node 11)
Accepted flit rate average= 0.0103594
	minimum = 0.00775 (at node 0)
	maximum = 0.0135 (at node 2)
Injected packet length average = 1
Accepted packet length average = 1
Total in-flight flits = 3 (3 measured)
latency change    = 3.24724e-05
throughput change = 0.0266466
Draining all recorded packets ...
Draining remaining packets ...
Time taken is 7029 cycles
Class 0:
Packet latency average = 18.375
	minimum = 7
	maximum = 37
Network latency average = 18.375
	minimum = 7
	maximum = 37
Slowest packet = 10858
Flit latency average = 18.375
	minimum = 7
	maximum = 37
Slowest flit = 10858
Fragmentation average = 0
	minimum = 0
	maximum = 0
Injected packet rate average = 0.0104375
	minimum = 0.004 (at node 8)
	maximum = 0.017 (at node 7)
Accepted packet rate average = 0.01
	minimum = 0.004 (at node 14)
	maximum = 0.015 (at node 13)
Injected flit rate average = 0.0104375
	minimum = 0.004 (at node 8)
	maximum = 0.017 (at node 7)
Accepted flit rate average= 0.01
	minimum = 0.004 (at node 14)
	maximum = 0.015 (at node 13)
Injected packet length average = 1
Accepted packet length average = 1
Total in-flight flits = 7 (0 measured)
latency change    = 1
throughput change = 1
Class 0:
Packet latency average = 19.3934
	minimum = 7
	maximum = 37
Network latency average = 19.3934
	minimum = 7
	maximum = 37
Slowest packet = 10858
Flit latency average = 19.3934
	minimum = 7
	maximum = 37
Slowest flit = 10858
Fragmentation average = 0
	minimum = 0
	maximum = 0
Injected packet rate average = 0.010625
	minimum = 0.006 (at node 9)
	maximum = 0.015 (at node 7)
Accepted packet rate average = 0.0104063
	minimum = 0.006 (at node 6)
	maximum = 0.013 (at node 4)
Injected flit rate average = 0.010625
	minimum = 0.006 (at node 9)
	maximum = 0.015 (at node 7)
Accepted flit rate average= 0.0104063
	minimum = 0.006 (at node 6)
	maximum = 0.013 (at node 4)
Injected packet length average = 1
Accepted packet length average = 1
Total in-flight flits = 7 (0 measured)
latency change    = 0.0525124
throughput change = 0.039039
Class 0:
Packet latency average = 18.9259
	minimum = 7
	maximum = 32
Network latency average = 18.9259
	minimum = 7
	maximum = 32
Slowest packet = 11126
Flit latency average = 18.9259
	minimum = 7
	maximum = 32
Slowest flit = 11126
Fragmentation average = 0
	minimum = 0
	maximum = 0
Injected packet rate average = 0.00975
	minimum = 0.003 (at node 11)
	maximum = 0.015 (at node 1)
Accepted packet rate average = 0.010125
	minimum = 0.003 (at node 1)
	maximum = 0.015 (at node 14)
Injected flit rate average = 0.00975
	minimum = 0.003 (at node 11)
	maximum = 0.015 (at node 1)
Accepted flit rate average= 0.010125
	minimum = 0.003 (at node 1)
	maximum = 0.015 (at node 14)
Injected packet length average = 1
Accepted packet length average = 1
Total in-flight flits = 1 (0 measured)
latency change    = 0.0246998
throughput change = 0.0277778
Warmed up ...Time used is 3000 cycles
Class 0:
Packet latency average = 19.8882
	minimum = 7
	maximum = 37
Network latency average = 19.8882
	minimum = 7
	maximum = 37
Slowest packet = 11317
Flit latency average = 19.9298
	minimum = 7
	maximum = 37
Slowest flit = 11317
Fragmentation average = 0
	minimum = 0
	maximum = 0
Injected packet rate average = 0.010875
	minimum = 0.003 (at node 12)
	maximum = 0.015 (at node 4)
Accepted packet rate average = 0.0106875
	minimum = 0.004 (at node 14)
	maximum = 0.018 (at node 6)
Injected flit rate average = 0.010875
	minimum = 0.003 (at node 12)
	maximum = 0.015 (at node 4)
Accepted flit rate average= 0.0106875
	minimum = 0.004 (at node 14)
	maximum = 0.018 (at node 6)
Injected packet length average = 1
Accepted packet length average = 1
Total in-flight flits = 4 (4 measured)
latency change    = 0.0483859
throughput change = 0.0526316
Class 0:
Packet latency average = 19.261
	minimum = 7
	maximum = 37
Network latency average = 19.261
	minimum = 7
	maximum = 37
Slowest packet = 11317
Flit latency average = 19.2853
	minimum = 7
	maximum = 37
Slowest flit = 11317
Fragmentation average = 0
	minimum = 0
	maximum = 0
Injected packet rate average = 0.0100313
	minimum = 0.0045 (at node 12)
	maximum = 0.0135 (at node 7)
Accepted packet rate average = 0.00996875
	minimum = 0.004 (at node 14)
	maximum = 0.014 (at node 8)
Injected flit rate average = 0.0100313
	minimum = 0.0045 (at node 12)
	maximum = 0.0135 (at node 7)
Accepted flit rate average= 0.00996875
	minimum = 0.004 (at node 14)
	maximum = 0.014 (at node 8)
Injected packet length average = 1
Accepted packet length average = 1
Total in-flight flits = 3 (3 measured)
latency change    = 0.0325647
throughput change = 0.0721003
Class 0:
Packet latency average = 19.3612
	minimum = 7
	maximum = 37
Network latency average = 19.3612
	minimum = 7
	maximum = 37
Slowest packet = 11317
Flit latency average = 19.3771
	minimum = 7
	maximum = 37
Slowest flit = 11317
Fragmentation average = 0
	minimum = 0
	maximum = 0
Injected packet rate average = 0.0100417
	minimum = 0.00633333 (at node 12)
	maximum = 0.0123333 (at node 7)
Accepted packet rate average = 0.01
	minimum = 0.008 (at node 3)
	maximum = 0.0126667 (at node 7)
Injected flit rate average = 0.0100417
	minimum = 0.00633333 (at node 12)
	maximum = 0.0123333 (at node 7)
Accepted flit rate average= 0.01
	minimum = 0.008 (at node 3)
	maximum = 0.0126667 (at node 7)
Injected packet length average = 1
Accepted packet length average = 1
Total in-flight flits = 3 (3 measured)
latency change    = 0.00517339
throughput change = 0.003125
Class 0:
Packet latency average = 19.4279
	minimum = 7
	maximum = 37
Network latency average = 19.4279
	minimum = 7
	maximum = 37
Slowest packet = 11317
Flit latency average = 19.4395
	minimum = 7
	maximum = 37
Slowest flit = 11317
Fragmentation average = 0
	minimum = 0
	maximum = 0
Injected packet rate average = 0.01025
	minimum = 0.00725 (at node 3)
	maximum = 0.01225 (at node 0)
Accepted packet rate average = 0.0102031
	minimum = 0.00775 (at node 10)
	maximum = 0.01425 (at node 0)
Injected flit rate average = 0.01025
	minimum = 0.00725 (at node 3)
	maximum = 0.01225 (at node 0)
Accepted flit rate average= 0.0102031
	minimum = 0.00775 (at node 10)
	maximum = 0.01425 (at node 0)
Injected packet length average = 1
Accepted packet length average = 1
Total in-flight flits = 4 (4 measured)
latency change    = 0.00343552
throughput change = 0.0199081
Class 0:
Packet latency average = 19.342
	minimum = 7
	maximum = 37
Network latency average = 19.342
	minimum = 7
	maximum = 37
Slowest packet = 11317
Flit latency average = 19.3515
	minimum = 7
	maximum = 37
Slowest flit = 11317
Fragmentation average = 0
	minimum = 0
	maximum = 0
Injected packet rate average = 0.0101375
	minimum = 0.0076 (at node 5)
	maximum = 0.0126 (at node 0)
Accepted packet rate average = 0.0101
	minimum = 0.0078 (at node 3)
	maximum = 0.0132 (at node 0)
Injected flit rate average = 0.0101375
	minimum = 0.0076 (at node 5)
	maximum = 0.0126 (at node 0)
Accepted flit rate average= 0.0101
	minimum = 0.0078 (at node 3)
	maximum = 0.0132 (at node 0)
Injected packet length average = 1
Accepted packet length average = 1
Total in-flight flits = 4 (4 measured)
latency change    = 0.00444146
throughput change = 0.0102104
Draining all recorded packets ...
Draining remaining packets ...
Time taken is 8040 cycles
Class 0:
Packet latency average = 20.2333
	minimum = 7
	maximum = 37
Network latency average = 20.2333
	minimum = 7
	maximum = 37
Slowest packet = 12095
Flit latency average = 20.2333
	minimum = 7
	maximum = 37
Slowest flit = 12095
Fragmentation average = 0
	minimum = 0
	maximum = 0
Injected packet rate average = 0.0095625
	minimum = 0.005 (at node 13)
	maximum = 0.015 (at node 4)
Accepted packet rate average = 0.009375
	minimum = 0.005 (at node 1)
	maximum = 0.015 (at node 0)
Injected flit rate average = 0.0095625
	minimum = 0.005 (at node 13)
	maximum = 0.015 (at node 4)
Accepted flit rate average= 0.009375
	minimum = 0.005 (at node 1)
	maximum = 0.015 (at node 0)
Injected packet length average = 1
Accepted packet length average = 1
Total in-flight flits = 3 (0 measured)
latency change    = 1
throughput change = 1
Class 0:
Packet latency average = 19.9109
	minimum = 7
	maximum = 37
Network latency average = 19.9109
	minimum = 7
	maximum = 37
Slowest packet = 12095
Flit latency average = 19.9109
	minimum = 7
	maximum = 37
Slowest flit = 12095
Fragmentation average = 0
	minimum = 0
	maximum = 0
Injected packet rate average = 0.00959375
	minimum = 0.0075 (at node 10)
	maximum = 0.0115 (at node 1)
Accepted packet rate average = 0.00946875
	minimum = 0.0065 (at node 6)
	maximum = 0.0145 (at node 0)
Injected flit rate average = 0.00959375
	minimum = 0.0075 (at node 10)
	maximum = 0.0115 (at node 1)
Accepted flit rate average= 0.00946875
	minimum = 0.0065 (at node 6)
	maximum = 0.0145 (at node 0)
Injected packet length average = 1
Accepted packet length average = 1
Total in-flight flits = 4 (0 measured)
latency change    = 0.0161943
throughput change = 0.00990099
Class 0:
Packet latency average = 18.6242
	minimum = 7
	maximum = 32
Network latency average = 18.6242
	minimum = 7
	maximum = 32
Slowest packet = 12402
Flit latency average = 18.6242
	minimum = 7
	maximum = 32
Slowest flit = 12402
Fragmentation average = 0
	minimum = 0
	maximum = 0
Injected packet rate average = 0.009875
	minimum = 0.004 (at node 13)
	maximum = 0.014 (at node 4)
Accepted packet rate average = 0.0098125
	minimum = 0.004 (at node 13)
	maximum = 0.015 (at node 9)
Injected flit rate average = 0.009875
	minimum = 0.004 (at node 13)
	maximum = 0.014 (at node 4)
Accepted flit rate average= 0.0098125
	minimum = 0.004 (at node 13)
	maximum = 0.015 (at node 9)
Injected packet length average = 1
Accepted packet length average = 1
Total in-flight flits = 5 (0 measured)
latency change    = 0.0690868
throughput change = 0.0350318
Warmed up ...Time used is 3000 cycles
Class 0:
Packet latency average = 19.578
	minimum = 7
	maximum = 37
Network latency average = 19.578
	minimum = 7
	maximum = 37
Slowest packet = 12612
Flit latency average = 19.7865
	minimum = 7
	maximum = 37
Slowest flit = 12555
Fragmentation average = 0
	minimum = 0
	maximum = 0
Injected packet rate average = 0.011
	minimum = 0.006 (at node 3)
	maximum = 0.018 (at node 1)
Accepted packet rate average = 0.011125
	minimum = 0.005 (at node 13)
	maximum = 0.017 (at node 3)
Injected flit rate average = 0.011
	minimum = 0.006 (at node 3)
	maximum = 0.018 (at node 1)
Accepted flit rate average= 0.011125
	minimum = 0.005 (at node 13)
	maximum = 0.017 (at node 3)
Injected packet length average = 1
Accepted packet length average = 1
Total in-flight flits = 3 (3 measured)
latency change    = 0.0487194
throughput change = 0.117978
Class 0:
Packet latency average = 20.0585
	minimum = 7
	maximum = 37
Network latency average = 20.0585
	minimum = 7
	maximum = 37
Slowest packet = 12612
Flit latency average = 20.1636
	minimum = 7
	maximum = 37
Slowest flit = 12555
Fragmentation average = 0
	minimum = 0
	maximum = 0
Injected packet rate average = 0.0102813
	minimum = 0.006 (at node 13)
	maximum = 0.0145 (at node 1)
Accepted packet rate average = 0.0103125
	minimum = 0.0065 (at node 13)
	maximum = 0.014 (at node 7)
Injected flit rate average = 0.0102813
	minimum = 0.006 (at node 13)
	maximum = 0.0145 (at node 1)
Accepted flit rate average= 0.0103125
	minimum = 0.0065 (at node 13)
	maximum = 0.014 (at node 7)
Injected packet length average = 1
Accepted packet length average = 1
Total in-flight flits = 4 (4 measured)
latency change    = 0.0239513
throughput change = 0.0787879
Class 0:
Packet latency average = 20.1771
	minimum = 7
	maximum = 37
Network latency average = 20.1771
	minimum = 7
	maximum = 37
Slowest packet = 12612
Flit latency average = 20.245
	minimum = 7
	maximum = 37
Slowest flit = 12555
Fragmentation average = 0
	minimum = 0
	maximum = 0
Injected packet rate average = 0.0104167
	minimum = 0.00666667 (at node 13)
	maximum = 0.0146667 (at node 1)
Accepted packet rate average = 0.0104583
	minimum = 0.00633333 (at node 13)
	maximum = 0.0143333 (at node 7)
Injected flit rate average = 0.0104167
	minimum = 0.00666667 (at node 13)
	maximum = 0.0146667 (at node 1)
Accepted flit rate average= 0.0104583
	minimum = 0.00633333 (at node 13)
	maximum = 0.0143333 (at node 7)
Injected packet length average = 1
Accepted packet length average = 1
Total in-flight flits = 3 (3 measured)
latency change    = 0.005878
throughput change = 0.0139442
Class 0:
Packet latency average = 19.8892
	minimum = 7
	maximum = 37
Network latency average = 19.8892
	minimum = 7
	maximum = 37
Slowest packet = 12612
Flit latency average = 19.9443
	minimum = 7
	maximum = 37
Slowest flit = 12555
Fragmentation average = 0
	minimum = 0
	maximum = 0
Injected packet rate average = 0.0100469
	minimum = 0.006 (at node 13)
	maximum = 0.01325 (at node 1)
Accepted packet rate average = 0.0100938
	minimum = 0.00725 (at node 13)
	maximum = 0.01525 (at node 7)
Injected flit rate average = 0.0100469
	minimum = 0.006 (at node 13)
	maximum = 0.01325 (at node 1)
Accepted flit rate average= 0.0100938
	minimum = 0.00725 (at node 13)
	maximum = 0.01525 (at node 7)
Injected packet length average = 1
Accepted packet length average = 1
Total in-flight flits = 2 (2 measured)
latency change    = 0.0144715
throughput change = 0.0361197
Class 0:
Packet latency average = 19.8422
	minimum = 7
	maximum = 37
Network latency average = 19.8422
	minimum = 7
	maximum = 37
Slowest packet = 12612
Flit latency average = 19.886
	minimum = 7
	maximum = 37
Slowest flit = 12555
Fragmentation average = 0
	minimum = 0
	maximum = 0
Injected packet rate average = 0.0101625
	minimum = 0.0066 (at node 13)
	maximum = 0.0134 (at node 1)
Accepted packet rate average = 0.0102
	minimum = 0.0078 (at node 10)
	maximum = 0.0148 (at node 7)
Injected flit rate average = 0.0101625
	minimum = 0.0066 (at node 13)
	maximum = 0.0134 (at node 1)
Accepted flit rate average= 0.0102
	minimum = 0.0078 (at node 10)
	maximum = 0.0148 (at node 7)
Injected packet length average = 1
Accepted packet length average = 1
Total in-flight flits = 2 (2 measured)
latency change    = 0.00237199
throughput change = 0.0104167
Draining all recorded packets ...
Draining remaining packets ...
Time taken is 8037 cycles
Class 0:
Packet latency average = 19.5855
	minimum = 7
	maximum = 37
Network latency average = 19.5855
	minimum = 7
	maximum = 37
Slowest packet = 13376
Flit latency average = 19.5855
	minimum = 7
	maximum = 37
Slowest flit = 13376
Fragmentation average = 0
	minimum = 0
	maximum = 0
Injected packet rate average = 0.009625
	minimum = 0.004 (at node 0)
	maximum = 0.016 (at node 4)
Accepted packet rate average = 0.0095
	minimum = 0.004 (at node 5)
	maximum = 0.017 (at node 6)
Injected flit rate average = 0.009625
	minimum = 0.004 (at node 0)
	maximum = 0.016 (at node 4)
Accepted flit rate average= 0.0095
	minimum = 0.004 (at node 5)
	maximum = 0.017 (at node 6)
Injected packet length average = 1
Accepted packet length average = 1
Total in-flight flits = 2 (0 measured)
latency change    = 1
throughput change = 1
Class 0:
Packet latency average = 19.3289
	minimum = 7
	maximum = 37
Network latency average = 19.3289
	minimum = 7
	maximum = 37
Slowest packet = 13376
Flit latency average = 19.3289
	minimum = 7
	maximum = 37
Slowest flit = 13376
Fragmentation average = 0
	minimum = 0
	maximum = 0
Injected packet rate average = 0.00953125
	minimum = 0.006 (at node 0)
	maximum = 0.0145 (at node 4)
Accepted packet rate average = 0.0095
	minimum = 0.004 (at node 5)
	maximum = 0.014 (at node 6)
Injected flit rate average = 0.00953125
	minimum = 0.006 (at node 0)
	maximum = 0.0145 (at node 4)
Accepted flit rate average= 0.0095
	minimum = 0.004 (at node 5)
	maximum = 0.014 (at node 6)
Injected packet length average = 1
Accepted packet length average = 1
Total in-flight flits = 1 (0 measured)
latency change    = 0.0132743
throughput change = 0
Class 0:
Packet latency average = 19.6529
	minimum = 7
	maximum = 37
Network latency average = 19.6529
	minimum = 7
	maximum = 37
Slowest packet = 13750
Flit latency average = 19.6529
	minimum = 7
	maximum = 37
Slowest flit = 13750
Fragmentation average = 0
	minimum = 0
	maximum = 0
Injected packet rate average = 0.0109375
	minimum = 0.006 (at node 2)
	maximum = 0.019 (at node 11)
Accepted packet rate average = 0.010625
	minimum = 0.006 (at node 0)
	maximum = 0.018 (at node 3)
Injected flit rate average = 0.0109375
	minimum = 0.006 (at node 2)
	maximum = 0.019 (at node 11)
Accepted flit rate average= 0.010625
	minimum = 0.006 (at node 0)
	maximum = 0.018 (at node 3)
Injected packet length average = 1
Accepted packet length average = 1
Total in-flight flits = 6 (0 measured)
latency change    = 0.0164858
throughput change = 0.105882
Warmed up ...Time used is 3000 cycles
Class 0:
Packet latency average = 20.5782
	minimum = 7
	maximum = 37
Network latency average = 20.5782
	minimum = 7
	maximum = 37
Slowest packet = 13954
Flit latency average = 20.5359
	minimum = 7
	maximum = 37
Slowest flit = 13954
Fragmentation average = 0
	minimum = 0
	maximum = 0
Injected packet rate average = 0.0093125
	minimum = 0.004 (at node 4)
	maximum = 0.013 (at node 14)
Accepted packet rate average = 0.0095625
	minimum = 0.004 (at node 0)
	maximum = 0.017 (at node 11)
Injected flit rate average = 0.0093125
	minimum = 0.004 (at node 4)
	maximum = 0.013 (at node 14)
Accepted flit rate average= 0.0095625
	minimum = 0.004 (at node 0)
	maximum = 0.017 (at node 11)
Injected packet length average = 1
Accepted packet length average = 1
Total in-flight flits = 2 (2 measured)
latency change    = 0.0449645
throughput change = 0.111111
Class 0:
Packet latency average = 19.9871
	minimum = 7
	maximum = 37
Network latency average = 19.9871
	minimum = 7
	maximum = 37
Slowest packet = 13954
Flit latency average = 19.9778
	minimum = 7
	maximum = 37
Slowest flit = 13954
Fragmentation average = 0
	minimum = 0
	maximum = 0
Injected packet rate average = 0.00971875
	minimum = 0.0055 (at node 6)
	maximum = 0.0125 (at node 12)
Accepted packet rate average = 0.00984375
	minimum = 0.005 (at node 3)
	maximum = 0.014 (at node 11)
Injected flit rate average = 0.00971875
	minimum = 0.0055 (at node 6)
	maximum = 0.0125 (at node 12)
Accepted flit rate average= 0.00984375
	minimum = 0.005 (at node 3)
	maximum = 0.014 (at node 11)
Injected packet length average = 1
Accepted packet length average = 1
Total in-flight flits = 2 (2 measured)
latency change    = 0.029578
throughput change = 0.0285714
Class 0:
Packet latency average = 19.8531
	minimum = 7
	maximum = 37
Network latency average = 19.8531
	minimum = 7
	maximum = 37
Slowest packet = 13954
Flit latency average = 19.8485
	minimum = 7
	maximum = 37
Slowest flit = 13954
Fragmentation average = 0
	minimum = 0
	maximum = 0
Injected packet rate average = 0.00958333
	minimum = 0.00566667 (at node 6)
	maximum = 0.0123333 (at node 1)
Accepted packet rate average = 0.009625
	minimum = 0.00533333 (at node 3)
	maximum = 0.0143333 (at node 11)
Injected flit rate average = 0.00958333
	minimum = 0.00566667 (at node 6)
	maximum = 0.0123333 (at node 1)
Accepted flit rate average= 0.009625
	minimum = 0.00533333 (at node 3)
	maximum = 0.0143333 (at node 11)
Injected packet length average = 1
Accepted packet length average = 1
Total in-flight flits = 4 (4 measured)
latency change    = 0.00674882
throughput change = 0.0227273
Class 0:
Packet latency average = 19.8363
	minimum = 7
	maximum = 37
Network latency average = 19.8363
	minimum = 7
	maximum = 37
Slowest packet = 13954
Flit latency average = 19.8331
	minimum = 7
	maximum = 37
Slowest flit = 13954
Fragmentation average = 0
	minimum = 0
	maximum = 0
Injected packet rate average = 0.00960937
	minimum = 0.006 (at node 2)
	maximum = 0.0135 (at node 13)
Accepted packet rate average = 0.00964062
	minimum = 0.00625 (at node 3)
	maximum = 0.01375 (at node 11)
Injected flit rate average = 0.00960937
	minimum = 0.006 (at node 2)
	maximum = 0.0135 (at node 13)
Accepted flit rate average= 0.00964062
	minimum = 0.00625 (at node 3)
	maximum = 0.01375 (at node 11)
Injected packet length average = 1
Accepted packet length average = 1
Total in-flight flits = 4 (4 measured)
latency change    = 0.000843719
throughput change = 0.00162075
Draining all recorded packets ...
Draining remaining packets ...
Time taken is 7054 cycles
Class 0:
Packet latency average = 20.4563
	minimum = 7
	maximum = 38
Network latency average = 20.4563
	minimum = 7
	maximum = 38
Slowest packet = 14600
Flit latency average = 20.4563
	minimum = 7
	maximum = 38
Slowest flit = 14600
Fragmentation average = 0
	minimum = 0
	maximum = 0
Injected packet rate average = 0.01025
	minimum = 0.006 (at node 7)
	maximum = 0.013 (at node 2)
Accepted packet rate average = 0.01
	minimum = 0.005 (at node 1)
	maximum = 0.018 (at node 3)
Injected flit rate average = 0.01025
	minimum = 0.006 (at node 7)
	maximum = 0.013 (at node 2)
Accepted flit rate average= 0.01
	minimum = 0.005 (at node 1)
	maximum = 0.018 (at node 3)
Injected packet length average = 1
Accepted packet length average = 1
Total in-flight flits = 4 (0 measured)
latency change    = 1
throughput change = 1
Class 0:
Packet latency average = 20.3531
	minimum = 7
	maximum = 38
Network latency average = 20.3531
	minimum = 7
	maximum = 38
Slowest packet = 14600
Flit latency average = 20.3531
	minimum = 7
	maximum = 38
Slowest flit = 14600
Fragmentation average = 0
	minimum = 0
	maximum = 0
Injected packet rate average = 0.0100938
	minimum = 0.007 (at node 9)
	maximum = 0.0135 (at node 15)
Accepted packet rate average = 0.01
	minimum = 0.0065 (at node 4)
	maximum = 0.015 (at node 3)
Injected flit rate average = 0.0100938
	minimum = 0.007 (at node 9)
	maximum = 0.0135 (at node 15)
Accepted flit rate average= 0.01
	minimum = 0.0065 (at node 4)
	maximum = 0.015 (at node 3)
Injected packet length average = 1
Accepted packet length average = 1
Total in-flight flits = 3 (0 measured)
latency change    = 0.00506679
throughput change = 0
Class 0:
Packet latency average = 19.3491
	minimum = 7
[...]
Fragmentation average = 0
	minimum = 0
	maximum = 0
Injected packet rate average = 0.0103125
	minimum = 0.007 (at node 0)
	maximum = 0.018 (at node 11)
Accepted packet rate average = 0.010125
	minimum = 0.0075 (at node 0)
	maximum = 0.014 (at node 7)
Injected flit rate average = 0.0103125
	minimum = 0.007 (at node 0)
	maximum = 0.018 (at node 11)
Accepted flit rate average= 0.010125
	minimum = 0.0075 (at node 0)
	maximum = 0.014 (at node 7)
Injected packet length average = 1
Accepted packet length average = 1
Total in-flight flits = 6 (0 measured)
latency change    = 0.00335004
throughput change = 0.0308642
Class 0:
Packet latency average = 20.4
	minimum = 7
	maximum = 37
Network latency average = 20.4
	minimum = 7
	maximum = 37
Slowest packet = 116787
Flit latency average = 20.4
	minimum = 7
	maximum = 37
Slowest flit = 116787
Fragmentation average = 0
	minimum = 0
	maximum = 0
Injected packet rate average = 0.0106875
	minimum = 0.007 (at node 8)
	maximum = 0.017 (at node 10)
Accepted packet rate average = 0.0109375
	minimum = 0.005 (at node 5)
	maximum = 0.02 (at node 9)
Injected flit rate average = 0.0106875
	minimum = 0.007 (at node 8)
	maximum = 0.017 (at node 10)
Accepted flit rate average= 0.0109375
	minimum = 0.005 (at node 5)
	maximum = 0.02 (at node 9)
Injected packet length average = 1
Accepted packet length average = 1
Total in-flight flits = 2 (0 measured)
latency change    = 0.0521363
throughput change = 0.0742857
Warmed up ...Time used is 3000 cycles
Class 0:
Packet latency average = 20.0392
	minimum = 7
	maximum = 36
Network latency average = 20.0392
	minimum = 7
	maximum = 36
Slowest packet = 116930
Flit latency average = 20.034
	minimum = 7
	maximum = 36
Slowest flit = 116930
Fragmentation average = 0
	minimum = 0
	maximum = 0
Injected packet rate average = 0.012875
	minimum = 0.008 (at node 2)
	maximum = 0.022 (at node 7)
Accepted packet rate average = 0.012875
	minimum = 0.009 (at node 8)
	maximum = 0.023 (at node 3)
Injected flit rate average = 0.012875
	minimum = 0.008 (at node 2)
	maximum = 0.022 (at node 7)
Accepted flit rate average= 0.012875
	minimum = 0.009 (at node 8)
	maximum = 0.023 (at node 3)
Injected packet length average = 1
Accepted packet length average = 1
Total in-flight flits = 2 (2 measured)
latency change    = 0.0180039
throughput change = 0.150485
Class 0:
Packet latency average = 19.7358
	minimum = 7
	maximum = 37
Network latency average = 19.7358
	minimum = 7
	maximum = 37
Slowest packet = 117083
Flit latency average = 19.7345
	minimum = 7
	maximum = 37
Slowest flit = 117083
Fragmentation average = 0
	minimum = 0
	maximum = 0
Injected packet rate average = 0.0111875
	minimum = 0.0085 (at node 0)
	maximum = 0.016 (at node 7)
Accepted packet rate average = 0.0110625
	minimum = 0.007 (at node 13)
	maximum = 0.0185 (at node 3)
Injected flit rate average = 0.0111875
	minimum = 0.0085 (at node 0)
	maximum = 0.016 (at node 7)
Accepted flit rate average= 0.0110625
	minimum = 0.007 (at node 13)
	maximum = 0.0185 (at node 3)
Injected packet length average = 1
Accepted packet length average = 1
Total in-flight flits = 6 (6 measured)
latency change    = 0.0153741
throughput change = 0.163842
Class 0:
Packet latency average = 19.4867
	minimum = 7
	maximum = 37
Network latency average = 19.4867
	minimum = 7
	maximum = 37
Slowest packet = 117083
Flit latency average = 19.4867
	minimum = 7
	maximum = 37
Slowest flit = 117083
Fragmentation average = 0
	minimum = 0
	maximum = 0
Injected packet rate average = 0.011
	minimum = 0.00866667 (at node 2)
	maximum = 0.014 (at node 7)
Accepted packet rate average = 0.011
	minimum = 0.00733333 (at node 13)
	maximum = 0.016 (at node 3)
Injected flit rate average = 0.011
	minimum = 0.00866667 (at node 2)
	maximum = 0.014 (at node 7)
Accepted flit rate average= 0.011
	minimum = 0.00733333 (at node 13)
	maximum = 0.016 (at node 3)
Injected packet length average = 1
Accepted packet length average = 1
Total in-flight flits = 2 (2 measured)
latency change    = 0.0127833
throughput change = 0.00568182
Class 0:
Packet latency average = 19.5471
	minimum = 7
	maximum = 37
Network latency average = 19.5471
	minimum = 7
	maximum = 37
Slowest packet = 117083
Flit latency average = 19.547
	minimum = 7
	maximum = 37
Slowest flit = 117083
Fragmentation average = 0
	minimum = 0
	maximum = 0
Injected packet rate average = 0.011
	minimum = 0.00825 (at node 3)
	maximum = 0.01275 (at node 11)
Accepted packet rate average = 0.0109687
	minimum = 0.00825 (at node 13)
	maximum = 0.01425 (at node 3)
Injected flit rate average = 0.011
	minimum = 0.00825 (at node 3)
	maximum = 0.01275 (at node 11)
Accepted flit rate average= 0.0109687
	minimum = 0.00825 (at node 13)
	maximum = 0.01425 (at node 3)
Injected packet length average = 1
Accepted packet length average = 1
Total in-flight flits = 4 (4 measured)
latency change    = 0.00309257
throughput change = 0.002849
Class 0:
Packet latency average = 19.4294
	minimum = 7
	maximum = 37
Network latency average = 19.4294
	minimum = 7
	maximum = 37
Slowest packet = 117083
Flit latency average = 19.4296
	minimum = 7
	maximum = 37
Slowest flit = 117083
Fragmentation average = 0
	minimum = 0
	maximum = 0
Injected packet rate average = 0.0109375
	minimum = 0.0088 (at node 0)
	maximum = 0.013 (at node 11)
Accepted packet rate average = 0.0109125
	minimum = 0.0086 (at node 13)
	maximum = 0.0136 (at node 3)
Injected flit rate average = 0.0109375
	minimum = 0.0088 (at node 0)
	maximum = 0.013 (at node 11)
Accepted flit rate average= 0.0109125
	minimum = 0.0086 (at node 13)
	maximum = 0.0136 (at node 3)
Injected packet length average = 1
Accepted packet length average = 1
Total in-flight flits = 4 (4 measured)
latency change    = 0.00606048
throughput change = 0.00515464
Draining all recorded packets ...
Draining remaining packets ...
Time taken is 8040 cycles
Class 0:
Packet latency average = 19.6647
	minimum = 7
	maximum = 37
Network latency average = 19.6647
	minimum = 7
	maximum = 37
Slowest packet = 117813
Flit latency average = 19.6647
	minimum = 7
	maximum = 37
Slowest flit = 117813
Fragmentation average = 0
	minimum = 0
	maximum = 0
Injected packet rate average = 0.0108125
	minimum = 0.005 (at node 0)
	maximum = 0.016 (at node 12)
Accepted packet rate average = 0.0108125
	minimum = 0.004 (at node 4)
	maximum = 0.018 (at node 9)
Injected flit rate average = 0.0108125
	minimum = 0.005 (at node 0)
	maximum = 0.016 (at node 12)
Accepted flit rate average= 0.0108125
	minimum = 0.004 (at node 4)
	maximum = 0.018 (at node 9)
Injected packet length average = 1
Accepted packet length average = 1
Total in-flight flits = 0 (0 measured)
latency change    = 1
throughput change = 1
Class 0:
Packet latency average = 19.317
	minimum = 7
	maximum = 37
Network latency average = 19.317
	minimum = 7
	maximum = 37
Slowest packet = 117813
Flit latency average = 19.317
	minimum = 7
	maximum = 37
Slowest flit = 117813
Fragmentation average = 0
	minimum = 0
	maximum = 0
Injected packet rate average = 0.0108437
	minimum = 0.0065 (at node 4)
	maximum = 0.014 (at node 1)
Accepted packet rate average = 0.0108437
	minimum = 0.007 (at node 11)
	maximum = 0.017 (at node 8)
Injected flit rate average = 0.0108437
	minimum = 0.0065 (at node 4)
	maximum = 0.014 (at node 1)
Accepted flit rate average= 0.0108437
	minimum = 0.007 (at node 11)
	maximum = 0.017 (at node 8)
Injected packet length average = 1
Accepted packet length average = 1
Total in-flight flits = 0 (0 measured)
latency change    = 0.0180016
throughput change = 0.00288184
Class 0:
Packet latency average = 19.1429
	minimum = 7
	maximum = 37
Network latency average = 19.1429
	minimum = 7
	maximum = 37
Slowest packet = 118200
Flit latency average = 19.1429
	minimum = 7
	maximum = 37
Slowest flit = 118200
Fragmentation average = 0
	minimum = 0
	maximum = 0
Injected packet rate average = 0.009
	minimum = 0.003 (at node 3)
	maximum = 0.015 (at node 15)
Accepted packet rate average = 0.00875
	minimum = 0.004 (at node 12)
	maximum = 0.014 (at node 2)
Injected flit rate average = 0.009
	minimum = 0.003 (at node 3)
	maximum = 0.015 (at node 15)
Accepted flit rate average= 0.00875
	minimum = 0.004 (at node 12)
	maximum = 0.014 (at node 2)
Injected packet length average = 1
Accepted packet length average = 1
Total in-flight flits = 4 (0 measured)
latency change    = 0.00909717
throughput change = 0.239286
Warmed up ...Time used is 3000 cycles
Class 0:
Packet latency average = 19.6993
	minimum = 7
	maximum = 37
Network latency average = 19.6993
	minimum = 7
	maximum = 37
Slowest packet = 118279
Flit latency average = 19.7898
	minimum = 7
	maximum = 37
Slowest flit = 118279
Fragmentation average = 0
	minimum = 0
	maximum = 0
Injected packet rate average = 0.01
	minimum = 0.007 (at node 4)
	maximum = 0.015 (at node 15)
Accepted packet rate average = 0.0098125
	minimum = 0.003 (at node 15)
	maximum = 0.018 (at node 8)
Injected flit rate average = 0.01
	minimum = 0.007 (at node 4)
	maximum = 0.015 (at node 15)
Accepted flit rate average= 0.0098125
	minimum = 0.003 (at node 15)
	maximum = 0.018 (at node 8)
Injected packet length average = 1
Accepted packet length average = 1
Total in-flight flits = 7 (7 measured)
latency change    = 0.0282491
throughput change = 0.10828
Class 0:
Packet latency average = 19.7281
	minimum = 7
	maximum = 37
Network latency average = 19.7281
	minimum = 7
	maximum = 37
Slowest packet = 118279
Flit latency average = 19.7716
	minimum = 7
	maximum = 37
Slowest flit = 118279
Fragmentation average = 0
	minimum = 0
	maximum = 0
Injected packet rate average = 0.0100625
	minimum = 0.0065 (at node 8)
	maximum = 0.0125 (at node 0)
Accepted packet rate average = 0.010125
	minimum = 0.004 (at node 5)
	maximum = 0.0145 (at node 8)
Injected flit rate average = 0.0100625
	minimum = 0.0065 (at node 8)
	maximum = 0.0125 (at node 0)
Accepted flit rate average= 0.010125
	minimum = 0.004 (at node 5)
	maximum = 0.0145 (at node 8)
Injected packet length average = 1
Accepted packet length average = 1
Total in-flight flits = 2 (2 measured)
latency change    = 0.00145876
throughput change = 0.0308642
Class 0:
Packet latency average = 19.4717
	minimum = 7
	maximum = 37
Network latency average = 19.4717
	minimum = 7
	maximum = 37
Slowest packet = 118279
Flit latency average = 19.5031
	minimum = 7
	maximum = 37
Slowest flit = 118279
Fragmentation average = 0
	minimum = 0
	maximum = 0
Injected packet rate average = 0.00997917
	minimum = 0.00766667 (at node 15)
	maximum = 0.0136667 (at node 0)
Accepted packet rate average = 0.0100208
	minimum = 0.00366667 (at node 5)
	maximum = 0.0133333 (at node 0)
Injected flit rate average = 0.00997917
	minimum = 0.00766667 (at node 15)
	maximum = 0.0136667 (at node 0)
Accepted flit rate average= 0.0100208
	minimum = 0.00366667 (at node 5)
	maximum = 0.0133333 (at node 0)
Injected packet length average = 1
Accepted packet length average = 1
Total in-flight flits = 2 (2 measured)
latency change    = 0.0131692
throughput change = 0.010395
Class 0:
Packet latency average = 19.4501
	minimum = 7
	maximum = 37
Network latency average = 19.4501
	minimum = 7
	maximum = 37
Slowest packet = 118279
Flit latency average = 19.4733
	minimum = 7
	maximum = 37
Slowest flit = 118279
Fragmentation average = 0
	minimum = 0
	maximum = 0
Injected packet rate average = 0.0101875
	minimum = 0.008 (at node 6)
	maximum = 0.0125 (at node 9)
Accepted packet rate average = 0.0102344
	minimum = 0.006 (at node 5)
	maximum = 0.013 (at node 0)
Injected flit rate average = 0.0101875
	minimum = 0.008 (at node 6)
	maximum = 0.0125 (at node 9)
Accepted flit rate average= 0.0102344
	minimum = 0.006 (at node 5)
	maximum = 0.013 (at node 0)
Injected packet length average = 1
Accepted packet length average = 1
Total in-flight flits = 1 (1 measured)
latency change    = 0.00111163
throughput change = 0.0208651
Draining all recorded packets ...
Draining remaining packets ...
Time taken is 7057 cycles
Class 0:
Packet latency average = 19.6567
	minimum = 7
	maximum = 37
Network latency average = 19.6567
	minimum = 7
	maximum = 37
Slowest packet = 118987
Flit latency average = 19.6567
	minimum = 7
	maximum = 37
Slowest flit = 118987
Fragmentation average = 0
	minimum = 0
	maximum = 0
Injected packet rate average = 0.008625
	minimum = 0.003 (at node 15)
	maximum = 0.014 (at node 8)
Accepted packet rate average = 0.008375
	minimum = 0.003 (at node 8)
	maximum = 0.016 (at node 6)
Injected flit rate average = 0.008625
	minimum = 0.003 (at node 15)
	maximum = 0.014 (at node 8)
Accepted flit rate average= 0.008375
	minimum = 0.003 (at node 8)
	maximum = 0.016 (at node 6)
Injected packet length average = 1
Accepted packet length average = 1
Total in-flight flits = 4 (0 measured)
latency change    = 1
throughput change = 1
Class 0:
Packet latency average = 19.7807
	minimum = 7
	maximum = 37
Network latency average = 19.7807
	minimum = 7
	maximum = 37
Slowest packet = 118987
Flit latency average = 19.7807
	minimum = 7
	maximum = 37
Slowest flit = 118987
Fragmentation average = 0
	minimum = 0
	maximum = 0
Injected packet rate average = 0.0084375
	minimum = 0.0045 (at node 15)
	maximum = 0.0125 (at node 2)
Accepted packet rate average = 0.00840625
	minimum = 0.004 (at node 8)
	maximum = 0.0135 (at node 6)
Injected flit rate average = 0.0084375
	minimum = 0.0045 (at node 15)
	maximum = 0.0125 (at node 2)
Accepted flit rate average= 0.00840625
	minimum = 0.004 (at node 8)
	maximum = 0.0135 (at node 6)
Injected packet length average = 1
Accepted packet length average = 1
Total in-flight flits = 1 (0 measured)
latency change    = 0.00626636
throughput change = 0.00371747
Class 0:
Packet latency average = 18.0219
	minimum = 7
	maximum = 32
Network latency average = 18.0219
	minimum = 7
	maximum = 32
Slowest packet = 119169
Flit latency average = 18.0219
	minimum = 7
	maximum = 32
Slowest flit = 119169
Fragmentation average = 0
	minimum = 0
	maximum = 0
Injected packet rate average = 0.0085
	minimum = 0.004 (at node 3)
	maximum = 0.014 (at node 4)
Accepted packet rate average = 0.0085625
	minimum = 0.004 (at node 3)
	maximum = 0.014 (at node 8)
Injected flit rate average = 0.0085
	minimum = 0.004 (at node 3)
	maximum = 0.014 (at node 4)
Accepted flit rate average= 0.0085625
	minimum = 0.004 (at node 3)
	maximum = 0.014 (at node 8)
Injected packet length average = 1
Accepted packet length average = 1
Total in-flight flits = 0 (0 measured)
latency change    = 0.0975908
throughput change = 0.0182482
Warmed up ...Time used is 3000 cycles
Class 0:
Packet latency average = 19.2671
	minimum = 7
	maximum = 37
Network latency average = 19.2671
	minimum = 7
	maximum = 37
Slowest packet = 119312
Flit latency average = 19.2671
	minimum = 7
	maximum = 37
Slowest flit = 119312
Fragmentation average = 0
	minimum = 0
	maximum = 0
Injected packet rate average = 0.0093125
	minimum = 0.004 (at node 14)
	maximum = 0.016 (at node 0)
Accepted packet rate average = 0.009125
	minimum = 0.003 (at node 15)
	maximum = 0.014 (at node 10)
Injected flit rate average = 0.0093125
	minimum = 0.004 (at node 14)
	maximum = 0.016 (at node 0)
Accepted flit rate average= 0.009125
	minimum = 0.003 (at node 15)
	maximum = 0.014 (at node 10)
Injected packet length average = 1
Accepted packet length average = 1
Total in-flight flits = 3 (3 measured)
latency change    = 0.0646295
throughput change = 0.0616438
Class 0:
Packet latency average = 19.269
	minimum = 7
	maximum = 37
Network latency average = 19.269
	minimum = 7
	maximum = 37
Slowest packet = 119312
Flit latency average = 19.269
	minimum = 7
	maximum = 37
Slowest flit = 119312
Fragmentation average = 0
	minimum = 0
	maximum = 0
Injected packet rate average = 0.0100625
	minimum = 0.006 (at node 6)
	maximum = 0.016 (at node 0)
Accepted packet rate average = 0.009875
	minimum = 0.007 (at node 11)
	maximum = 0.0135 (at node 14)
Injected flit rate average = 0.0100625
	minimum = 0.006 (at node 6)
	maximum = 0.016 (at node 0)
Accepted flit rate average= 0.009875
	minimum = 0.007 (at node 11)
	maximum = 0.0135 (at node 14)
Injected packet length average = 1
Accepted packet length average = 1
Total in-flight flits = 6 (6 measured)
latency change    = 9.67386e-05
throughput change = 0.0759494
Class 0:
Packet latency average = 19.5147
	minimum = 7
	maximum = 37
Network latency average = 19.5147
	minimum = 7
	maximum = 37
Slowest packet = 119312
Flit latency average = 19.5147
	minimum = 7
	maximum = 37
Slowest flit = 119312
Fragmentation average = 0
	minimum = 0
	maximum = 0
Injected packet rate average = 0.0100625
	minimum = 0.00766667 (at node 5)
	maximum = 0.014 (at node 0)
Accepted packet rate average = 0.00991667
	minimum = 0.00833333 (at node 4)
	maximum = 0.0123333 (at node 14)
Injected flit rate average = 0.0100625
	minimum = 0.00766667 (at node 5)
	maximum = 0.014 (at node 0)
Accepted flit rate average= 0.00991667
	minimum = 0.00833333 (at node 4)
	maximum = 0.0123333 (at node 14)
Injected packet length average = 1
Accepted packet length average = 1
Total in-flight flits = 7 (7 measured)
latency change    = 0.0125915
throughput change = 0.00420168
Class 0:
Packet latency average = 19.6103
	minimum = 7
	maximum = 37
Network latency average = 19.6103
	minimum = 7
	maximum = 37
Slowest packet = 119312
Flit latency average = 19.6103
	minimum = 7
	maximum = 37
Slowest flit = 119312
Fragmentation average = 0
	minimum = 0
	maximum = 0
Injected packet rate average = 0.0100313
	minimum = 0.007 (at node 12)
	maximum = 0.013 (at node 2)
Accepted packet rate average = 0.00998438
	minimum = 0.008 (at node 2)
	maximum = 0.0125 (at node 10)
Injected flit rate average = 0.0100313
	minimum = 0.007 (at node 12)
	maximum = 0.013 (at node 2)
Accepted flit rate average= 0.00998438
	minimum = 0.008 (at node 2)
	maximum = 0.0125 (at node 10)
Injected packet length average = 1
Accepted packet length average = 1
Total in-flight flits = 3 (3 measured)
latency change    = 0.00487614
throughput change = 0.00678143
Class 0:
Packet latency average = 19.5627
	minimum = 7
	maximum = 38
Network latency average = 19.5627
	minimum = 7
	maximum = 38
Slowest packet = 120030
Flit latency average = 19.5627
	minimum = 7
	maximum = 38
Slowest flit = 120030
Fragmentation average = 0
	minimum = 0
	maximum = 0
Injected packet rate average = 0.010225
	minimum = 0.0074 (at node 12)
	maximum = 0.0124 (at node 2)
Accepted packet rate average = 0.010175
	minimum = 0.0082 (at node 2)
	maximum = 0.0122 (at node 5)
Injected flit rate average = 0.010225
	minimum = 0.0074 (at node 12)
	maximum = 0.0124 (at node 2)
Accepted flit rate average= 0.010175
	minimum = 0.0082 (at node 2)
	maximum = 0.0122 (at node 5)
Injected packet length average = 1
Accepted packet length average = 1
Total in-flight flits = 4 (4 measured)
latency change    = 0.00243705
throughput change = 0.0187346
Draining all recorded packets ...
Draining remaining packets ...
Time taken is 8028 cycles
====== Overall Traffic Statistics ======
====== Traffic class 0 ======
Packet latency average = 19.4884 (100 samples)
	minimum = 7 (100 samples)
	maximum = 37.25 (100 samples)
Network latency average = 19.4884 (100 samples)
	minimum = 7 (100 samples)
	maximum = 37.25 (100 samples)
Flit latency average = 19.503 (100 samples)
	minimum = 7 (100 samples)
	maximum = 37.25 (100 samples)
Fragmentation average = 0 (100 samples)
	minimum = 0 (100 samples)
	maximum = 0 (100 samples)
Injected packet rate average = 0.0100833 (100 samples)
	minimum = 0.00740333 (100 samples)
	maximum = 0.012969 (100 samples)
Accepted packet rate average = 0.0100884 (100 samples)
	minimum = 0.00751955 (100 samples)
	maximum = 0.0129285 (100 samples)
Injected flit rate average = 0.0100833 (100 samples)
	minimum = 0.00740333 (100 samples)
	maximum = 0.012969 (100 samples)
Accepted flit rate average = 0.0100884 (100 samples)
	minimum = 0.00751955 (100 samples)
	maximum = 0.0129285 (100 samples)
Injected packet size average = 1 (100 samples)
Accepted packet size average = 1 (100 samples)
Hops average = 3.49502 (100 samples)
Total run time 9.24955
