BEGIN Configuration File: /tmp/bs_1138183_629217.cfg
topology = mesh;
k = 4;
n = 2;
routing_function = adaptive_xy_yx;
num_vcs = 4;
vc_buf_size = 4;
wait_for_tail_credit = 1;
vc_allocator = islip;
sw_allocator = islip;
alloc_iters = 1;
credit_delay = 2;
routing_delay = 1;
vc_alloc_delay = 1;
sw_alloc_delay = 1;
input_speedup = 2;
output_speedup = 1;
internal_speedup = 1.0;
traffic = transpose;
packet_size = 1;
sim_type = latency;
injection_rate = 0.02;
warmup_periods = 3;
sample_period = 1000;
sim_count = 100;
seed = 4;

END Configuration File: /tmp/bs_1138183_629217.cfg
Class 0:
Packet latency average = 19.2922
	minimum = 7
	maximum = 37
Network latency average = 19.2922
	minimum = 7
	maximum = 37
Slowest packet = 15
Flit latency average = 19.2922
	minimum = 7
	maximum = 37
Slowest flit = 15
Fragmentation average = 0
	minimum = 0
	maximum = 0
Injected packet rate average = 0.021
	minimum = 0.011 (at node 0)
	maximum = 0.032 (at node 5)
Accepted packet rate average = 0.02075
	minimum = 0.011 (at node 0)
	maximum = 0.032 (at node 5)
Injected flit rate average = 0.021
	minimum = 0.011 (at node 0)
	maximum = 0.032 (at node 5)
Accepted flit rate average= 0.02075
	minimum = 0.011 (at node 0)
	maximum = 0.032 (at node 5)
Injected packet length average = 1
Accepted packet length average = 1
Total in-flight flits = 4 (0 measured)
latency change    = 1
throughput change = 1
Class 0:
Packet latency average = 19.78
	minimum = 7
	maximum = 38
Network latency average = 19.78
	minimum = 7
	maximum = 38
Slowest packet = 562
Flit latency average = 19.78
	minimum = 7
	maximum = 38
Slowest flit = 562
Fragmentation average = 0
	minimum = 0
	maximum = 0
Injected packet rate average = 0.0207188
	minimum = 0.0135 (at node 0)
	maximum = 0.025 (at node 5)
Accepted packet rate average = 0.0205938
	minimum = 0.0135 (at node 0)
	maximum = 0.025 (at node 5)
Injected flit rate average = 0.0207188
	minimum = 0.0135 (at node 0)
	maximum = 0.025 (at node 5)
Accepted flit rate average= 0.0205938
	minimum = 0.0135 (at node 0)
	maximum = 0.025 (at node 5)
Injected packet length average = 1
Accepted packet length average = 1
Total in-flight flits = 4 (0 measured)
latency change    = 0.0246614
throughput change = 0.00758725
Class 0:
Packet latency average = 19.7086
	minimum = 7
	maximum = 39
Network latency average = 19.7086
	minimum = 7
	maximum = 39
Slowest packet = 918
Flit latency average = 19.7086
	minimum = 7
	maximum = 39
Slowest flit = 918
Fragmentation average = 0
	minimum = 0
	maximum = 0
Injected packet rate average = 0.0204375
	minimum = 0.011 (at node 6)
	maximum = 0.031 (at node 14)
Accepted packet rate average = 0.020375
	minimum = 0.01 (at node 9)
	maximum = 0.03 (at node 11)
Injected flit rate average = 0.0204375
	minimum = 0.011 (at node 6)
	maximum = 0.031 (at node 14)
Accepted flit rate average= 0.020375
	minimum = 0.01 (at node 9)
	maximum = 0.03 (at node 11)
Injected packet length average = 1
Accepted packet length average = 1
Total in-flight flits = 5 (0 measured)
latency change    = 0.00362181
throughput change = 0.0107362
Warmed up ...Time used is 3000 cycles
Class 0:
Packet latency average = 18.8045
	minimum = 7
	maximum = 37
Network latency average = 18.8045
	minimum = 7
	maximum = 37
Slowest packet = 994
Flit latency average = 18.8076
	minimum = 7
	maximum = 37
Slowest flit = 985
Fragmentation average = 0
	minimum = 0
	maximum = 0
Injected packet rate average = 0.019875
	minimum = 0.011 (at node 12)
	maximum = 0.028 (at node 6)
Accepted packet rate average = 0.0198125
	minimum = 0.012 (at node 3)
	maximum = 0.029 (at node 9)
Injected flit rate average = 0.019875
	minimum = 0.011 (at node 12)
	maximum = 0.028 (at node 6)
Accepted flit rate average= 0.0198125
	minimum = 0.012 (at node 3)
	maximum = 0.029 (at node 9)
Injected packet length average = 1
Accepted packet length average = 1
Total in-flight flits = 6 (6 measured)
latency change    = 0.048079
throughput change = 0.0283912
Class 0:
Packet latency average = 19.4224
	minimum = 7
	maximum = 38
Network latency average = 19.4224
	minimum = 7
	maximum = 38
Slowest packet = 1549
Flit latency average = 19.419
	minimum = 7
	maximum = 38
Slowest flit = 1549
Fragmentation average = 0
	minimum = 0
	maximum = 0
Injected packet rate average = 0.0197813
	minimum = 0.0115 (at node 4)
	maximum = 0.0265 (at node 13)
Accepted packet rate average = 0.0196875
	minimum = 0.0115 (at node 1)
	maximum = 0.026 (at node 9)
Injected flit rate average = 0.0197813
	minimum = 0.0115 (at node 4)
	maximum = 0.0265 (at node 13)
Accepted flit rate average= 0.0196875
	minimum = 0.0115 (at node 1)
	maximum = 0.026 (at node 9)
Injected packet length average = 1
Accepted packet length average = 1
Total in-flight flits = 8 (8 measured)
latency change    = 0.0318144
throughput change = 0.00634921
Class 0:
Packet latency average = 19.064
	minimum = 7
	maximum = 38
Network latency average = 19.064
	minimum = 7
	maximum = 38
Slowest packet = 1549
Flit latency average = 19.0637
	minimum = 7
	maximum = 38
Slowest flit = 1549
Fragmentation average = 0
	minimum = 0
	maximum = 0
Injected packet rate average = 0.0199792
	minimum = 0.0133333 (at node 4)
	maximum = 0.0256667 (at node 6)
Accepted packet rate average = 0.0199583
	minimum = 0.0133333 (at node 1)
	maximum = 0.026 (at node 9)
Injected flit rate average = 0.0199792
	minimum = 0.0133333 (at node 4)
	maximum = 0.0256667 (at node 6)
Accepted flit rate average= 0.0199583
	minimum = 0.0133333 (at node 1)
	maximum = 0.026 (at node 9)
Injected packet length average = 1
Accepted packet length average = 1
Total in-flight flits = 6 (6 measured)
latency change    = 0.0187994
throughput change = 0.0135699
Draining all recorded packets ...
Draining remaining packets ...
Time taken is 6061 cycles
Class 0:
Packet latency average = 19.0189
	minimum = 7
	maximum = 38
Network latency average = 19.0189
	minimum = 7
	maximum = 38
Slowest packet = 2017
Flit latency average = 19.0189
	minimum = 7
	maximum = 38
Slowest flit = 2017
Fragmentation average = 0
	minimum = 0
	maximum = 0
Injected packet rate average = 0.020375
	minimum = 0.012 (at node 8)
	maximum = 0.028 (at node 10)
Accepted packet rate average = 0.019875
	minimum = 0.011 (at node 2)
	maximum = 0.027 (at node 10)
Injected flit rate average = 0.020375
	minimum = 0.012 (at node 8)
	maximum = 0.028 (at node 10)
Accepted flit rate average= 0.019875
	minimum = 0.011 (at node 2)
	maximum = 0.027 (at node 10)
Injected packet length average = 1
Accepted packet length average = 1
Total in-flight flits = 8 (0 measured)
latency change    = 1
throughput change = 1
Class 0:
Packet latency average = 19.3307
	minimum = 7
	maximum = 38
Network latency average = 19.3307
	minimum = 7
	maximum = 38
Slowest packet = 2017
Flit latency average = 19.3307
	minimum = 7
	maximum = 38
Slowest flit = 2017
Fragmentation average = 0
	minimum = 0
	maximum = 0
Injected packet rate average = 0.0201875
	minimum = 0.013 (at node 2)
	maximum = 0.0285 (at node 10)
Accepted packet rate average = 0.0200313
	minimum = 0.013 (at node 2)
	maximum = 0.0285 (at node 10)
Injected flit rate average = 0.0201875
	minimum = 0.013 (at node 2)
	maximum = 0.0285 (at node 10)
Accepted flit rate average= 0.0200313
	minimum = 0.013 (at node 2)
	maximum = 0.0285 (at node 10)
Injected packet length average = 1
Accepted packet length average = 1
Total in-flight flits = 5 (0 measured)
latency change    = 0.0161331
throughput change = 0.00780031
Class 0:
Packet latency average = 20.0566
	minimum = 7
	maximum = 37
Network latency average = 20.0566
	minimum = 7
	maximum = 37
Slowest packet = 2608
Flit latency average = 20.0566
	minimum = 7
	maximum = 37
Slowest flit = 2608
Fragmentation average = 0
	minimum = 0
	maximum = 0
Injected packet rate average = 0.0200625
	minimum = 0.014 (at node 15)
	maximum = 0.03 (at node 7)
Accepted packet rate average = 0.019875
	minimum = 0.014 (at node 15)
	maximum = 0.03 (at node 13)
Injected flit rate average = 0.0200625
	minimum = 0.014 (at node 15)
	maximum = 0.03 (at node 7)
Accepted flit rate average= 0.019875
	minimum = 0.014 (at node 15)
	maximum = 0.03 (at node 13)
Injected packet length average = 1
Accepted packet length average = 1
Total in-flight flits = 8 (0 measured)
latency change    = 0.0361911
throughput change = 0.00786164
Warmed up ...Time used is 3000 cycles
Class 0:
Packet latency average = 19.1986
	minimum = 7
	maximum = 37
Network latency average = 19.1986
	minimum = 7
	maximum = 37
Slowest packet = 2930
Flit latency average = 19.1424
	minimum = 7
	maximum = 37
Slowest flit = 2930
Fragmentation average = 0
	minimum = 0
	maximum = 0
Injected packet rate average = 0.0181875
	minimum = 0.011 (at node 3)
	maximum = 0.029 (at node 12)
Accepted packet rate average = 0.0184375
	minimum = 0.01 (at node 12)
	maximum = 0.028 (at node 3)
Injected flit rate average = 0.0181875
	minimum = 0.011 (at node 3)
	maximum = 0.029 (at node 12)
Accepted flit rate average= 0.0184375
	minimum = 0.01 (at node 12)
	maximum = 0.028 (at node 3)
Injected packet length average = 1
Accepted packet length average = 1
Total in-flight flits = 4 (4 measured)
latency change    = 0.0446906
throughput change = 0.0779661
Class 0:
Packet latency average = 19.1838
	minimum = 7
	maximum = 37
Network latency average = 19.1838
	minimum = 7
	maximum = 37
Slowest packet = 2930
Flit latency average = 19.1559
	minimum = 7
	maximum = 37
Slowest flit = 2930
Fragmentation average = 0
	minimum = 0
	maximum = 0
Injected packet rate average = 0.0183437
	minimum = 0.014 (at node 7)
	maximum = 0.025 (at node 15)
Accepted packet rate average = 0.0184375
	minimum = 0.014 (at node 13)
	maximum = 0.0255 (at node 15)
Injected flit rate average = 0.0183437
	minimum = 0.014 (at node 7)
	maximum = 0.025 (at node 15)
Accepted flit rate average= 0.0184375
	minimum = 0.014 (at node 13)
	maximum = 0.0255 (at node 15)
Injected packet length average = 1
Accepted packet length average = 1
Total in-flight flits = 5 (5 measured)
latency change    = 0.000769266
throughput change = 0
Class 0:
Packet latency average = 19.1259
	minimum = 7
	maximum = 37
Network latency average = 19.1259
	minimum = 7
	maximum = 37
Slowest packet = 2930
Flit latency average = 19.1076
	minimum = 7
	maximum = 37
Slowest flit = 2930
Fragmentation average = 0
	minimum = 0
	maximum = 0
Injected packet rate average = 0.0181875
	minimum = 0.014 (at node 2)
	maximum = 0.0233333 (at node 15)
Accepted packet rate average = 0.0182083
	minimum = 0.0136667 (at node 8)
	maximum = 0.0236667 (at node 15)
Injected flit rate average = 0.0181875
	minimum = 0.014 (at node 2)
	maximum = 0.0233333 (at node 15)
Accepted flit rate average= 0.0182083
	minimum = 0.0136667 (at node 8)
	maximum = 0.0236667 (at node 15)
Injected packet length average = 1
Accepted packet length average = 1
Total in-flight flits = 7 (7 measured)
latency change    = 0.00303164
throughput change = 0.0125858
Class 0:
Packet latency average = 18.9941
	minimum = 7
	maximum = 37
Network latency average = 18.9941
	minimum = 7
	maximum = 37
Slowest packet = 2930
Flit latency average = 18.9815
	minimum = 7
	maximum = 37
Slowest flit = 2930
Fragmentation average = 0
	minimum = 0
	maximum = 0
Injected packet rate average = 0.0185312
	minimum = 0.014 (at node 7)
	maximum = 0.024 (at node 15)
Accepted packet rate average = 0.0185625
	minimum = 0.014 (at node 12)
	maximum = 0.02425 (at node 15)
Injected flit rate average = 0.0185312
	minimum = 0.014 (at node 7)
	maximum = 0.024 (at node 15)
Accepted flit rate average= 0.0185625
	minimum = 0.014 (at node 12)
	maximum = 0.02425 (at node 15)
Injected packet length average = 1
Accepted packet length average = 1
Total in-flight flits = 6 (6 measured)
latency change    = 0.00693892
throughput change = 0.0190797
Draining all recorded packets ...
Draining remaining packets ...
Time taken is 7036 cycles
Class 0:
Packet latency average = 18.6485
	minimum = 7
	maximum = 39
Network latency average = 18.6485
	minimum = 7
	maximum = 39
Slowest packet = 4392
Flit latency average = 18.6485
	minimum = 7
	maximum = 39
Slowest flit = 4392
Fragmentation average = 0
	minimum = 0
	maximum = 0
Injected packet rate average = 0.021
	minimum = 0.011 (at node 1)
	maximum = 0.029 (at node 8)
Accepted packet rate average = 0.020625
	minimum = 0.011 (at node 4)
	maximum = 0.028 (at node 10)
Injected flit rate average = 0.021
	minimum = 0.011 (at node 1)
	maximum = 0.029 (at node 8)
Accepted flit rate average= 0.020625
	minimum = 0.011 (at node 4)
	maximum = 0.028 (at node 10)
Injected packet length average = 1
Accepted packet length average = 1
Total in-flight flits = 6 (0 measured)
latency change    = 1
throughput change = 1
Class 0:
Packet latency average = 19.7374
	minimum = 7
	maximum = 39
Network latency average = 19.7374
	minimum = 7
	maximum = 39
Slowest packet = 4392
Flit latency average = 19.7374
	minimum = 7
	maximum = 39
Slowest flit = 4392
Fragmentation average = 0
	minimum = 0
	maximum = 0
Injected packet rate average = 0.0195
	minimum = 0.0135 (at node 5)
	maximum = 0.025 (at node 2)
Accepted packet rate average = 0.0191562
	minimum = 0.0135 (at node 5)
	maximum = 0.0245 (at node 2)
Injected flit rate average = 0.0195
	minimum = 0.0135 (at node 5)
	maximum = 0.025 (at node 2)
Accepted flit rate average= 0.0191562
	minimum = 0.0135 (at node 5)
	maximum = 0.0245 (at node 2)
Injected packet length average = 1
Accepted packet length average = 1
Total in-flight flits = 11 (0 measured)
latency change    = 0.0551681
throughput change = 0.0766721
Class 0:
Packet latency average = 19.3388
	minimum = 7
	maximum = 43
Network latency average = 19.3388
	minimum = 7
	maximum = 43
Slowest packet = 4790
Flit latency average = 19.3388
	minimum = 7
	maximum = 43
Slowest flit = 4790
Fragmentation average = 0
	minimum = 0
	maximum = 0
Injected packet rate average = 0.018875
	minimum = 0.015 (at node 6)
	maximum = 0.023 (at node 11)
Accepted packet rate average = 0.0191875
	minimum = 0.016 (at node 4)
	maximum = 0.024 (at node 14)
Injected flit rate average = 0.018875
	minimum = 0.015 (at node 6)
	maximum = 0.023 (at node 11)
Accepted flit rate average= 0.0191875
	minimum = 0.016 (at node 4)
	maximum = 0.024 (at node 14)
Injected packet length average = 1
Accepted packet length average = 1
Total in-flight flits = 6 (0 measured)
latency change    = 0.0206112
throughput change = 0.00162866
Warmed up ...Time used is 3000 cycles
Class 0:
Packet latency average = 19.2152
	minimum = 7
	maximum = 37
Network latency average = 19.2152
	minimum = 7
	maximum = 37
Slowest packet = 5044
Flit latency average = 19.3913
	minimum = 7
	maximum = 37
Slowest flit = 5030
Fragmentation average = 0
	minimum = 0
	maximum = 0
Injected packet rate average = 0.02025
	minimum = 0.013 (at node 14)
	maximum = 0.027 (at node 12)
Accepted packet rate average = 0.020125
	minimum = 0.013 (at node 2)
	maximum = 0.027 (at node 3)
Injected flit rate average = 0.02025
	minimum = 0.013 (at node 14)
	maximum = 0.027 (at node 12)
Accepted flit rate average= 0.020125
	minimum = 0.013 (at node 2)
	maximum = 0.027 (at node 3)
Injected packet length average = 1
Accepted packet length average = 1
Total in-flight flits = 8 (8 measured)
latency change    = 0.00643097
throughput change = 0.0465839
Class 0:
Packet latency average = 18.9592
	minimum = 7
	maximum = 41
Network latency average = 18.9592
	minimum = 7
	maximum = 41
Slowest packet = 5648
Flit latency average = 19.0497
	minimum = 7
	maximum = 41
Slowest flit = 5648
Fragmentation average = 0
	minimum = 0
	maximum = 0
Injected packet rate average = 0.0200938
	minimum = 0.016 (at node 1)
	maximum = 0.027 (at node 15)
Accepted packet rate average = 0.020125
	minimum = 0.016 (at node 4)
	maximum = 0.027 (at node 15)
Injected flit rate average = 0.0200938
	minimum = 0.016 (at node 1)
	maximum = 0.027 (at node 15)
Accepted flit rate average= 0.020125
	minimum = 0.016 (at node 4)
	maximum = 0.027 (at node 15)
Injected packet length average = 1
Accepted packet length average = 1
Total in-flight flits = 5 (5 measured)
latency change    = 0.0134996
throughput change = 0
Class 0:
Packet latency average = 19.1297
	minimum = 7
	maximum = 41
Network latency average = 19.1297
	minimum = 7
	maximum = 41
Slowest packet = 5648
Flit latency average = 19.1878
	minimum = 7
	maximum = 41
Slowest flit = 5648
Fragmentation average = 0
	minimum = 0
	maximum = 0
Injected packet rate average = 0.0205417
	minimum = 0.0153333 (at node 2)
	maximum = 0.025 (at node 0)
Accepted packet rate average = 0.0205208
	minimum = 0.0153333 (at node 8)
	maximum = 0.025 (at node 0)
Injected flit rate average = 0.0205417
	minimum = 0.0153333 (at node 2)
	maximum = 0.025 (at node 0)
Accepted flit rate average= 0.0205208
	minimum = 0.0153333 (at node 8)
	maximum = 0.025 (at node 0)
Injected packet length average = 1
Accepted packet length average = 1
Total in-flight flits = 7 (7 measured)
latency change    = 0.00891161
throughput change = 0.0192893
Draining all recorded packets ...
Draining remaining packets ...
Time taken is 6061 cycles
Class 0:
Packet latency average = 19.475
	minimum = 7
	maximum = 38
Network latency average = 19.475
	minimum = 7
	maximum = 38
Slowest packet = 6310
Flit latency average = 19.475
	minimum = 7
	maximum = 38
Slowest flit = 6310
Fragmentation average = 0
	minimum = 0
	maximum = 0
Injected packet rate average = 0.02025
	minimum = 0.015 (at node 5)
	maximum = 0.03 (at node 10)
Accepted packet rate average = 0.02
	minimum = 0.015 (at node 5)
	maximum = 0.03 (at node 10)
Injected flit rate average = 0.02025
	minimum = 0.015 (at node 5)
	maximum = 0.03 (at node 10)
Accepted flit rate average= 0.02
	minimum = 0.015 (at node 5)
	maximum = 0.03 (at node 10)
Injected packet length average = 1
Accepted packet length average = 1
Total in-flight flits = 4 (0 measured)
latency change    = 1
throughput change = 1
Class 0:
Packet latency average = 19.4146
	minimum = 7
	maximum = 38
Network latency average = 19.4146
	minimum = 7
	maximum = 38
Slowest packet = 6310
Flit latency average = 19.4146
	minimum = 7
	maximum = 38
Slowest flit = 6310
Fragmentation average = 0
	minimum = 0
	maximum = 0
Injected packet rate average = 0.0202188
	minimum = 0.0145 (at node 5)
	maximum = 0.024 (at node 4)
Accepted packet rate average = 0.020125
	minimum = 0.0145 (at node 5)
	maximum = 0.024 (at node 1)
Injected flit rate average = 0.0202188
	minimum = 0.0145 (at node 5)
	maximum = 0.024 (at node 4)
Accepted flit rate average= 0.020125
	minimum = 0.0145 (at node 5)
	maximum = 0.024 (at node 1)
Injected packet length average = 1
Accepted packet length average = 1
Total in-flight flits = 3 (0 measured)
latency change    = 0.00311125
throughput change = 0.00621118
Class 0:
Packet latency average = 19.4611
	minimum = 7
	maximum = 37
Network latency average = 19.4611
	minimum = 7
	maximum = 37
Slowest packet = 6680
Flit latency average = 19.4611
	minimum = 7
	maximum = 37
Slowest flit = 6680
Fragmentation average = 0
	minimum = 0
	maximum = 0
Injected packet rate average = 0.020875
	minimum = 0.014 (at node 0)
	maximum = 0.028 (at node 4)
Accepted packet rate average = 0.020875
	minimum = 0.014 (at node 0)
	maximum = 0.028 (at node 1)
Injected flit rate average = 0.020875
	minimum = 0.014 (at node 0)
	maximum = 0.028 (at node 4)
Accepted flit rate average= 0.020875
	minimum = 0.014 (at node 0)
	maximum = 0.028 (at node 1)
Injected packet length average = 1
Accepted packet length average = 1
Total in-flight flits = 3 (0 measured)
latency change    = 0.00238844
throughput change = 0.0359281
Warmed up ...Time used is 3000 cycles
Class 0:
Packet latency average = 19.468
	minimum = 7
	maximum = 38
Network latency average = 19.468
	minimum = 7
	maximum = 38
Slowest packet = 7216
Flit latency average = 19.51
	minimum = 7
	maximum = 38
Slowest flit = 7216
Fragmentation average = 0
	minimum = 0
	maximum = 0
Injected packet rate average = 0.018875
	minimum = 0.013 (at node 7)
	maximum = 0.026 (at node 15)
Accepted packet rate average = 0.01875
	minimum = 0.012 (at node 13)
	maximum = 0.026 (at node 15)
Injected flit rate average = 0.018875
	minimum = 0.013 (at node 7)
	maximum = 0.026 (at node 15)
Accepted flit rate average= 0.01875
	minimum = 0.012 (at node 13)
	maximum = 0.026 (at node 15)
Injected packet length average = 1
Accepted packet length average = 1
Total in-flight flits = 5 (5 measured)
latency change    = 0.000356257
throughput change = 0.113333
Class 0:
Packet latency average = 19.2917
	minimum = 7
	maximum = 38
Network latency average = 19.2917
	minimum = 7
	maximum = 38
Slowest packet = 7216
Flit latency average = 19.3129
	minimum = 7
	maximum = 38
Slowest flit = 7216
Fragmentation average = 0
	minimum = 0
	maximum = 0
Injected packet rate average = 0.0194687
	minimum = 0.013 (at node 7)
	maximum = 0.026 (at node 11)
Accepted packet rate average = 0.019375
	minimum = 0.013 (at node 13)
	maximum = 0.026 (at node 14)
Injected flit rate average = 0.0194687
	minimum = 0.013 (at node 7)
	maximum = 0.026 (at node 11)
Accepted flit rate average= 0.019375
	minimum = 0.013 (at node 13)
	maximum = 0.026 (at node 14)
Injected packet length average = 1
Accepted packet length average = 1
Total in-flight flits = 6 (6 measured)
latency change    = 0.00913755
throughput change = 0.0322581
Class 0:
Packet latency average = 19.7487
	minimum = 7
	maximum = 45
Network latency average = 19.7487
	minimum = 7
	maximum = 45
Slowest packet = 7649
Flit latency average = 19.7611
	minimum = 7
	maximum = 45
Slowest flit = 7649
Fragmentation average = 0
	minimum = 0
	maximum = 0
Injected packet rate average = 0.0197083
	minimum = 0.016 (at node 7)
	maximum = 0.0236667 (at node 11)
Accepted packet rate average = 0.019625
	minimum = 0.016 (at node 13)
	maximum = 0.0233333 (at node 14)
Injected flit rate average = 0.0197083
	minimum = 0.016 (at node 7)
	maximum = 0.0236667 (at node 11)
Accepted flit rate average= 0.019625
	minimum = 0.016 (at node 13)
	maximum = 0.0233333 (at node 14)
Injected packet length average = 1
Accepted packet length average = 1
Total in-flight flits = 7 (7 measured)
latency change    = 0.0231375
throughput change = 0.0127389
Class 0:
Packet latency average = 19.4628
	minimum = 7
	maximum = 45
Network latency average = 19.4628
	minimum = 7
	maximum = 45
Slowest packet = 7649
Flit latency average = 19.4728
	minimum = 7
	maximum = 45
Slowest flit = 7649
Fragmentation average = 0
	minimum = 0
	maximum = 0
Injected packet rate average = 0.0198281
	minimum = 0.0165 (at node 7)
	maximum = 0.02225 (at node 11)
Accepted packet rate average = 0.0197969
	minimum = 0.0165 (at node 13)
	maximum = 0.02225 (at node 14)
Injected flit rate average = 0.0198281
	minimum = 0.0165 (at node 7)
	maximum = 0.02225 (at node 11)
Accepted flit rate average= 0.0197969
	minimum = 0.0165 (at node 13)
	maximum = 0.02225 (at node 14)
Injected packet length average = 1
Accepted packet length average = 1
Total in-flight flits = 5 (5 measured)
latency change    = 0.0146871
throughput change = 0.00868193
Draining all recorded packets ...
Draining remaining packets ...
Time taken is 7061 cycles
Class 0:
Packet latency average = 19.44
	minimum = 7
	maximum = 47
Network latency average = 19.44
	minimum = 7
	maximum = 47
Slowest packet = 8452
Flit latency average = 19.44
	minimum = 7
	maximum = 47
Slowest flit = 8452
Fragmentation average = 0
	minimum = 0
	maximum = 0
Injected packet rate average = 0.0205625
	minimum = 0.015 (at node 1)
	maximum = 0.027 (at node 2)
Accepted packet rate average = 0.0203125
	minimum = 0.015 (at node 4)
	maximum = 0.026 (at node 8)
Injected flit rate average = 0.0205625
	minimum = 0.015 (at node 1)
	maximum = 0.027 (at node 2)
Accepted flit rate average= 0.0203125
	minimum = 0.015 (at node 4)
	maximum = 0.026 (at node 8)
Injected packet length average = 1
Accepted packet length average = 1
Total in-flight flits = 4 (0 measured)
latency change    = 1
throughput change = 1
Class 0:
Packet latency average = 19.5582
	minimum = 7
	maximum = 47
Network latency average = 19.5582
	minimum = 7
	maximum = 47
Slowest packet = 8452
Flit latency average = 19.5582
	minimum = 7
	maximum = 47
Slowest flit = 8452
Fragmentation average = 0
	minimum = 0
	maximum = 0
Injected packet rate average = 0.02025
	minimum = 0.016 (at node 0)
	maximum = 0.0245 (at node 5)
Accepted packet rate average = 0.019875
	minimum = 0.0155 (at node 4)
	maximum = 0.024 (at node 5)
Injected flit rate average = 0.02025
	minimum = 0.016 (at node 0)
	maximum = 0.0245 (at node 5)
Accepted flit rate average= 0.019875
	minimum = 0.0155 (at node 4)
	maximum = 0.024 (at node 5)
Injected packet length average = 1
Accepted packet length average = 1
Total in-flight flits = 12 (0 measured)
latency change    = 0.00604229
throughput change = 0.0220126
Class 0:
Packet latency average = 19.0489
	minimum = 7
	maximum = 45
Network latency average = 19.0489
	minimum = 7
	maximum = 45
Slowest packet = 9069
Flit latency average = 19.0489
	minimum = 7
	maximum = 45
Slowest flit = 9069
Fragmentation average = 0
	minimum = 0
	maximum = 0
Injected packet rate average = 0.02
	minimum = 0.012 (at node 8)
	maximum = 0.031 (at node 1)
Accepted packet rate average = 0.0204375
	minimum = 0.013 (at node 7)
	maximum = 0.03 (at node 4)
Injected flit rate average = 0.02
	minimum = 0.012 (at node 8)
	maximum = 0.031 (at node 1)
Accepted flit rate average= 0.0204375
	minimum = 0.013 (at node 7)
	maximum = 0.03 (at node 4)
Injected packet length average = 1
Accepted packet length average = 1
Total in-flight flits = 5 (0 measured)
latency change    = 0.0267336
throughput change = 0.0275229
Warmed up ...Time used is 3000 cycles
Class 0:
Packet latency average = 20.3449
	minimum = 7
	maximum = 44
Network latency average = 20.3449
	minimum = 7
	maximum = 44
Slowest packet = 9437
Flit latency average = 20.3863
	minimum = 7
	maximum = 44
Slowest flit = 9437
Fragmentation average = 0
	minimum = 0
	maximum = 0
Injected packet rate average = 0.0198125
	minimum = 0.013 (at node 9)
	maximum = 0.028 (at node 7)
Accepted packet rate average = 0.0200625
	minimum = 0.013 (at node 6)
	maximum = 0.028 (at node 13)
Injected flit rate average = 0.0198125
	minimum = 0.013 (at node 9)
	maximum = 0.028 (at node 7)
Accepted flit rate average= 0.0200625
	minimum = 0.013 (at node 6)
	maximum = 0.028 (at node 13)
Injected packet length average = 1
Accepted packet length average = 1
Total in-flight flits = 1 (1 measured)
latency change    = 0.0637017
throughput change = 0.0186916
Class 0:
Packet latency average = 19.409
	minimum = 7
	maximum = 44
Network latency average = 19.409
	minimum = 7
	maximum = 44
Slowest packet = 9437
Flit latency average = 19.4367
	minimum = 7
	maximum = 44
Slowest flit = 9437
Fragmentation average = 0
	minimum = 0
	maximum = 0
Injected packet rate average = 0.0203125
	minimum = 0.0145 (at node 15)
	maximum = 0.0275 (at node 6)
Accepted packet rate average = 0.02025
	minimum = 0.0145 (at node 15)
	maximum = 0.0275 (at node 9)
Injected flit rate average = 0.0203125
	minimum = 0.0145 (at node 15)
	maximum = 0.0275 (at node 6)
Accepted flit rate average= 0.02025
	minimum = 0.0145 (at node 15)
	maximum = 0.0275 (at node 9)
Injected packet length average = 1
Accepted packet length average = 1
Total in-flight flits = 7 (7 measured)
latency change    = 0.0482207
throughput change = 0.00925926
Class 0:
Packet latency average = 19.4496
	minimum = 7
	maximum = 44
Network latency average = 19.4496
	minimum = 7
	maximum = 44
Slowest packet = 9437
Flit latency average = 19.4681
	minimum = 7
	maximum = 44
Slowest flit = 9437
Fragmentation average = 0
	minimum = 0
	maximum = 0
Injected packet rate average = 0.0199792
	minimum = 0.0143333 (at node 11)
	maximum = 0.0273333 (at node 6)
Accepted packet rate average = 0.0199375
	minimum = 0.0143333 (at node 14)
	maximum = 0.0273333 (at node 9)
Injected flit rate average = 0.0199792
	minimum = 0.0143333 (at node 11)
	maximum = 0.0273333 (at node 6)
Accepted flit rate average= 0.0199375
	minimum = 0.0143333 (at node 14)
	maximum = 0.0273333 (at node 9)
Injected packet length average = 1
Accepted packet length average = 1
Total in-flight flits = 7 (7 measured)
latency change    = 0.00208537
throughput change = 0.015674
Class 0:
Packet latency average = 19.2872
	minimum = 7
	maximum = 44
Network latency average = 19.2872
	minimum = 7
	maximum = 44
Slowest packet = 9437
Flit latency average = 19.3014
	minimum = 7
	maximum = 44
Slowest flit = 9437
Fragmentation average = 0
	minimum = 0
	maximum = 0
Injected packet rate average = 0.0205156
	minimum = 0.01575 (at node 3)
	maximum = 0.02625 (at node 6)
Accepted packet rate average = 0.0205313
	minimum = 0.016 (at node 12)
	maximum = 0.02625 (at node 9)
Injected flit rate average = 0.0205156
	minimum = 0.01575 (at node 3)
	maximum = 0.02625 (at node 6)
Accepted flit rate average= 0.0205313
	minimum = 0.016 (at node 12)
	maximum = 0.02625 (at node 9)
Injected packet length average = 1
Accepted packet length average = 1
Total in-flight flits = 4 (4 measured)
latency change    = 0.00841684
throughput change = 0.0289193
Draining all recorded packets ...
Draining remaining packets ...
Time taken is 7053 cycles
Class 0:
Packet latency average = 19.1155
	minimum = 7
	maximum = 37
Network latency average = 19.1155
	minimum = 7
	maximum = 37
Slowest packet = 10599
Flit latency average = 19.1155
	minimum = 7
	maximum = 37
Slowest flit = 10599
Fragmentation average = 0
	minimum = 0
	maximum = 0
Injected packet rate average = 0.01925
	minimum = 0.012 (at node 8)
	maximum = 0.033 (at node 14)
Accepted packet rate average = 0.0189375
	minimum = 0.012 (at node 2)
	maximum = 0.033 (at node 11)
Injected flit rate average = 0.01925
	minimum = 0.012 (at node 8)
	maximum = 0.033 (at node 14)
Accepted flit rate average= 0.0189375
	minimum = 0.012 (at node 2)
	maximum = 0.033 (at node 11)
Injected packet length average = 1
Accepted packet length average = 1
Total in-flight flits = 5 (0 measured)
latency change    = 1
throughput change = 1
Class 0:
Packet latency average = 18.9182
	minimum = 7
	maximum = 38
Network latency average = 18.9182
	minimum = 7
	maximum = 38
Slowest packet = 11207
Flit latency average = 18.9182
	minimum = 7
	maximum = 38
Slowest flit = 11207
Fragmentation average = 0
	minimum = 0
	maximum = 0
Injected packet rate average = 0.0205625
	minimum = 0.015 (at node 3)
	maximum = 0.0285 (at node 14)
Accepted packet rate average = 0.02025
	minimum = 0.0145 (at node 12)
	maximum = 0.028 (at node 11)
Injected flit rate average = 0.0205625
	minimum = 0.015 (at node 3)
	maximum = 0.0285 (at node 14)
Accepted flit rate average= 0.02025
	minimum = 0.0145 (at node 12)
	maximum = 0.028 (at node 11)
Injected packet length average = 1
Accepted packet length average = 1
Total in-flight flits = 10 (0 measured)
latency change    = 0.0104292
throughput change = 0.0648148
Class 0:
Packet latency average = 20.1612
	minimum = 7
	maximum = 43
Network latency average = 20.1612
	minimum = 7
	maximum = 43
Slowest packet = 11522
Flit latency average = 20.1612
	minimum = 7
	maximum = 43
Slowest flit = 11522
Fragmentation average = 0
	minimum = 0
	maximum = 0
Injected packet rate average = 0.02075
	minimum = 0.014 (at node 14)
	maximum = 0.031 (at node 13)
Accepted packet rate average = 0.0209375
	minimum = 0.015 (at node 11)
	maximum = 0.031 (at node 7)
Injected flit rate average = 0.02075
	minimum = 0.014 (at node 14)
	maximum = 0.031 (at node 13)
Accepted flit rate average= 0.0209375
	minimum = 0.015 (at node 11)
	maximum = 0.031 (at node 7)
Injected packet length average = 1
Accepted packet length average = 1
Total in-flight flits = 7 (0 measured)
latency change    = 0.0616523
throughput change = 0.0328358
Warmed up ...Time used is 3000 cycles
Class 0:
Packet latency average = 19.8436
	minimum = 7
	maximum = 43
Network latency average = 19.8436
	minimum = 7
	maximum = 43
Slowest packet = 11586
Flit latency average = 19.8739
	minimum = 7
	maximum = 43
Slowest flit = 11586
Fragmentation average = 0
	minimum = 0
	maximum = 0
Injected packet rate average = 0.0208125
	minimum = 0.012 (at node 1)
	maximum = 0.03 (at node 8)
Accepted packet rate average = 0.0208125
	minimum = 0.012 (at node 4)
	maximum = 0.03 (at node 2)
Injected flit rate average = 0.0208125
	minimum = 0.012 (at node 1)
	maximum = 0.03 (at node 8)
Accepted flit rate average= 0.0208125
	minimum = 0.012 (at node 4)
	maximum = 0.03 (at node 2)
Injected packet length average = 1
Accepted packet length average = 1
Total in-flight flits = 7 (7 measured)
latency change    = 0.016007
throughput change = 0.00600601
Class 0:
Packet latency average = 19.5739
	minimum = 7
	maximum = 43
Network latency average = 19.5739
	minimum = 7
	maximum = 43
Slowest packet = 11586
Flit latency average = 19.5928
	minimum = 7
	maximum = 43
Slowest flit = 11586
Fragmentation average = 0
	minimum = 0
	maximum = 0
Injected packet rate average = 0.01975
	minimum = 0.0155 (at node 1)
	maximum = 0.0255 (at node 11)
Accepted packet rate average = 0.019875
	minimum = 0.0155 (at node 4)
	maximum = 0.0255 (at node 14)
Injected flit rate average = 0.01975
	minimum = 0.0155 (at node 1)
	maximum = 0.0255 (at node 11)
Accepted flit rate average= 0.019875
	minimum = 0.0155 (at node 4)
	maximum = 0.0255 (at node 14)
Injected packet length average = 1
Accepted packet length average = 1
Total in-flight flits = 3 (3 measured)
latency change    = 0.013775
throughput change = 0.0471698
Class 0:
Packet latency average = 19.6747
	minimum = 7
	maximum = 43
Network latency average = 19.6747
	minimum = 7
	maximum = 43
Slowest packet = 11586
Flit latency average = 19.6869
	minimum = 7
	maximum = 43
Slowest flit = 11586
Fragmentation average = 0
	minimum = 0
	maximum = 0
Injected packet rate average = 0.0192708
	minimum = 0.0156667 (at node 6)
	maximum = 0.023 (at node 11)
Accepted packet rate average = 0.0192292
	minimum = 0.016 (at node 9)
	maximum = 0.023 (at node 14)
Injected flit rate average = 0.0192708
	minimum = 0.0156667 (at node 6)
	maximum = 0.023 (at node 11)
Accepted flit rate average= 0.0192292
	minimum = 0.016 (at node 9)
	maximum = 0.023 (at node 14)
Injected packet length average = 1
Accepted packet length average = 1
Total in-flight flits = 9 (9 measured)
latency change    = 0.00512057
throughput change = 0.0335861
Draining all recorded packets ...
Draining remaining packets ...
Time taken is 6060 cycles
Class 0:
Packet latency average = 20.1509
	minimum = 7
	maximum = 37
Network latency average = 20.1509
	minimum = 7
	maximum = 37
Slowest packet = 12530
Flit latency average = 20.1509
	minimum = 7
	maximum = 37
Slowest flit = 12530
Fragmentation average = 0
	minimum = 0
	maximum = 0
Injected packet rate average = 0.020125
	minimum = 0.011 (at node 5)
	maximum = 0.029 (at node 7)
Accepted packet rate average = 0.019875
	minimum = 0.011 (at node 5)
	maximum = 0.029 (at node 13)
Injected flit rate average = 0.020125
	minimum = 0.011 (at node 5)
	maximum = 0.029 (at node 7)
Accepted flit rate average= 0.019875
	minimum = 0.011 (at node 5)
	maximum = 0.029 (at node 13)
Injected packet length average = 1
Accepted packet length average = 1
Total in-flight flits = 4 (0 measured)
latency change    = 1
throughput change = 1
Class 0:
Packet latency average = 19.6189
	minimum = 7
	maximum = 38
Network latency average = 19.6189
	minimum = 7
	maximum = 38
Slowest packet = 12978
Flit latency average = 19.6189
	minimum = 7
	maximum = 38
Slowest flit = 12978
Fragmentation average = 0
	minimum = 0
	maximum = 0
Injected packet rate average = 0.0199688
	minimum = 0.015 (at node 14)
	maximum = 0.0275 (at node 0)
Accepted packet rate average = 0.0198438
	minimum = 0.015 (at node 11)
	maximum = 0.0275 (at node 0)
Injected flit rate average = 0.0199688
	minimum = 0.015 (at node 14)
	maximum = 0.0275 (at node 0)
Accepted flit rate average= 0.0198438
	minimum = 0.015 (at node 11)
	maximum = 0.0275 (at node 0)
Injected packet length average = 1
Accepted packet length average = 1
Total in-flight flits = 4 (0 measured)
latency change    = 0.027119
throughput change = 0.0015748
Class 0:
Packet latency average = 18.8338
	minimum = 7
	maximum = 38
Network latency average = 18.8338
	minimum = 7
	maximum = 38
Slowest packet = 13258
Flit latency average = 18.8338
	minimum = 7
	maximum = 38
Slowest flit = 13258
Fragmentation average = 0
	minimum = 0
	maximum = 0
Injected packet rate average = 0.022875
	minimum = 0.015 (at node 12)
	maximum = 0.028 (at node 0)
Accepted packet rate average = 0.0229375
	minimum = 0.016 (at node 3)
	maximum = 0.028 (at node 0)
Injected flit rate average = 0.022875
	minimum = 0.015 (at node 12)
	maximum = 0.028 (at node 0)
Accepted flit rate average= 0.0229375
	minimum = 0.016 (at node 3)
	maximum = 0.028 (at node 0)
Injected packet length average = 1
Accepted packet length average = 1
Total in-flight flits = 3 (0 measured)
latency change    = 0.0416863
throughput change = 0.134877
Warmed up ...Time used is 3000 cycles
Class 0:
Packet latency average = 19.068
	minimum = 7
	maximum = 38
Network latency average = 19.068
	minimum = 7
	maximum = 38
Slowest packet = 13626
Flit latency average = 19.0801
	minimum = 7
	maximum = 38
Slowest flit = 13626
Fragmentation average = 0
	minimum = 0
	maximum = 0
Injected packet rate average = 0.0200625
	minimum = 0.009 (at node 12)
	maximum = 0.03 (at node 7)
Accepted packet rate average = 0.0195
	minimum = 0.008 (at node 3)
	maximum = 0.029 (at node 13)
Injected flit rate average = 0.0200625
	minimum = 0.009 (at node 12)
	maximum = 0.03 (at node 7)
Accepted flit rate average= 0.0195
	minimum = 0.008 (at node 3)
	maximum = 0.029 (at node 13)
Injected packet length average = 1
Accepted packet length average = 1
Total in-flight flits = 12 (12 measured)
latency change    = 0.012281
throughput change = 0.176282
Class 0:
Packet latency average = 19.5375
	minimum = 7
	maximum = 38
Network latency average = 19.5375
	minimum = 7
	maximum = 38
Slowest packet = 13626
Flit latency average = 19.5412
	minimum = 7
	maximum = 38
Slowest flit = 13626
Fragmentation average = 0
	minimum = 0
	maximum = 0
Injected packet rate average = 0.0201875
	minimum = 0.015 (at node 12)
	maximum = 0.0275 (at node 8)
Accepted packet rate average = 0.0200938
	minimum = 0.0145 (at node 3)
	maximum = 0.0275 (at node 2)
Injected flit rate average = 0.0201875
	minimum = 0.015 (at node 12)
	maximum = 0.0275 (at node 8)
Accepted flit rate average= 0.0200938
	minimum = 0.0145 (at node 3)
	maximum = 0.0275 (at node 2)
Injected packet length average = 1
Accepted packet length average = 1
Total in-flight flits = 6 (6 measured)
latency change    = 0.0240327
throughput change = 0.029549
Class 0:
Packet latency average = 19.3497
	minimum = 7
	maximum = 46
Network latency average = 19.3497
	minimum = 7
	maximum = 46
Slowest packet = 14270
Flit latency average = 19.3528
	minimum = 7
	maximum = 46
Slowest flit = 14270
Fragmentation average = 0
	minimum = 0
	maximum = 0
Injected packet rate average = 0.0196667
	minimum = 0.0146667 (at node 12)
	maximum = 0.0253333 (at node 8)
Accepted packet rate average = 0.0196042
	minimum = 0.0143333 (at node 3)
	maximum = 0.0256667 (at node 2)
Injected flit rate average = 0.0196667
	minimum = 0.0146667 (at node 12)
	maximum = 0.0253333 (at node 8)
Accepted flit rate average= 0.0196042
	minimum = 0.0143333 (at node 3)
	maximum = 0.0256667 (at node 2)
Injected packet length average = 1
Accepted packet length average = 1
Total in-flight flits = 6 (6 measured)
latency change    = 0.00970661
throughput change = 0.0249734
Class 0:
Packet latency average = 19.471
	minimum = 7
	maximum = 46
Network latency average = 19.471
	minimum = 7
	maximum = 46
Slowest packet = 14270
Flit latency average = 19.4731
	minimum = 7
	maximum = 46
Slowest flit = 14270
Fragmentation average = 0
	minimum = 0
	maximum = 0
Injected packet rate average = 0.020125
	minimum = 0.01575 (at node 1)
	maximum = 0.02575 (at node 8)
Accepted packet rate average = 0.0200156
	minimum = 0.0155 (at node 3)
	maximum = 0.0255 (at node 2)
Injected flit rate average = 0.020125
	minimum = 0.01575 (at node 1)
	maximum = 0.02575 (at node 8)
Accepted flit rate average= 0.0200156
	minimum = 0.0155 (at node 3)
	maximum = 0.0255 (at node 2)
Injected packet length average = 1
Accepted packet length average = 1
Total in-flight flits = 10 (10 measured)
latency change    = 0.00623327
throughput change = 0.0205569
Draining all recorded packets ...
Draining remaining packets ...
Time taken is 7059 cycles
Class 0:
Packet latency average = 18.6126
	minimum = 7
	maximum = 37
Network latency average = 18.6126
	minimum = 7
	maximum = 37
Slowest packet = 14849
Flit latency average = 18.6126
	minimum = 7
	maximum = 37
Slowest flit = 14849
Fragmentation average = 0
	minimum = 0
	maximum = 0
Injected packet rate average = 0.019
	minimum = 0.013 (at node 1)
	maximum = 0.029 (at node 10)
Accepted packet rate average = 0.018875
	minimum = 0.013 (at node 4)
	maximum = 0.029 (at node 10)
Injected flit rate average = 0.019
	minimum = 0.013 (at node 1)
	maximum = 0.029 (at node 10)
Accepted flit rate average= 0.018875
	minimum = 0.013 (at node 4)
	maximum = 0.029 (at node 10)
Injected packet length average = 1
Accepted packet length average = 1
Total in-flight flits = 2 (0 measured)
latency change    = 1
throughput change = 1
Class 0:
Packet latency average = 18.7588
	minimum = 7
	maximum = 39
Network latency average = 18.7588
	minimum = 7
	maximum = 39
Slowest packet = 15327
Flit latency average = 18.7588
	minimum = 7
	maximum = 39
Slowest flit = 15327
Fragmentation average = 0
	minimum = 0
	maximum = 0
Injected packet rate average = 0.0189062
	minimum = 0.011 (at node 1)
	maximum = 0.0265 (at node 9)
Accepted packet rate average = 0.0186562
	minimum = 0.0105 (at node 4)
	maximum = 0.026 (at node 6)
Injected flit rate average = 0.0189062
	minimum = 0.011 (at node 1)
	maximum = 0.0265 (at node 9)
Accepted flit rate average= 0.0186562
	minimum = 0.0105 (at node 4)
	maximum = 0.026 (at node 6)
Injected packet length average = 1
Accepted packet length average = 1
Total in-flight flits = 8 (0 measured)
latency change    = 0.00779427
throughput change = 0.0117253
Class 0:
Packet latency average = 19.4737
	minimum = 7
	maximum = 38
Network latency average = 19.4737
	minimum = 7
	maximum = 38
Slowest packet = 15511
Flit latency average = 19.4737
	minimum = 7
	maximum = 38
Slowest flit = 15511
Fragmentation average = 0
	minimum = 0
	maximum = 0
Injected packet rate average = 0.018875
	minimum = 0.008 (at node 8)
	maximum = 0.026 (at node 6)
Accepted packet rate average = 0.019
	minimum = 0.008 (at node 2)
	maximum = 0.027 (at node 9)
Injected flit rate average = 0.018875
	minimum = 0.008 (at node 8)
	maximum = 0.026 (at node 6)
Accepted flit rate average= 0.019
	minimum = 0.008 (at node 2)
	maximum = 0.027 (at node 9)
Injected packet length average = 1
Accepted packet length average = 1
Total in-flight flits = 6 (0 measured)
latency change    = 0.0367106
throughput change = 0.0180921
Warmed up ...Time used is 3000 cycles
Class 0:
Packet latency average = 19.9965
	minimum = 7
	maximum = 37
Network latency average = 19.9965
	minimum = 7
	maximum = 37
Slowest packet = 15729
Flit latency average = 20.2082
	minimum = 7
	maximum = 37
Slowest flit = 15715
Fragmentation average = 0
	minimum = 0
	maximum = 0
Injected packet rate average = 0.018375
	minimum = 0.014 (at node 11)
	maximum = 0.027 (at node 4)
Accepted packet rate average = 0.0183125
	minimum = 0.014 (at node 14)
	maximum = 0.025 (at node 1)
Injected flit rate average = 0.018375
	minimum = 0.014 (at node 11)
	maximum = 0.027 (at node 4)
Accepted flit rate average= 0.0183125
	minimum = 0.014 (at node 14)
	maximum = 0.025 (at node 1)
Injected packet length average = 1
Accepted packet length average = 1
Total in-flight flits = 7 (7 measured)
latency change    = 0.0261461
throughput change = 0.0375427
Class 0:
Packet latency average = 19.8778
	minimum = 7
	maximum = 38
Network latency average = 19.8778
	minimum = 7
	maximum = 38
Slowest packet = 16194
Flit latency average = 19.9777
	minimum = 7
	maximum = 38
Slowest flit = 16194
Fragmentation average = 0
	minimum = 0
	maximum = 0
Injected packet rate average = 0.019625
	minimum = 0.0125 (at node 9)
	maximum = 0.0265 (at node 13)
Accepted packet rate average = 0.019625
	minimum = 0.0125 (at node 6)
	maximum = 0.0265 (at node 7)
Injected flit rate average = 0.019625
	minimum = 0.0125 (at node 9)
	maximum = 0.0265 (at node 13)
Accepted flit rate average= 0.019625
	minimum = 0.0125 (at node 6)
	maximum = 0.0265 (at node 7)
Injected packet length average = 1
Accepted packet length average = 1
Total in-flight flits = 6 (6 measured)
latency change    = 0.00597159
throughput change = 0.066879
Class 0:
Packet latency average = 19.6494
	minimum = 7
	maximum = 38
Network latency average = 19.6494
	minimum = 7
	maximum = 38
Slowest packet = 16194
Flit latency average = 19.7168
	minimum = 7
	maximum = 38
Slowest flit = 16194
Fragmentation average = 0
	minimum = 0
	maximum = 0
Injected packet rate average = 0.01975
	minimum = 0.0146667 (at node 9)
	maximum = 0.025 (at node 3)
Accepted packet rate average = 0.0197917
	minimum = 0.0143333 (at node 6)
	maximum = 0.0246667 (at node 12)
Injected flit rate average = 0.01975
	minimum = 0.0146667 (at node 9)
	maximum = 0.025 (at node 3)
Accepted flit rate average= 0.0197917
	minimum = 0.0143333 (at node 6)
	maximum = 0.0246667 (at node 12)
Injected packet length average = 1
Accepted packet length average = 1
Total in-flight flits = 4 (4 measured)
latency change    = 0.0116263
throughput change = 0.00842105
Class 0:
Packet latency average = 19.4477
	minimum = 7
	maximum = 38
Network latency average = 19.4477
	minimum = 7
	maximum = 38
Slowest packet = 16194
Flit latency average = 19.4992
	minimum = 7
	maximum = 38
Slowest flit = 16194
Fragmentation average = 0
	minimum = 0
	maximum = 0
Injected packet rate average = 0.0198281
	minimum = 0.01625 (at node 6)
	maximum = 0.02575 (at node 3)
Accepted packet rate average = 0.0198125
	minimum = 0.01625 (at node 9)
	maximum = 0.02525 (at node 12)
Injected flit rate average = 0.0198281
	minimum = 0.01625 (at node 6)
	maximum = 0.02575 (at node 3)
Accepted flit rate average= 0.0198125
	minimum = 0.01625 (at node 9)
	maximum = 0.02525 (at node 12)
Injected packet length average = 1
Accepted packet length average = 1
Total in-flight flits = 7 (7 measured)
latency change    = 0.0103695
throughput change = 0.00105152
Class 0:
Packet latency average = 19.4711
	minimum = 7
	maximum = 38
Network latency average = 19.4711
	minimum = 7
	maximum = 38
Slowest packet = 16194
Flit latency average = 19.5123
	minimum = 7
	maximum = 38
Slowest flit = 16194
Fragmentation average = 0
	minimum = 0
	maximum = 0
Injected packet rate average = 0.0197125
	minimum = 0.0166 (at node 6)
	maximum = 0.0248 (at node 3)
Accepted packet rate average = 0.0197375
	minimum = 0.0166 (at node 9)
	maximum = 0.0246 (at node 12)
Injected flit rate average = 0.0197125
	minimum = 0.0166 (at node 6)
	maximum = 0.0248 (at node 3)
Accepted flit rate average= 0.0197375
	minimum = 0.0166 (at node 9)
	maximum = 0.0246 (at node 12)
Injected packet length average = 1
Accepted packet length average = 1
Total in-flight flits = 4 (4 measured)
latency change    = 0.00120036
throughput change = 0.00379987
Draining all recorded packets ...
Draining remaining packets ...
Time taken is 8046 cycles
Class 0:
Packet latency average = 19.7465
	minimum = 7
	maximum = 38
Network latency average = 19.7465
	minimum = 7
	maximum = 38
Slowest packet = 17317
Flit latency average = 19.7465
	minimum = 7
	maximum = 38
Slowest flit = 17317
Fragmentation average = 0
	minimum = 0
	maximum = 0
Injected packet rate average = 0.018375
	minimum = 0.012 (at node 8)
	maximum = 0.027 (at node 12)
Accepted packet rate average = 0.018
	minimum = 0.011 (at node 2)
	maximum = 0.026 (at node 3)
Injected flit rate average = 0.018375
	minimum = 0.012 (at node 8)
	maximum = 0.027 (at node 12)
Accepted flit rate average= 0.018
	minimum = 0.011 (at node 2)
	maximum = 0.026 (at node 3)
Injected packet length average = 1
Accepted packet length average = 1
Total in-flight flits = 6 (0 measured)
latency change    = 1
throughput change = 1
Class 0:
Packet latency average = 20.0495
	minimum = 7
	maximum = 41
Network latency average = 20.0495
	minimum = 7
	maximum = 41
Slowest packet = 17692
Flit latency average = 20.0495
	minimum = 7
	maximum = 41
Slowest flit = 17692
Fragmentation average = 0
	minimum = 0
	maximum = 0
Injected packet rate average = 0.0190625
	minimum = 0.0155 (at node 15)
	maximum = 0.0245 (at node 12)
Accepted packet rate average = 0.0189375
	minimum = 0.0155 (at node 15)
	maximum = 0.0245 (at node 3)
Injected flit rate average = 0.0190625
	minimum = 0.0155 (at node 15)
	maximum = 0.0245 (at node 12)
Accepted flit rate average= 0.0189375
	minimum = 0.0155 (at node 15)
	maximum = 0.0245 (at node 3)
Injected packet length average = 1
Accepted packet length average = 1
Total in-flight flits = 4 (0 measured)
latency change    = 0.0151115
throughput change = 0.049505
Class 0:
Packet latency average = 19.945
	minimum = 7
	maximum = 37
Network latency average = 19.945
	minimum = 7
	maximum = 37
Slowest packet = 17906
Flit latency average = 19.945
	minimum = 7
	maximum = 37
Slowest flit = 17906
Fragmentation average = 0
	minimum = 0
	maximum = 0
Injected packet rate average = 0.01925
	minimum = 0.011 (at node 5)
	maximum = 0.025 (at node 11)
Accepted packet rate average = 0.0193125
	minimum = 0.011 (at node 5)
	maximum = 0.026 (at node 11)
Injected flit rate average = 0.01925
	minimum = 0.011 (at node 5)
	maximum = 0.025 (at node 11)
Accepted flit rate average= 0.0193125
	minimum = 0.011 (at node 5)
	maximum = 0.026 (at node 11)
Injected packet length average = 1
Accepted packet length average = 1
Total in-flight flits = 3 (0 measured)
latency change    = 0.00524047
throughput change = 0.0194175
Warmed up ...Time used is 3000 cycles
Class 0:
Packet latency average = 18.5102
	minimum = 7
	maximum = 43
Network latency average = 18.5102
	minimum = 7
	maximum = 43
Slowest packet = 18445
Flit latency average = 18.6127
	minimum = 7
	maximum = 43
Slowest flit = 18445
Fragmentation average = 0
	minimum = 0
	maximum = 0
Injected packet rate average = 0.0216875
	minimum = 0.015 (at node 3)
	maximum = 0.032 (at node 10)
Accepted packet rate average = 0.021625
	minimum = 0.015 (at node 12)
	maximum = 0.032 (at node 10)
Injected flit rate average = 0.0216875
	minimum = 0.015 (at node 3)
	maximum = 0.032 (at node 10)
Accepted flit rate average= 0.021625
	minimum = 0.015 (at node 12)
	maximum = 0.032 (at node 10)
Injected packet length average = 1
Accepted packet length average = 1
Total in-flight flits = 4 (4 measured)
latency change    = 0.0775129
throughput change = 0.106936
Class 0:
Packet latency average = 18.9427
	minimum = 7
	maximum = 43
Network latency average = 18.9427
	minimum = 7
	maximum = 43
Slowest packet = 18445
Flit latency average = 18.9954
	minimum = 7
	maximum = 43
Slowest flit = 18445
Fragmentation average = 0
	minimum = 0
	maximum = 0
Injected packet rate average = 0.0203438
	minimum = 0.016 (at node 13)
	maximum = 0.027 (at node 5)
Accepted packet rate average = 0.0202813
	minimum = 0.016 (at node 7)
	maximum = 0.027 (at node 5)
Injected flit rate average = 0.0203438
	minimum = 0.016 (at node 13)
	maximum = 0.027 (at node 5)
Accepted flit rate average= 0.0202813
	minimum = 0.016 (at node 7)
	maximum = 0.027 (at node 5)
Injected packet length average = 1
Accepted packet length average = 1
Total in-flight flits = 5 (5 measured)
latency change    = 0.0228331
throughput change = 0.0662558
Class 0:
Packet latency average = 19.0837
	minimum = 7
	maximum = 43
Network latency average = 19.0837
	minimum = 7
	maximum = 43
Slowest packet = 18445
Flit latency average = 19.1193
	minimum = 7
	maximum = 43
Slowest flit = 18445
Fragmentation average = 0
	minimum = 0
	maximum = 0
Injected packet rate average = 0.01975
	minimum = 0.016 (at node 13)
	maximum = 0.0253333 (at node 5)
Accepted packet rate average = 0.0197292
	minimum = 0.0156667 (at node 7)
	maximum = 0.0253333 (at node 5)
Injected flit rate average = 0.01975
	minimum = 0.016 (at node 13)
	maximum = 0.0253333 (at node 5)
Accepted flit rate average= 0.0197292
	minimum = 0.0156667 (at node 7)
	maximum = 0.0253333 (at node 5)
Injected packet length average = 1
Accepted packet length average = 1
Total in-flight flits = 4 (4 measured)
latency change    = 0.00738652
throughput change = 0.0279831
Class 0:
Packet latency average = 19.2154
	minimum = 7
	maximum = 43
Network latency average = 19.2154
	minimum = 7
	maximum = 43
Slowest packet = 18445
Flit latency average = 19.2419
	minimum = 7
	maximum = 43
Slowest flit = 18445
Fragmentation average = 0
	minimum = 0
	maximum = 0
Injected packet rate average = 0.0197188
	minimum = 0.01625 (at node 15)
	maximum = 0.02375 (at node 5)
Accepted packet rate average = 0.0197031
	minimum = 0.01625 (at node 15)
	maximum = 0.02375 (at node 5)
Injected flit rate average = 0.0197188
	minimum = 0.01625 (at node 15)
	maximum = 0.02375 (at node 5)
Accepted flit rate average= 0.0197031
	minimum = 0.01625 (at node 15)
	maximum = 0.02375 (at node 5)
Injected packet length average = 1
Accepted packet length average = 1
Total in-flight flits = 4 (4 measured)
latency change    = 0.00685568
throughput change = 0.0013217
Class 0:
Packet latency average = 19.244
	minimum = 7
	maximum = 43
Network latency average = 19.244
	minimum = 7
	maximum = 43
Slowest packet = 18445
Flit latency average = 19.2649
	minimum = 7
	maximum = 43
Slowest flit = 18445
Fragmentation average = 0
	minimum = 0
	maximum = 0
Injected packet rate average = 0.01995
	minimum = 0.0172 (at node 13)
	maximum = 0.0224 (at node 11)
Accepted packet rate average = 0.0198625
	minimum = 0.0168 (at node 7)
	maximum = 0.0222 (at node 14)
Injected flit rate average = 0.01995
	minimum = 0.0172 (at node 13)
	maximum = 0.0224 (at node 11)
Accepted flit rate average= 0.0198625
	minimum = 0.0168 (at node 7)
	maximum = 0.0222 (at node 14)
Injected packet length average = 1
Accepted packet length average = 1
Total in-flight flits = 10 (10 measured)
latency change    = 0.00148559
throughput change = 0.00802391
Draining all recorded packets ...
Draining remaining packets ...
Time taken is 8056 cycles
Class 0:
Packet latency average = 18.4769
	minimum = 7
	maximum = 37
Network latency average = 18.4769
	minimum = 7
	maximum = 37
Slowest packet = 19830
Flit latency average = 18.4769
	minimum = 7
	maximum = 37
Slowest flit = 19830
Fragmentation average = 0
	minimum = 0
	maximum = 0
Injected packet rate average = 0.0208125
	minimum = 0.012 (at node 13)
	maximum = 0.03 (at node 5)
Accepted packet rate average = 0.0203125
	minimum = 0.012 (at node 7)
	maximum = 0.029 (at node 5)
Injected flit rate average = 0.0208125
	minimum = 0.012 (at node 13)
	maximum = 0.03 (at node 5)
Accepted flit rate average= 0.0203125
	minimum = 0.012 (at node 7)
	maximum = 0.029 (at node 5)
Injected packet length average = 1
Accepted packet length average = 1
Total in-flight flits = 8 (0 measured)
latency change    = 1
throughput change = 1
Class 0:
Packet latency average = 19.3565
	minimum = 7
	maximum = 38
Network latency average = 19.3565
	minimum = 7
	maximum = 38
Slowest packet = 20324
Flit latency average = 19.3565
	minimum = 7
	maximum = 38
Slowest flit = 20324
Fragmentation average = 0
	minimum = 0
	maximum = 0
Injected packet rate average = 0.0199375
	minimum = 0.0135 (at node 13)
	maximum = 0.024 (at node 5)
Accepted packet rate average = 0.0198125
	minimum = 0.0135 (at node 7)
	maximum = 0.024 (at node 5)
Injected flit rate average = 0.0199375
	minimum = 0.0135 (at node 13)
	maximum = 0.024 (at node 5)
Accepted flit rate average= 0.0198125
	minimum = 0.0135 (at node 7)
	maximum = 0.024 (at node 5)
Injected packet length average = 1
Accepted packet length average = 1
Total in-flight flits = 4 (0 measured)
latency change    = 0.0454393
throughput change = 0.0252366
Class 0:
Packet latency average = 18.6944
	minimum = 7
	maximum = 45
Network latency average = 18.6944
	minimum = 7
	maximum = 45
Slowest packet = 20547
Flit latency average = 18.6944
	minimum = 7
	maximum = 45
Slowest flit = 20547
Fragmentation average = 0
	minimum = 0
	maximum = 0
Injected packet rate average = 0.0204375
	minimum = 0.01 (at node 4)
	maximum = 0.031 (at node 5)
Accepted packet rate average = 0.02025
	minimum = 0.01 (at node 1)
	maximum = 0.031 (at node 5)
Injected flit rate average = 0.0204375
	minimum = 0.01 (at node 4)
	maximum = 0.031 (at node 5)
Accepted flit rate average= 0.02025
	minimum = 0.01 (at node 1)
	maximum = 0.031 (at node 5)
Injected packet length average = 1
Accepted packet length average = 1
Total in-flight flits = 7 (0 measured)
latency change    = 0.0354128
throughput change = 0.0216049
Warmed up ...Time used is 3000 cycles
Class 0:
Packet latency average = 18.8942
	minimum = 7
	maximum = 37
Network latency average = 18.8942
	minimum = 7
	maximum = 37
Slowest packet = 20796
Flit latency average = 19.1348
	minimum = 7
	maximum = 37
Slowest flit = 20789
Fragmentation average = 0
	minimum = 0
	maximum = 0
Injected packet rate average = 0.019875
	minimum = 0.011 (at node 11)
	maximum = 0.029 (at node 1)
Accepted packet rate average = 0.0199375
	minimum = 0.012 (at node 14)
	maximum = 0.029 (at node 4)
Injected flit rate average = 0.019875
	minimum = 0.011 (at node 11)
	maximum = 0.029 (at node 1)
Accepted flit rate average= 0.0199375
	minimum = 0.012 (at node 14)
	maximum = 0.029 (at node 4)
Injected packet length average = 1
Accepted packet length average = 1
Total in-flight flits = 6 (6 measured)
latency change    = 0.0105739
throughput change = 0.015674
Class 0:
Packet latency average = 19.3297
	minimum = 7
	maximum = 38
Network latency average = 19.3297
	minimum = 7
	maximum = 38
Slowest packet = 21381
Flit latency average = 19.4436
	minimum = 7
	maximum = 38
Slowest flit = 21381
Fragmentation average = 0
	minimum = 0
	maximum = 0
Injected packet rate average = 0.020375
	minimum = 0.017 (at node 15)
	maximum = 0.0275 (at node 1)
Accepted packet rate average = 0.0202188
	minimum = 0.017 (at node 2)
	maximum = 0.0275 (at node 4)
Injected flit rate average = 0.020375
	minimum = 0.017 (at node 15)
	maximum = 0.0275 (at node 1)
Accepted flit rate average= 0.0202188
	minimum = 0.017 (at node 2)
	maximum = 0.0275 (at node 4)
Injected packet length average = 1
Accepted packet length average = 1
Total in-flight flits = 12 (12 measured)
latency change    = 0.0225279
throughput change = 0.0139104
Class 0:
Packet latency average = 19.4319
	minimum = 7
	maximum = 38
Network latency average = 19.4319
	minimum = 7
	maximum = 38
Slowest packet = 21381
Flit latency average = 19.5084
	minimum = 7
	maximum = 38
Slowest flit = 21381
Fragmentation average = 0
	minimum = 0
	maximum = 0
Injected packet rate average = 0.0198125
	minimum = 0.0176667 (at node 15)
	maximum = 0.0223333 (at node 9)
Accepted packet rate average = 0.019875
	minimum = 0.0176667 (at node 15)
	maximum = 0.0223333 (at node 6)
Injected flit rate average = 0.0198125
	minimum = 0.0176667 (at node 15)
	maximum = 0.0223333 (at node 9)
Accepted flit rate average= 0.019875
	minimum = 0.0176667 (at node 15)
	maximum = 0.0223333 (at node 6)
Injected packet length average = 1
Accepted packet length average = 1
Total in-flight flits = 4 (4 measured)
latency change    = 0.00525953
throughput change = 0.0172956
Draining all recorded packets ...
Draining remaining packets ...
Time taken is 6050 cycles
Class 0:
Packet latency average = 20.1815
	minimum = 7
	maximum = 37
Network latency average = 20.1815
	minimum = 7
	maximum = 37
Slowest packet = 21759
Flit latency average = 20.1815
	minimum = 7
	maximum = 37
Slowest flit = 21759
Fragmentation average = 0
	minimum = 0
	maximum = 0
Injected packet rate average = 0.01975
	minimum = 0.015 (at node 8)
	maximum = 0.027 (at node 1)
Accepted packet rate average = 0.019625
	minimum = 0.015 (at node 2)
	maximum = 0.026 (at node 4)
Injected flit rate average = 0.01975
	minimum = 0.015 (at node 8)
	maximum = 0.027 (at node 1)
Accepted flit rate average= 0.019625
	minimum = 0.015 (at node 2)
	maximum = 0.026 (at node 4)
Injected packet length average = 1
Accepted packet length average = 1
Total in-flight flits = 2 (0 measured)
latency change    = 1
throughput change = 1
Class 0:
Packet latency average = 19.7055
	minimum = 7
	maximum = 38
Network latency average = 19.7055
	minimum = 7
	maximum = 38
Slowest packet = 22114
Flit latency average = 19.7055
	minimum = 7
	maximum = 38
Slowest flit = 22114
Fragmentation average = 0
	minimum = 0
	maximum = 0
Injected packet rate average = 0.0199375
	minimum = 0.015 (at node 8)
	maximum = 0.026 (at node 1)
Accepted packet rate average = 0.0198438
	minimum = 0.015 (at node 2)
	maximum = 0.026 (at node 4)
Injected flit rate average = 0.0199375
	minimum = 0.015 (at node 8)
	maximum = 0.026 (at node 1)
Accepted flit rate average= 0.0198438
	minimum = 0.015 (at node 2)
	maximum = 0.026 (at node 4)
Injected packet length average = 1
Accepted packet length average = 1
Total in-flight flits = 3 (0 measured)
latency change    = 0.0241565
throughput change = 0.0110236
Class 0:
Packet latency average = 19.1604
	minimum = 7
	maximum = 43
Network latency average = 19.1604
	minimum = 7
	maximum = 43
Slowest packet = 22424
Flit latency average = 19.1604
	minimum = 7
	maximum = 43
Slowest flit = 22424
Fragmentation average = 0
	minimum = 0
	maximum = 0
Injected packet rate average = 0.0205
	minimum = 0.015 (at node 9)
	maximum = 0.027 (at node 13)
Accepted packet rate average = 0.019875
	minimum = 0.015 (at node 3)
	maximum = 0.026 (at node 7)
Injected flit rate average = 0.0205
	minimum = 0.015 (at node 9)
	maximum = 0.027 (at node 13)
Accepted flit rate average= 0.019875
	minimum = 0.015 (at node 3)
	maximum = 0.026 (at node 7)
Injected packet length average = 1
Accepted packet length average = 1
Total in-flight flits = 13 (0 measured)
latency change    = 0.0284511
throughput change = 0.00157233
Warmed up ...Time used is 3000 cycles
Class 0:
Packet latency average = 20.1596
	minimum = 7
	maximum = 37
Network latency average = 20.1596
	minimum = 7
	maximum = 37
Slowest packet = 22729
Flit latency average = 20.2344
	minimum = 7
	maximum = 37
Slowest flit = 22729
Fragmentation average = 0
	minimum = 0
	maximum = 0
Injected packet rate average = 0.019875
	minimum = 0.011 (at node 6)
	maximum = 0.026 (at node 1)
Accepted packet rate average = 0.02
	minimum = 0.012 (at node 9)
	maximum = 0.028 (at node 13)
Injected flit rate average = 0.019875
	minimum = 0.011 (at node 6)
	maximum = 0.026 (at node 1)
Accepted flit rate average= 0.02
	minimum = 0.012 (at node 9)
	maximum = 0.028 (at node 13)
Injected packet length average = 1
Accepted packet length average = 1
Total in-flight flits = 11 (11 measured)
latency change    = 0.049566
throughput change = 0.00625
Class 0:
Packet latency average = 20.0126
	minimum = 7
	maximum = 46
Network latency average = 20.0126
	minimum = 7
	maximum = 46
Slowest packet = 23139
Flit latency average = 20.0526
	minimum = 7
	maximum = 46
Slowest flit = 23139
Fragmentation average = 0
	minimum = 0
	maximum = 0
Injected packet rate average = 0.0200313
	minimum = 0.015 (at node 15)
	maximum = 0.024 (at node 1)
Accepted packet rate average = 0.0202188
	minimum = 0.0155 (at node 15)
	maximum = 0.0245 (at node 1)
Injected flit rate average = 0.0200313
	minimum = 0.015 (at node 15)
	maximum = 0.024 (at node 1)
Accepted flit rate average= 0.0202188
	minimum = 0.0155 (at node 15)
	maximum = 0.0245 (at node 1)
Injected packet length average = 1
Accepted packet length average = 1
Total in-flight flits = 7 (7 measured)
latency change    = 0.00734491
throughput change = 0.0108192
Class 0:
Packet latency average = 19.9231
	minimum = 7
	maximum = 46
Network latency average = 19.9231
	minimum = 7
	maximum = 46
Slowest packet = 23139
Flit latency average = 19.9511
	minimum = 7
	maximum = 46
Slowest flit = 23139
Fragmentation average = 0
	minimum = 0
	maximum = 0
Injected packet rate average = 0.0199167
	minimum = 0.016 (at node 10)
	maximum = 0.0233333 (at node 4)
Accepted packet rate average = 0.0200417
	minimum = 0.0156667 (at node 10)
	maximum = 0.0243333 (at node 13)
Injected flit rate average = 0.0199167
	minimum = 0.016 (at node 10)
	maximum = 0.0233333 (at node 4)
Accepted flit rate average= 0.0200417
	minimum = 0.0156667 (at node 10)
	maximum = 0.0243333 (at node 13)
Injected packet length average = 1
Accepted packet length average = 1
Total in-flight flits = 7 (7 measured)
latency change    = 0.00449435
throughput change = 0.00883576
Draining all recorded packets ...
Draining remaining packets ...
Time taken is 6059 cycles
Class 0:
Packet latency average = 19.4455
	minimum = 7
	maximum = 37
Network latency average = 19.4455
	minimum = 7
	maximum = 37
Slowest packet = 23685
Flit latency average = 19.4455
	minimum = 7
	maximum = 37
Slowest flit = 23685
Fragmentation average = 0
	minimum = 0
	maximum = 0
Injected packet rate average = 0.0203125
	minimum = 0.012 (at node 15)
	maximum = 0.031 (at node 0)
Accepted packet rate average = 0.0200625
	minimum = 0.011 (at node 15)
	maximum = 0.03 (at node 0)
Injected flit rate average = 0.0203125
	minimum = 0.012 (at node 15)
	maximum = 0.031 (at node 0)
Accepted flit rate average= 0.0200625
	minimum = 0.011 (at node 15)
	maximum = 0.03 (at node 0)
Injected packet length average = 1
Accepted packet length average = 1
Total in-flight flits = 4 (0 measured)
latency change    = 1
throughput change = 1
Class 0:
Packet latency average = 19.2846
	minimum = 7
	maximum = 37
Network latency average = 19.2846
	minimum = 7
	maximum = 37
Slowest packet = 23685
Flit latency average = 19.2846
	minimum = 7
	maximum = 37
Slowest flit = 23685
Fragmentation average = 0
	minimum = 0
	maximum = 0
Injected packet rate average = 0.0193125
	minimum = 0.016 (at node 15)
	maximum = 0.0245 (at node 0)
Accepted packet rate average = 0.0192187
	minimum = 0.0155 (at node 12)
	maximum = 0.0245 (at node 0)
Injected flit rate average = 0.0193125
	minimum = 0.016 (at node 15)
	maximum = 0.0245 (at node 0)
Accepted flit rate average= 0.0192187
	minimum = 0.0155 (at node 12)
	maximum = 0.0245 (at node 0)
Injected packet length average = 1
Accepted packet length average = 1
Total in-flight flits = 3 (0 measured)
latency change    = 0.00834502
throughput change = 0.0439024
Class 0:
Packet latency average = 18.7577
	minimum = 7
	maximum = 41
Network latency average = 18.7577
	minimum = 7
	maximum = 41
Slowest packet = 24370
Flit latency average = 18.7577
	minimum = 7
	maximum = 41
Slowest flit = 24370
Fragmentation average = 0
	minimum = 0
	maximum = 0
Injected packet rate average = 0.018625
	minimum = 0.011 (at node 3)
	maximum = 0.027 (at node 14)
Accepted packet rate average = 0.0183125
	minimum = 0.012 (at node 3)
	maximum = 0.026 (at node 11)
Injected flit rate average = 0.018625
	minimum = 0.011 (at node 3)
	maximum = 0.027 (at node 14)
Accepted flit rate average= 0.0183125
	minimum = 0.012 (at node 3)
	maximum = 0.026 (at node 11)
Injected packet length average = 1
Accepted packet length average = 1
Total in-flight flits = 8 (0 measured)
latency change    = 0.0280884
throughput change = 0.0494881
Warmed up ...Time used is 3000 cycles
Class 0:
Packet latency average = 19.2878
	minimum = 7
	maximum = 38
Network latency average = 19.2878
	minimum = 7
	maximum = 38
Slowest packet = 24819
Flit latency average = 19.2348
	minimum = 7
	maximum = 38
Slowest flit = 24819
Fragmentation average = 0
	minimum = 0
	maximum = 0
Injected packet rate average = 0.02175
	minimum = 0.015 (at node 6)
	maximum = 0.029 (at node 5)
Accepted packet rate average = 0.0215625
	minimum = 0.015 (at node 9)
	maximum = 0.03 (at node 5)
Injected flit rate average = 0.02175
	minimum = 0.015 (at node 6)
	maximum = 0.029 (at node 5)
Accepted flit rate average= 0.0215625
	minimum = 0.015 (at node 9)
	maximum = 0.03 (at node 5)
Injected packet length average = 1
Accepted packet length average = 1
Total in-flight flits = 11 (11 measured)
latency change    = 0.0274865
throughput change = 0.150725
Class 0:
Packet latency average = 19.6059
	minimum = 7
	maximum = 38
Network latency average = 19.6059
	minimum = 7
	maximum = 38
Slowest packet = 24819
Flit latency average = 19.5738
	minimum = 7
	maximum = 38
Slowest flit = 24819
Fragmentation average = 0
	minimum = 0
	maximum = 0
Injected packet rate average = 0.0203125
	minimum = 0.015 (at node 9)
	maximum = 0.027 (at node 7)
Accepted packet rate average = 0.0203125
	minimum = 0.015 (at node 6)
	maximum = 0.027 (at node 13)
Injected flit rate average = 0.0203125
	minimum = 0.015 (at node 9)
	maximum = 0.027 (at node 7)
Accepted flit rate average= 0.0203125
	minimum = 0.015 (at node 6)
	maximum = 0.027 (at node 13)
Injected packet length average = 1
Accepted packet length average = 1
Total in-flight flits = 8 (8 measured)
latency change    = 0.0162239
throughput change = 0.0615385
Class 0:
Packet latency average = 19.5177
	minimum = 7
	maximum = 39
Network latency average = 19.5177
	minimum = 7
	maximum = 39
Slowest packet = 25387
Flit latency average = 19.4975
	minimum = 7
	maximum = 39
Slowest flit = 25387
Fragmentation average = 0
	minimum = 0
	maximum = 0
Injected packet rate average = 0.02075
	minimum = 0.0156667 (at node 15)
	maximum = 0.027 (at node 7)
Accepted packet rate average = 0.0208125
	minimum = 0.0156667 (at node 15)
	maximum = 0.0263333 (at node 13)
Injected flit rate average = 0.02075
	minimum = 0.0156667 (at node 15)
	maximum = 0.027 (at node 7)
Accepted flit rate average= 0.0208125
	minimum = 0.0156667 (at node 15)
	maximum = 0.0263333 (at node 13)
Injected packet length average = 1
Accepted packet length average = 1
Total in-flight flits = 5 (5 measured)
latency change    = 0.00452206
throughput change = 0.024024
Class 0:
Packet latency average = 19.4288
	minimum = 7
	maximum = 39
Network latency average = 19.4288
	minimum = 7
	maximum = 39
Slowest packet = 25387
Flit latency average = 19.4141
	minimum = 7
	maximum = 39
Slowest flit = 25387
Fragmentation average = 0
	minimum = 0
	maximum = 0
Injected packet rate average = 0.020625
	minimum = 0.01675 (at node 15)
	maximum = 0.02425 (at node 14)
Accepted packet rate average = 0.0206406
	minimum = 0.01675 (at node 15)
	maximum = 0.02425 (at node 11)
Injected flit rate average = 0.020625
	minimum = 0.01675 (at node 15)
	maximum = 0.02425 (at node 14)
Accepted flit rate average= 0.0206406
	minimum = 0.01675 (at node 15)
	maximum = 0.02425 (at node 11)
Injected packet length average = 1
Accepted packet length average = 1
Total in-flight flits = 7 (7 measured)
latency change    = 0.00457413
throughput change = 0.00832702
Class 0:
Packet latency average = 19.472
	minimum = 7
	maximum = 43
Network latency average = 19.472
	minimum = 7
	maximum = 43
Slowest packet = 26105
Flit latency average = 19.4599
	minimum = 7
	maximum = 43
Slowest flit = 26105
Fragmentation average = 0
	minimum = 0
	maximum = 0
Injected packet rate average = 0.02035
	minimum = 0.0172 (at node 2)
	maximum = 0.0236 (at node 10)
Accepted packet rate average = 0.0204125
	minimum = 0.0174 (at node 8)
	maximum = 0.0238 (at node 10)
Injected flit rate average = 0.02035
	minimum = 0.0172 (at node 2)
	maximum = 0.0236 (at node 10)
Accepted flit rate average= 0.0204125
	minimum = 0.0174 (at node 8)
	maximum = 0.0238 (at node 10)
Injected packet length average = 1
Accepted packet length average = 1
Total in-flight flits = 3 (3 measured)
latency change    = 0.00221913
throughput change = 0.0111758
Draining all recorded packets ...
Draining remaining packets ...
Time taken is 8052 cycles
Class 0:
Packet latency average = 19.3821
	minimum = 7
	maximum = 45
Network latency average = 19.3821
	minimum = 7
	maximum = 45
Slowest packet = 26499
Flit latency average = 19.3821
	minimum = 7
	maximum = 45
Slowest flit = 26499
Fragmentation average = 0
	minimum = 0
	maximum = 0
Injected packet rate average = 0.02125
	minimum = 0.017 (at node 0)
	maximum = 0.026 (at node 15)
Accepted packet rate average = 0.0209375
	minimum = 0.017 (at node 0)
	maximum = 0.026 (at node 15)
Injected flit rate average = 0.02125
	minimum = 0.017 (at node 0)
	maximum = 0.026 (at node 15)
Accepted flit rate average= 0.0209375
	minimum = 0.017 (at node 0)
	maximum = 0.026 (at node 15)
Injected packet length average = 1
Accepted packet length average = 1
Total in-flight flits = 5 (0 measured)
latency change    = 1
throughput change = 1
Class 0:
Packet latency average = 19.5152
	minimum = 7
	maximum = 45
Network latency average = 19.5152
	minimum = 7
	maximum = 45
Slowest packet = 26499
Flit latency average = 19.5152
	minimum = 7
	maximum = 45
Slowest flit = 26499
Fragmentation average = 0
	minimum = 0
	maximum = 0
Injected packet rate average = 0.0208125
	minimum = 0.016 (at node 14)
	maximum = 0.025 (at node 15)
Accepted packet rate average = 0.0205
	minimum = 0.016 (at node 9)
	maximum = 0.025 (at node 15)
Injected flit rate average = 0.0208125
	minimum = 0.016 (at node 14)
	maximum = 0.025 (at node 15)
Accepted flit rate average= 0.0205
	minimum = 0.016 (at node 9)
	maximum = 0.025 (at node 15)
Injected packet length average = 1
Accepted packet length average = 1
Total in-flight flits = 10 (0 measured)
latency change    = 0.00682309
throughput change = 0.0213415
Class 0:
Packet latency average = 20.0426
	minimum = 7
	maximum = 38
Network latency average = 20.0426
	minimum = 7
	maximum = 38
Slowest packet = 27205
Flit latency average = 20.0426
	minimum = 7
	maximum = 38
Slowest flit = 27205
Fragmentation average = 0
	minimum = 0
	maximum = 0
Injected packet rate average = 0.02025
	minimum = 0.013 (at node 15)
	maximum = 0.025 (at node 3)
Accepted packet rate average = 0.0205625
	minimum = 0.013 (at node 15)
	maximum = 0.026 (at node 6)
Injected flit rate average = 0.02025
	minimum = 0.013 (at node 15)
	maximum = 0.025 (at node 3)
Accepted flit rate average= 0.0205625
	minimum = 0.013 (at node 15)
	maximum = 0.026 (at node 6)
Injected packet length average = 1
Accepted packet length average = 1
Total in-flight flits = 5 (0 measured)
latency change    = 0.0263095
throughput change = 0.00303951
Warmed up ...Time used is 3000 cycles
Class 0:
Packet latency average = 19.9043
	minimum = 7
	maximum = 37
Network latency average = 19.9043
	minimum = 7
	maximum = 37
Slowest packet = 27230
Flit latency average = 20.1033
	minimum = 7
	maximum = 37
Slowest flit = 27215
Fragmentation average = 0
	minimum = 0
	maximum = 0
Injected packet rate average = 0.0208125
	minimum = 0.013 (at node 7)
	maximum = 0.028 (at node 3)
Accepted packet rate average = 0.0205625
	minimum = 0.015 (at node 13)
	maximum = 0.03 (at node 12)
Injected flit rate average = 0.0208125
	minimum = 0.013 (at node 7)
	maximum = 0.028 (at node 3)
Accepted flit rate average= 0.0205625
	minimum = 0.015 (at node 13)
	maximum = 0.03 (at node 12)
Injected packet length average = 1
Accepted packet length average = 1
Total in-flight flits = 9 (9 measured)
latency change    = 0.00694483
throughput change = 0
Class 0:
Packet latency average = 19.7341
	minimum = 7
	maximum = 38
Network latency average = 19.7341
	minimum = 7
	maximum = 38
Slowest packet = 27815
Flit latency average = 19.8364
	minimum = 7
	maximum = 38
Slowest flit = 27815
Fragmentation average = 0
	minimum = 0
	maximum = 0
Injected packet rate average = 0.0202188
	minimum = 0.015 (at node 7)
	maximum = 0.027 (at node 3)
Accepted packet rate average = 0.02025
	minimum = 0.016 (at node 13)
	maximum = 0.0275 (at node 12)
Injected flit rate average = 0.0202188
	minimum = 0.015 (at node 7)
	maximum = 0.027 (at node 3)
Accepted flit rate average= 0.02025
	minimum = 0.016 (at node 13)
	maximum = 0.0275 (at node 12)
Injected packet length average = 1
Accepted packet length average = 1
Total in-flight flits = 4 (4 measured)
latency change    = 0.00862782
throughput change = 0.0154321
Class 0:
Packet latency average = 19.7869
	minimum = 7
	maximum = 38
Network latency average = 19.7869
	minimum = 7
	maximum = 38
Slowest packet = 27815
Flit latency average = 19.8533
	minimum = 7
	maximum = 38
Slowest flit = 27815
Fragmentation average = 0
	minimum = 0
	maximum = 0
Injected packet rate average = 0.0207917
	minimum = 0.0153333 (at node 7)
	maximum = 0.0266667 (at node 3)
Accepted packet rate average = 0.0207292
	minimum = 0.0156667 (at node 13)
	maximum = 0.0276667 (at node 12)
Injected flit rate average = 0.0207917
	minimum = 0.0153333 (at node 7)
	maximum = 0.0266667 (at node 3)
Accepted flit rate average= 0.0207292
	minimum = 0.0156667 (at node 13)
	maximum = 0.0276667 (at node 12)
Injected packet length average = 1
Accepted packet length average = 1
Total in-flight flits = 8 (8 measured)
latency change    = 0.00266892
throughput change = 0.0231156
Draining all recorded packets ...
Draining remaining packets ...
Time taken is 6058 cycles
Class 0:
Packet latency average = 20.3204
	minimum = 7
	maximum = 46
Network latency average = 20.3204
	minimum = 7
	maximum = 46
Slowest packet = 28246
Flit latency average = 20.3204
	minimum = 7
	maximum = 46
Slowest flit = 28246
Fragmentation average = 0
	minimum = 0
	maximum = 0
Injected packet rate average = 0.018
	minimum = 0.013 (at node 10)
	maximum = 0.022 (at node 13)
Accepted packet rate average = 0.01775
	minimum = 0.013 (at node 10)
	maximum = 0.022 (at node 7)
Injected flit rate average = 0.018
	minimum = 0.013 (at node 10)
	maximum = 0.022 (at node 13)
Accepted flit rate average= 0.01775
	minimum = 0.013 (at node 10)
	maximum = 0.022 (at node 7)
Injected packet length average = 1
Accepted packet length average = 1
Total in-flight flits = 4 (0 measured)
latency change    = 1
throughput change = 1
Class 0:
Packet latency average = 19.7867
	minimum = 7
	maximum = 46
Network latency average = 19.7867
	minimum = 7
	maximum = 46
Slowest packet = 28246
Flit latency average = 19.7867
	minimum = 7
	maximum = 46
Slowest flit = 28246
Fragmentation average = 0
	minimum = 0
	maximum = 0
Injected packet rate average = 0.01775
	minimum = 0.0135 (at node 6)
	maximum = 0.022 (at node 2)
Accepted packet rate average = 0.0174375
	minimum = 0.0135 (at node 9)
	maximum = 0.021 (at node 1)
Injected flit rate average = 0.01775
	minimum = 0.0135 (at node 6)
	maximum = 0.022 (at node 2)
Accepted flit rate average= 0.0174375
	minimum = 0.0135 (at node 9)
	maximum = 0.021 (at node 1)
Injected packet length average = 1
Accepted packet length average = 1
Total in-flight flits = 10 (0 measured)
latency change    = 0.0269718
throughput change = 0.0179211
Class 0:
Packet latency average = 18.7302
	minimum = 7
	maximum = 38
Network latency average = 18.7302
	minimum = 7
	maximum = 38
Slowest packet = 29044
Flit latency average = 18.7302
	minimum = 7
	maximum = 38
Slowest flit = 29044
Fragmentation average = 0
	minimum = 0
	maximum = 0
Injected packet rate average = 0.0211875
	minimum = 0.014 (at node 7)
	maximum = 0.032 (at node 5)
Accepted packet rate average = 0.0213125
	minimum = 0.014 (at node 13)
	maximum = 0.032 (at node 5)
Injected flit rate average = 0.0211875
	minimum = 0.014 (at node 7)
	maximum = 0.032 (at node 5)
Accepted flit rate average= 0.0213125
	minimum = 0.014 (at node 13)
	maximum = 0.032 (at node 5)
Injected packet length average = 1
Accepted packet length average = 1
Total in-flight flits = 8 (0 measured)
latency change    = 0.056408
throughput change = 0.181818
Warmed up ...Time used is 3000 cycles
Class 0:
Packet latency average = 18.7508
	minimum = 7
	maximum = 37
Network latency average = 18.7508
	minimum = 7
	maximum = 37
Slowest packet = 29163
Flit latency average = 18.7382
	minimum = 7
	maximum = 37
Slowest flit = 29126
Fragmentation average = 0
	minimum = 0
	maximum = 0
Injected packet rate average = 0.0196875
	minimum = 0.007 (at node 13)
	maximum = 0.029 (at node 9)
Accepted packet rate average = 0.0198125
	minimum = 0.006 (at node 7)
	maximum = 0.029 (at node 6)
Injected flit rate average = 0.0196875
	minimum = 0.007 (at node 13)
	maximum = 0.029 (at node 9)
Accepted flit rate average= 0.0198125
	minimum = 0.006 (at node 7)
	maximum = 0.029 (at node 6)
[...]
Fragmentation average = 0
	minimum = 0
	maximum = 0
Injected packet rate average = 0.0201563
	minimum = 0.0155 (at node 8)
	maximum = 0.0275 (at node 12)
Accepted packet rate average = 0.0199063
	minimum = 0.0155 (at node 2)
	maximum = 0.027 (at node 3)
Injected flit rate average = 0.0201563
	minimum = 0.0155 (at node 8)
	maximum = 0.0275 (at node 12)
Accepted flit rate average= 0.0199063
	minimum = 0.0155 (at node 2)
	maximum = 0.027 (at node 3)
Injected packet length average = 1
Accepted packet length average = 1
Total in-flight flits = 8 (0 measured)
latency change    = 0.0272521
throughput change = 0.0706436
Class 0:
Packet latency average = 19.1698
	minimum = 7
	maximum = 37
Network latency average = 19.1698
	minimum = 7
	maximum = 37
Slowest packet = 217692
Flit latency average = 19.1698
	minimum = 7
	maximum = 37
Slowest flit = 217692
Fragmentation average = 0
	minimum = 0
	maximum = 0
Injected packet rate average = 0.019875
	minimum = 0.011 (at node 4)
	maximum = 0.029 (at node 0)
Accepted packet rate average = 0.019875
	minimum = 0.011 (at node 1)
	maximum = 0.029 (at node 0)
Injected flit rate average = 0.019875
	minimum = 0.011 (at node 4)
	maximum = 0.029 (at node 0)
Accepted flit rate average= 0.019875
	minimum = 0.011 (at node 1)
	maximum = 0.029 (at node 0)
Injected packet length average = 1
Accepted packet length average = 1
Total in-flight flits = 8 (0 measured)
latency change    = 0.0264373
throughput change = 0.00157233
Warmed up ...Time used is 3000 cycles
Class 0:
Packet latency average = 19.9514
	minimum = 7
	maximum = 47
Network latency average = 19.9514
	minimum = 7
	maximum = 47
Slowest packet = 218074
Flit latency average = 20.081
	minimum = 7
	maximum = 47
Slowest flit = 218074
Fragmentation average = 0
	minimum = 0
	maximum = 0
Injected packet rate average = 0.02225
	minimum = 0.014 (at node 11)
	maximum = 0.033 (at node 13)
Accepted packet rate average = 0.022375
	minimum = 0.013 (at node 14)
	maximum = 0.034 (at node 7)
Injected flit rate average = 0.02225
	minimum = 0.014 (at node 11)
	maximum = 0.033 (at node 13)
Accepted flit rate average= 0.022375
	minimum = 0.013 (at node 14)
	maximum = 0.034 (at node 7)
Injected packet length average = 1
Accepted packet length average = 1
Total in-flight flits = 6 (6 measured)
latency change    = 0.039176
throughput change = 0.111732
Class 0:
Packet latency average = 20.0045
	minimum = 7
	maximum = 47
Network latency average = 20.0045
	minimum = 7
	maximum = 47
Slowest packet = 218074
Flit latency average = 20.0734
	minimum = 7
	maximum = 47
Slowest flit = 218074
Fragmentation average = 0
	minimum = 0
	maximum = 0
Injected packet rate average = 0.0208125
	minimum = 0.0165 (at node 5)
	maximum = 0.0255 (at node 1)
Accepted packet rate average = 0.020875
	minimum = 0.0165 (at node 3)
	maximum = 0.0255 (at node 4)
Injected flit rate average = 0.0208125
	minimum = 0.0165 (at node 5)
	maximum = 0.0255 (at node 1)
Accepted flit rate average= 0.020875
	minimum = 0.0165 (at node 3)
	maximum = 0.0255 (at node 4)
Injected packet length average = 1
Accepted packet length average = 1
Total in-flight flits = 6 (6 measured)
latency change    = 0.00265524
throughput change = 0.0718563
Class 0:
Packet latency average = 19.7402
	minimum = 7
	maximum = 47
Network latency average = 19.7402
	minimum = 7
	maximum = 47
Slowest packet = 218074
Flit latency average = 19.7894
	minimum = 7
	maximum = 47
Slowest flit = 218074
Fragmentation average = 0
	minimum = 0
	maximum = 0
Injected packet rate average = 0.0203333
	minimum = 0.0163333 (at node 4)
	maximum = 0.0253333 (at node 13)
Accepted packet rate average = 0.020375
	minimum = 0.0163333 (at node 1)
	maximum = 0.026 (at node 7)
Injected flit rate average = 0.0203333
	minimum = 0.0163333 (at node 4)
	maximum = 0.0253333 (at node 13)
Accepted flit rate average= 0.020375
	minimum = 0.0163333 (at node 1)
	maximum = 0.026 (at node 7)
Injected packet length average = 1
Accepted packet length average = 1
Total in-flight flits = 6 (6 measured)
latency change    = 0.0133909
throughput change = 0.0245399
Class 0:
Packet latency average = 19.8953
	minimum = 7
	maximum = 47
Network latency average = 19.8953
	minimum = 7
	maximum = 47
Slowest packet = 218074
Flit latency average = 19.9314
	minimum = 7
	maximum = 47
Slowest flit = 218074
Fragmentation average = 0
	minimum = 0
	maximum = 0
Injected packet rate average = 0.0202969
	minimum = 0.017 (at node 15)
	maximum = 0.025 (at node 2)
Accepted packet rate average = 0.0202656
	minimum = 0.017 (at node 15)
	maximum = 0.02475 (at node 8)
Injected flit rate average = 0.0202969
	minimum = 0.017 (at node 15)
	maximum = 0.025 (at node 2)
Accepted flit rate average= 0.0202656
	minimum = 0.017 (at node 15)
	maximum = 0.02475 (at node 8)
Injected packet length average = 1
Accepted packet length average = 1
Total in-flight flits = 10 (10 measured)
latency change    = 0.00779389
throughput change = 0.00539707
Class 0:
Packet latency average = 19.7967
	minimum = 7
	maximum = 47
Network latency average = 19.7967
	minimum = 7
	maximum = 47
Slowest packet = 218074
Flit latency average = 19.8266
	minimum = 7
	maximum = 47
Slowest flit = 218074
Fragmentation average = 0
	minimum = 0
	maximum = 0
Injected packet rate average = 0.0198625
	minimum = 0.0164 (at node 11)
	maximum = 0.025 (at node 2)
Accepted packet rate average = 0.0199
	minimum = 0.0164 (at node 14)
	maximum = 0.0252 (at node 8)
Injected flit rate average = 0.0198625
	minimum = 0.0164 (at node 11)
	maximum = 0.025 (at node 2)
Accepted flit rate average= 0.0199
	minimum = 0.0164 (at node 14)
	maximum = 0.0252 (at node 8)
Injected packet length average = 1
Accepted packet length average = 1
Total in-flight flits = 5 (5 measured)
latency change    = 0.00497812
throughput change = 0.0183731
Draining all recorded packets ...
Draining remaining packets ...
Time taken is 8047 cycles
Class 0:
Packet latency average = 19.4184
	minimum = 7
	maximum = 46
Network latency average = 19.4184
	minimum = 7
	maximum = 46
Slowest packet = 219804
Flit latency average = 19.4184
	minimum = 7
	maximum = 46
Slowest flit = 219804
Fragmentation average = 0
	minimum = 0
	maximum = 0
Injected packet rate average = 0.018125
	minimum = 0.01 (at node 7)
	maximum = 0.027 (at node 1)
Accepted packet rate average = 0.017625
	minimum = 0.01 (at node 13)
	maximum = 0.027 (at node 4)
Injected flit rate average = 0.018125
	minimum = 0.01 (at node 7)
	maximum = 0.027 (at node 1)
Accepted flit rate average= 0.017625
	minimum = 0.01 (at node 13)
	maximum = 0.027 (at node 4)
Injected packet length average = 1
Accepted packet length average = 1
Total in-flight flits = 8 (0 measured)
latency change    = 1
throughput change = 1
Class 0:
Packet latency average = 19.3458
	minimum = 7
	maximum = 46
Network latency average = 19.3458
	minimum = 7
	maximum = 46
Slowest packet = 219804
Flit latency average = 19.3458
	minimum = 7
	maximum = 46
Slowest flit = 219804
Fragmentation average = 0
	minimum = 0
	maximum = 0
Injected packet rate average = 0.02025
	minimum = 0.015 (at node 12)
	maximum = 0.027 (at node 2)
Accepted packet rate average = 0.0200625
	minimum = 0.015 (at node 3)
	maximum = 0.027 (at node 8)
Injected flit rate average = 0.02025
	minimum = 0.015 (at node 12)
	maximum = 0.027 (at node 2)
Accepted flit rate average= 0.0200625
	minimum = 0.015 (at node 3)
	maximum = 0.027 (at node 8)
Injected packet length average = 1
Accepted packet length average = 1
Total in-flight flits = 6 (0 measured)
latency change    = 0.0037551
throughput change = 0.121495
Class 0:
Packet latency average = 19.7669
	minimum = 7
	maximum = 37
Network latency average = 19.7669
	minimum = 7
	maximum = 37
Slowest packet = 220275
Flit latency average = 19.7669
	minimum = 7
	maximum = 37
Slowest flit = 220275
Fragmentation average = 0
	minimum = 0
	maximum = 0
Injected packet rate average = 0.0205625
	minimum = 0.014 (at node 5)
	maximum = 0.029 (at node 9)
Accepted packet rate average = 0.020375
	minimum = 0.013 (at node 5)
	maximum = 0.029 (at node 6)
Injected flit rate average = 0.0205625
	minimum = 0.014 (at node 5)
	maximum = 0.029 (at node 9)
Accepted flit rate average= 0.020375
	minimum = 0.013 (at node 5)
	maximum = 0.029 (at node 6)
Injected packet length average = 1
Accepted packet length average = 1
Total in-flight flits = 9 (0 measured)
latency change    = 0.0213021
throughput change = 0.0153374
Warmed up ...Time used is 3000 cycles
Class 0:
Packet latency average = 19.1033
	minimum = 7
	maximum = 37
Network latency average = 19.1033
	minimum = 7
	maximum = 37
Slowest packet = 220598
Flit latency average = 19.301
	minimum = 7
	maximum = 37
Slowest flit = 220590
Fragmentation average = 0
	minimum = 0
	maximum = 0
Injected packet rate average = 0.0193125
	minimum = 0.01 (at node 13)
	maximum = 0.027 (at node 1)
Accepted packet rate average = 0.0193125
	minimum = 0.01 (at node 7)
	maximum = 0.028 (at node 4)
Injected flit rate average = 0.0193125
	minimum = 0.01 (at node 13)
	maximum = 0.027 (at node 1)
Accepted flit rate average= 0.0193125
	minimum = 0.01 (at node 7)
	maximum = 0.028 (at node 4)
Injected packet length average = 1
Accepted packet length average = 1
Total in-flight flits = 9 (9 measured)
latency change    = 0.0347341
throughput change = 0.0550162
Class 0:
Packet latency average = 19.3914
	minimum = 7
	maximum = 38
Network latency average = 19.3914
	minimum = 7
	maximum = 38
Slowest packet = 221154
Flit latency average = 19.4796
	minimum = 7
	maximum = 38
Slowest flit = 221154
Fragmentation average = 0
	minimum = 0
	maximum = 0
Injected packet rate average = 0.02075
	minimum = 0.0155 (at node 12)
	maximum = 0.027 (at node 7)
Accepted packet rate average = 0.0207188
	minimum = 0.0165 (at node 3)
	maximum = 0.027 (at node 13)
Injected flit rate average = 0.02075
	minimum = 0.0155 (at node 12)
	maximum = 0.027 (at node 7)
Accepted flit rate average= 0.0207188
	minimum = 0.0165 (at node 3)
	maximum = 0.027 (at node 13)
Injected packet length average = 1
Accepted packet length average = 1
Total in-flight flits = 10 (10 measured)
latency change    = 0.0148573
throughput change = 0.0678733
Class 0:
Packet latency average = 19.6101
	minimum = 7
	maximum = 43
Network latency average = 19.6101
	minimum = 7
	maximum = 43
Slowest packet = 221525
Flit latency average = 19.668
	minimum = 7
	maximum = 43
Slowest flit = 221525
Fragmentation average = 0
	minimum = 0
	maximum = 0
Injected packet rate average = 0.02025
	minimum = 0.0173333 (at node 0)
	maximum = 0.0243333 (at node 7)
Accepted packet rate average = 0.0203333
	minimum = 0.0173333 (at node 0)
	maximum = 0.0246667 (at node 13)
Injected flit rate average = 0.02025
	minimum = 0.0173333 (at node 0)
	maximum = 0.0243333 (at node 7)
Accepted flit rate average= 0.0203333
	minimum = 0.0173333 (at node 0)
	maximum = 0.0246667 (at node 13)
Injected packet length average = 1
Accepted packet length average = 1
Total in-flight flits = 5 (5 measured)
latency change    = 0.0111523
throughput change = 0.0189549
Class 0:
Packet latency average = 19.6108
	minimum = 7
	maximum = 43
Network latency average = 19.6108
	minimum = 7
	maximum = 43
Slowest packet = 221525
Flit latency average = 19.6539
	minimum = 7
	maximum = 43
Slowest flit = 221525
Fragmentation average = 0
	minimum = 0
	maximum = 0
Injected packet rate average = 0.0203594
	minimum = 0.01675 (at node 14)
	maximum = 0.025 (at node 11)
Accepted packet rate average = 0.0204531
	minimum = 0.01675 (at node 11)
	maximum = 0.025 (at node 14)
Injected flit rate average = 0.0203594
	minimum = 0.01675 (at node 14)
	maximum = 0.025 (at node 11)
Accepted flit rate average= 0.0204531
	minimum = 0.01675 (at node 11)
	maximum = 0.025 (at node 14)
Injected packet length average = 1
Accepted packet length average = 1
Total in-flight flits = 3 (3 measured)
latency change    = 3.23697e-05
throughput change = 0.00585689
Class 0:
Packet latency average = 19.4945
	minimum = 7
	maximum = 43
Network latency average = 19.4945
	minimum = 7
	maximum = 43
Slowest packet = 221525
Flit latency average = 19.5296
	minimum = 7
	maximum = 43
Slowest flit = 221525
Fragmentation average = 0
	minimum = 0
	maximum = 0
Injected packet rate average = 0.0205
	minimum = 0.0174 (at node 14)
	maximum = 0.025 (at node 11)
Accepted packet rate average = 0.0204875
	minimum = 0.0168 (at node 11)
	maximum = 0.025 (at node 14)
Injected flit rate average = 0.0205
	minimum = 0.0174 (at node 14)
	maximum = 0.025 (at node 11)
Accepted flit rate average= 0.0204875
	minimum = 0.0168 (at node 11)
	maximum = 0.025 (at node 14)
Injected packet length average = 1
Accepted packet length average = 1
Total in-flight flits = 10 (10 measured)
latency change    = 0.00596531
throughput change = 0.00167785
Draining all recorded packets ...
Draining remaining packets ...
Time taken is 8051 cycles
Class 0:
Packet latency average = 19.6059
	minimum = 7
	maximum = 45
Network latency average = 19.6059
	minimum = 7
	maximum = 45
Slowest packet = 222482
Flit latency average = 19.6059
	minimum = 7
	maximum = 45
Slowest flit = 222482
Fragmentation average = 0
	minimum = 0
	maximum = 0
Injected packet rate average = 0.019875
	minimum = 0.015 (at node 1)
	maximum = 0.025 (at node 14)
Accepted packet rate average = 0.0191875
	minimum = 0.014 (at node 4)
	maximum = 0.024 (at node 6)
Injected flit rate average = 0.019875
	minimum = 0.015 (at node 1)
	maximum = 0.025 (at node 14)
Accepted flit rate average= 0.0191875
	minimum = 0.014 (at node 4)
	maximum = 0.024 (at node 6)
Injected packet length average = 1
Accepted packet length average = 1
Total in-flight flits = 11 (0 measured)
latency change    = 1
throughput change = 1
Class 0:
Packet latency average = 19.5224
	minimum = 7
	maximum = 45
Network latency average = 19.5224
	minimum = 7
	maximum = 45
Slowest packet = 222482
Flit latency average = 19.5224
	minimum = 7
	maximum = 45
Slowest flit = 222482
Fragmentation average = 0
	minimum = 0
	maximum = 0
Injected packet rate average = 0.0197188
	minimum = 0.014 (at node 5)
	maximum = 0.025 (at node 4)
Accepted packet rate average = 0.0195625
	minimum = 0.014 (at node 5)
	maximum = 0.025 (at node 1)
Injected flit rate average = 0.0197188
	minimum = 0.014 (at node 5)
	maximum = 0.025 (at node 4)
Accepted flit rate average= 0.0195625
	minimum = 0.014 (at node 5)
	maximum = 0.025 (at node 1)
Injected packet length average = 1
Accepted packet length average = 1
Total in-flight flits = 5 (0 measured)
latency change    = 0.00427709
throughput change = 0.0191693
Class 0:
Packet latency average = 19.1307
	minimum = 7
	maximum = 38
Network latency average = 19.1307
	minimum = 7
	maximum = 38
Slowest packet = 222926
Flit latency average = 19.1307
	minimum = 7
	maximum = 38
Slowest flit = 222926
Fragmentation average = 0
	minimum = 0
	maximum = 0
Injected packet rate average = 0.019125
	minimum = 0.011 (at node 8)
	maximum = 0.028 (at node 13)
Accepted packet rate average = 0.019125
	minimum = 0.012 (at node 12)
	maximum = 0.028 (at node 7)
Injected flit rate average = 0.019125
	minimum = 0.011 (at node 8)
	maximum = 0.028 (at node 13)
Accepted flit rate average= 0.019125
	minimum = 0.012 (at node 12)
	maximum = 0.028 (at node 7)
Injected packet length average = 1
Accepted packet length average = 1
Total in-flight flits = 5 (0 measured)
latency change    = 0.0204721
throughput change = 0.0228758
Warmed up ...Time used is 3000 cycles
Class 0:
Packet latency average = 19.4627
	minimum = 7
	maximum = 37
Network latency average = 19.4627
	minimum = 7
	maximum = 37
Slowest packet = 223184
Flit latency average = 19.5441
	minimum = 7
	maximum = 37
Slowest flit = 223180
Fragmentation average = 0
	minimum = 0
	maximum = 0
Injected packet rate average = 0.0214375
	minimum = 0.017 (at node 6)
	maximum = 0.026 (at node 12)
Accepted packet rate average = 0.02125
	minimum = 0.018 (at node 2)
	maximum = 0.027 (at node 3)
Injected flit rate average = 0.0214375
	minimum = 0.017 (at node 6)
	maximum = 0.026 (at node 12)
Accepted flit rate average= 0.02125
	minimum = 0.018 (at node 2)
	maximum = 0.027 (at node 3)
Injected packet length average = 1
Accepted packet length average = 1
Total in-flight flits = 8 (8 measured)
latency change    = 0.0170566
throughput change = 0.1
Class 0:
Packet latency average = 19.5661
	minimum = 7
	maximum = 45
Network latency average = 19.5661
	minimum = 7
	maximum = 45
Slowest packet = 223722
Flit latency average = 19.6062
	minimum = 7
	maximum = 45
Slowest flit = 223722
Fragmentation average = 0
	minimum = 0
	maximum = 0
Injected packet rate average = 0.0211563
	minimum = 0.018 (at node 9)
	maximum = 0.024 (at node 11)
Accepted packet rate average = 0.0211875
	minimum = 0.0185 (at node 0)
	maximum = 0.024 (at node 14)
Injected flit rate average = 0.0211563
	minimum = 0.018 (at node 9)
	maximum = 0.024 (at node 11)
Accepted flit rate average= 0.0211875
	minimum = 0.0185 (at node 0)
	maximum = 0.024 (at node 14)
Injected packet length average = 1
Accepted packet length average = 1
Total in-flight flits = 4 (4 measured)
latency change    = 0.00528645
throughput change = 0.00294985
Class 0:
Packet latency average = 19.4392
	minimum = 7
	maximum = 45
Network latency average = 19.4392
	minimum = 7
	maximum = 45
Slowest packet = 223722
Flit latency average = 19.4675
	minimum = 7
	maximum = 45
Slowest flit = 223722
Fragmentation average = 0
	minimum = 0
	maximum = 0
Injected packet rate average = 0.0205208
	minimum = 0.0176667 (at node 8)
	maximum = 0.0243333 (at node 11)
Accepted packet rate average = 0.0205
	minimum = 0.0176667 (at node 2)
	maximum = 0.0243333 (at node 14)
Injected flit rate average = 0.0205208
	minimum = 0.0176667 (at node 8)
	maximum = 0.0243333 (at node 11)
Accepted flit rate average= 0.0205
	minimum = 0.0176667 (at node 2)
	maximum = 0.0243333 (at node 14)
Injected packet length average = 1
Accepted packet length average = 1
Total in-flight flits = 6 (6 measured)
latency change    = 0.00652794
throughput change = 0.0335366
Class 0:
Packet latency average = 19.5593
	minimum = 7
	maximum = 45
Network latency average = 19.5593
	minimum = 7
	maximum = 45
Slowest packet = 223722
Flit latency average = 19.5804
	minimum = 7
	maximum = 45
Slowest flit = 223722
Fragmentation average = 0
	minimum = 0
	maximum = 0
Injected packet rate average = 0.0201406
	minimum = 0.018 (at node 13)
	maximum = 0.02275 (at node 11)
Accepted packet rate average = 0.0201094
	minimum = 0.018 (at node 7)
	maximum = 0.02275 (at node 9)
Injected flit rate average = 0.0201406
	minimum = 0.018 (at node 13)
	maximum = 0.02275 (at node 11)
Accepted flit rate average= 0.0201094
	minimum = 0.018 (at node 7)
	maximum = 0.02275 (at node 9)
Injected packet length average = 1
Accepted packet length average = 1
Total in-flight flits = 7 (7 measured)
latency change    = 0.00613819
throughput change = 0.019425
Draining all recorded packets ...
Draining remaining packets ...
Time taken is 7051 cycles
====== Overall Traffic Statistics ======
====== Traffic class 0 ======
Packet latency average = 19.5226 (100 samples)
	minimum = 7 (100 samples)
	maximum = 42.35 (100 samples)
Network latency average = 19.5226 (100 samples)
	minimum = 7 (100 samples)
	maximum = 42.35 (100 samples)
Flit latency average = 19.551 (100 samples)
	minimum = 7 (100 samples)
	maximum = 42.41 (100 samples)
Fragmentation average = 0 (100 samples)
	minimum = 0 (100 samples)
	maximum = 0 (100 samples)
Injected packet rate average = 0.0200576 (100 samples)
	minimum = 0.0163 (100 samples)
	maximum = 0.0240843 (100 samples)
Accepted packet rate average = 0.020052 (100 samples)
	minimum = 0.0162868 (100 samples)
	maximum = 0.024118 (100 samples)
Injected flit rate average = 0.0200576 (100 samples)
	minimum = 0.0163 (100 samples)
	maximum = 0.0240843 (100 samples)
Accepted flit rate average = 0.020052 (100 samples)
	minimum = 0.0162868 (100 samples)
	maximum = 0.024118 (100 samples)
Injected packet size average = 1 (100 samples)
Accepted packet size average = 1 (100 samples)
Hops average = 3.49973 (100 samples)
Total run time 5.16429
