BEGIN Configuration File: /tmp/bs_1138183_822438.cfg
topology = mesh;
k = 4;
n = 2;
routing_function = min_adapt;
num_vcs = 4;
vc_buf_size = 4;
wait_for_tail_credit = 1;
vc_allocator = islip;
sw_allocator = islip;
alloc_iters = 1;
credit_delay = 2;
routing_delay = 1;
vc_alloc_delay = 1;
sw_alloc_delay = 1;
input_speedup = 2;
output_speedup = 1;
internal_speedup = 1.0;
traffic = transpose;
packet_size = 1;
sim_type = latency;
injection_rate = 0.02;
warmup_periods = 3;
sample_period = 1000;
sim_count = 100;
seed = 1;

END Configuration File: /tmp/bs_1138183_822438.cfg
Class 0:
Packet latency average = 19.2154
	minimum = 7
	maximum = 46
Network latency average = 19.2154
	minimum = 7
	maximum = 46
Slowest packet = 113
Flit latency average = 19.2154
	minimum = 7
	maximum = 46
Slowest flit = 113
Fragmentation average = 0
	minimum = 0
	maximum = 0
Injected packet rate average = 0.019875
	minimum = 0.012 (at node 8)
	maximum = 0.031 (at node 0)
Accepted packet rate average = 0.0194375
	minimum = 0.012 (at node 2)
	maximum = 0.031 (at node 0)
Injected flit rate average = 0.019875
	minimum = 0.012 (at node 8)
	maximum = 0.031 (at node 0)
Accepted flit rate average= 0.0194375
	minimum = 0.012 (at node 2)
	maximum = 0.031 (at node 0)
Injected packet length average = 1
Accepted packet length average = 1
Total in-flight flits = 7 (0 measured)
latency change    = 1
throughput change = 1
Class 0:
Packet latency average = 19.906
	minimum = 7
	maximum = 48
Network latency average = 19.906
	minimum = 7
	maximum = 48
Slowest packet = 551
Flit latency average = 19.906
	minimum = 7
	maximum = 48
Slowest flit = 551
Fragmentation average = 0
	minimum = 0
	maximum = 0
Injected packet rate average = 0.0201563
	minimum = 0.0155 (at node 2)
	maximum = 0.025 (at node 0)
Accepted packet rate average = 0.0199375
	minimum = 0.0155 (at node 8)
	maximum = 0.025 (at node 0)
Injected flit rate average = 0.0201563
	minimum = 0.0155 (at node 2)
	maximum = 0.025 (at node 0)
Accepted flit rate average= 0.0199375
	minimum = 0.0155 (at node 8)
	maximum = 0.025 (at node 0)
Injected packet length average = 1
Accepted packet length average = 1
Total in-flight flits = 7 (0 measured)
latency change    = 0.0346892
throughput change = 0.0250784
Class 0:
Packet latency average = 20.1646
	minimum = 7
	maximum = 51
Network latency average = 20.1646
	minimum = 7
	maximum = 51
Slowest packet = 860
Flit latency average = 20.1646
	minimum = 7
	maximum = 51
Slowest flit = 860
Fragmentation average = 0
	minimum = 0
	maximum = 0
Injected packet rate average = 0.0198125
	minimum = 0.01 (at node 0)
	maximum = 0.027 (at node 14)
Accepted packet rate average = 0.020125
	minimum = 0.01 (at node 0)
	maximum = 0.028 (at node 11)
Injected flit rate average = 0.0198125
	minimum = 0.01 (at node 0)
	maximum = 0.027 (at node 14)
Accepted flit rate average= 0.020125
	minimum = 0.01 (at node 0)
	maximum = 0.028 (at node 11)
Injected packet length average = 1
Accepted packet length average = 1
Total in-flight flits = 2 (0 measured)
latency change    = 0.0128264
throughput change = 0.00931677
Warmed up ...Time used is 3000 cycles
Class 0:
Packet latency average = 19.2404
	minimum = 7
	maximum = 47
Network latency average = 19.2404
	minimum = 7
	maximum = 47
Slowest packet = 1163
Flit latency average = 19.2898
	minimum = 7
	maximum = 47
Slowest flit = 1163
Fragmentation average = 0
	minimum = 0
	maximum = 0
Injected packet rate average = 0.0196875
	minimum = 0.015 (at node 0)
	maximum = 0.031 (at node 5)
Accepted packet rate average = 0.019625
	minimum = 0.015 (at node 0)
	maximum = 0.031 (at node 5)
Injected flit rate average = 0.0196875
	minimum = 0.015 (at node 0)
	maximum = 0.031 (at node 5)
Accepted flit rate average= 0.019625
	minimum = 0.015 (at node 0)
	maximum = 0.031 (at node 5)
Injected packet length average = 1
Accepted packet length average = 1
Total in-flight flits = 3 (3 measured)
latency change    = 0.048035
throughput change = 0.0254777
Class 0:
Packet latency average = 20.0454
	minimum = 7
	maximum = 48
Network latency average = 20.0454
	minimum = 7
	maximum = 48
Slowest packet = 1454
Flit latency average = 20.0671
	minimum = 7
	maximum = 48
Slowest flit = 1454
Fragmentation average = 0
	minimum = 0
	maximum = 0
Injected packet rate average = 0.0201875
	minimum = 0.0155 (at node 9)
	maximum = 0.025 (at node 5)
Accepted packet rate average = 0.0200313
	minimum = 0.0155 (at node 6)
	maximum = 0.025 (at node 5)
Injected flit rate average = 0.0201875
	minimum = 0.0155 (at node 9)
	maximum = 0.025 (at node 5)
Accepted flit rate average= 0.0200313
	minimum = 0.0155 (at node 6)
	maximum = 0.025 (at node 5)
Injected packet length average = 1
Accepted packet length average = 1
Total in-flight flits = 7 (7 measured)
latency change    = 0.0401588
throughput change = 0.0202808
Class 0:
Packet latency average = 19.974
	minimum = 7
	maximum = 48
Network latency average = 19.974
	minimum = 7
	maximum = 48
Slowest packet = 1454
Flit latency average = 19.9886
	minimum = 7
	maximum = 48
Slowest flit = 1454
Fragmentation average = 0
	minimum = 0
	maximum = 0
Injected packet rate average = 0.0203125
	minimum = 0.0176667 (at node 11)
	maximum = 0.0236667 (at node 3)
Accepted packet rate average = 0.0200833
	minimum = 0.0176667 (at node 14)
	maximum = 0.0233333 (at node 12)
Injected flit rate average = 0.0203125
	minimum = 0.0176667 (at node 11)
	maximum = 0.0236667 (at node 3)
Accepted flit rate average= 0.0200833
	minimum = 0.0176667 (at node 14)
	maximum = 0.0233333 (at node 12)
Injected packet length average = 1
Accepted packet length average = 1
Total in-flight flits = 13 (13 measured)
latency change    = 0.00357319
throughput change = 0.00259336
Draining all recorded packets ...
Draining remaining packets ...
Time taken is 6059 cycles
Class 0:
Packet latency average = 19.5258
	minimum = 7
	maximum = 48
Network latency average = 19.5258
	minimum = 7
	maximum = 48
Slowest packet = 2237
Flit latency average = 19.5258
	minimum = 7
	maximum = 48
Slowest flit = 2237
Fragmentation average = 0
	minimum = 0
	maximum = 0
Injected packet rate average = 0.0194375
	minimum = 0.012 (at node 14)
	maximum = 0.028 (at node 10)
Accepted packet rate average = 0.019375
	minimum = 0.012 (at node 11)
	maximum = 0.028 (at node 10)
Injected flit rate average = 0.0194375
	minimum = 0.012 (at node 14)
	maximum = 0.028 (at node 10)
Accepted flit rate average= 0.019375
	minimum = 0.012 (at node 11)
	maximum = 0.028 (at node 10)
Injected packet length average = 1
Accepted packet length average = 1
Total in-flight flits = 1 (0 measured)
latency change    = 1
throughput change = 1
Class 0:
Packet latency average = 19.4834
	minimum = 7
	maximum = 69
Network latency average = 19.4834
	minimum = 7
	maximum = 69
Slowest packet = 2437
Flit latency average = 19.4834
	minimum = 7
	maximum = 69
Slowest flit = 2437
Fragmentation average = 0
	minimum = 0
	maximum = 0
Injected packet rate average = 0.019875
	minimum = 0.016 (at node 3)
	maximum = 0.0255 (at node 10)
Accepted packet rate average = 0.0197188
	minimum = 0.016 (at node 12)
	maximum = 0.0255 (at node 10)
Injected flit rate average = 0.019875
	minimum = 0.016 (at node 3)
	maximum = 0.0255 (at node 10)
Accepted flit rate average= 0.0197188
	minimum = 0.016 (at node 12)
	maximum = 0.0255 (at node 10)
Injected packet length average = 1
Accepted packet length average = 1
Total in-flight flits = 5 (0 measured)
latency change    = 0.00217861
throughput change = 0.0174326
Class 0:
Packet latency average = 19.7803
	minimum = 7
	maximum = 49
Network latency average = 19.7803
	minimum = 7
	maximum = 49
Slowest packet = 2601
Flit latency average = 19.7803
	minimum = 7
	maximum = 49
Slowest flit = 2601
Fragmentation average = 0
	minimum = 0
	maximum = 0
Injected packet rate average = 0.0195625
	minimum = 0.016 (at node 14)
	maximum = 0.025 (at node 7)
Accepted packet rate average = 0.019625
	minimum = 0.016 (at node 11)
	maximum = 0.025 (at node 13)
Injected flit rate average = 0.0195625
	minimum = 0.016 (at node 14)
	maximum = 0.025 (at node 7)
Accepted flit rate average= 0.019625
	minimum = 0.016 (at node 11)
	maximum = 0.025 (at node 13)
Injected packet length average = 1
Accepted packet length average = 1
Total in-flight flits = 4 (0 measured)
latency change    = 0.0150097
throughput change = 0.00477707
Warmed up ...Time used is 3000 cycles
Class 0:
Packet latency average = 19.886
	minimum = 7
	maximum = 52
Network latency average = 19.886
	minimum = 7
	maximum = 52
Slowest packet = 3010
Flit latency average = 20.0096
	minimum = 7
	maximum = 52
Slowest flit = 3010
Fragmentation average = 0
	minimum = 0
	maximum = 0
Injected packet rate average = 0.0195
	minimum = 0.012 (at node 10)
	maximum = 0.026 (at node 1)
Accepted packet rate average = 0.0194375
	minimum = 0.012 (at node 10)
	maximum = 0.027 (at node 4)
Injected flit rate average = 0.0195
	minimum = 0.012 (at node 10)
	maximum = 0.026 (at node 1)
Accepted flit rate average= 0.0194375
	minimum = 0.012 (at node 10)
	maximum = 0.027 (at node 4)
Injected packet length average = 1
Accepted packet length average = 1
Total in-flight flits = 5 (5 measured)
latency change    = 0.00531725
throughput change = 0.0096463
Class 0:
Packet latency average = 19.8036
	minimum = 7
	maximum = 52
Network latency average = 19.8036
	minimum = 7
	maximum = 52
Slowest packet = 3010
Flit latency average = 19.8672
	minimum = 7
	maximum = 52
Slowest flit = 3010
Fragmentation average = 0
	minimum = 0
	maximum = 0
Injected packet rate average = 0.0191562
	minimum = 0.015 (at node 15)
	maximum = 0.0245 (at node 14)
Accepted packet rate average = 0.0190625
	minimum = 0.015 (at node 15)
	maximum = 0.0245 (at node 11)
Injected flit rate average = 0.0191562
	minimum = 0.015 (at node 15)
	maximum = 0.0245 (at node 14)
Accepted flit rate average= 0.0190625
	minimum = 0.015 (at node 15)
	maximum = 0.0245 (at node 11)
Injected packet length average = 1
Accepted packet length average = 1
Total in-flight flits = 7 (7 measured)
latency change    = 0.00415899
throughput change = 0.0196721
Class 0:
Packet latency average = 19.827
	minimum = 7
	maximum = 52
Network latency average = 19.827
	minimum = 7
	maximum = 52
Slowest packet = 3010
Flit latency average = 19.8702
	minimum = 7
	maximum = 52
Slowest flit = 3010
Fragmentation average = 0
	minimum = 0
	maximum = 0
Injected packet rate average = 0.0186875
	minimum = 0.0156667 (at node 10)
	maximum = 0.0253333 (at node 9)
Accepted packet rate average = 0.018625
	minimum = 0.0156667 (at node 10)
	maximum = 0.0253333 (at node 6)
Injected flit rate average = 0.0186875
	minimum = 0.0156667 (at node 10)
	maximum = 0.0253333 (at node 9)
Accepted flit rate average= 0.018625
	minimum = 0.0156667 (at node 10)
	maximum = 0.0253333 (at node 6)
Injected packet length average = 1
Accepted packet length average = 1
Total in-flight flits = 7 (7 measured)
latency change    = 0.00117698
throughput change = 0.0234899
Draining all recorded packets ...
Draining remaining packets ...
Time taken is 6053 cycles
Class 0:
Packet latency average = 20.1009
	minimum = 7
	maximum = 56
Network latency average = 20.1009
	minimum = 7
	maximum = 56
Slowest packet = 3928
Flit latency average = 20.1009
	minimum = 7
	maximum = 56
Slowest flit = 3928
Fragmentation average = 0
	minimum = 0
	maximum = 0
Injected packet rate average = 0.0203125
	minimum = 0.012 (at node 13)
	maximum = 0.026 (at node 12)
Accepted packet rate average = 0.0198125
	minimum = 0.01 (at node 7)
	maximum = 0.025 (at node 3)
Injected flit rate average = 0.0203125
	minimum = 0.012 (at node 13)
	maximum = 0.026 (at node 12)
Accepted flit rate average= 0.0198125
	minimum = 0.01 (at node 7)
	maximum = 0.025 (at node 3)
Injected packet length average = 1
Accepted packet length average = 1
Total in-flight flits = 8 (0 measured)
latency change    = 1
throughput change = 1
Class 0:
Packet latency average = 19.9362
	minimum = 7
	maximum = 56
Network latency average = 19.9362
	minimum = 7
	maximum = 56
Slowest packet = 3928
Flit latency average = 19.9362
	minimum = 7
	maximum = 56
Slowest flit = 3928
Fragmentation average = 0
	minimum = 0
	maximum = 0
Injected packet rate average = 0.0187187
	minimum = 0.016 (at node 2)
	maximum = 0.0225 (at node 12)
Accepted packet rate average = 0.018625
	minimum = 0.016 (at node 6)
	maximum = 0.0215 (at node 1)
Injected flit rate average = 0.0187187
	minimum = 0.016 (at node 2)
	maximum = 0.0225 (at node 12)
Accepted flit rate average= 0.018625
	minimum = 0.016 (at node 6)
	maximum = 0.0215 (at node 1)
Injected packet length average = 1
Accepted packet length average = 1
Total in-flight flits = 3 (0 measured)
latency change    = 0.00826158
throughput change = 0.0637584
Class 0:
Packet latency average = 19.6561
	minimum = 7
	maximum = 45
Network latency average = 19.6561
	minimum = 7
	maximum = 45
Slowest packet = 4592
Flit latency average = 19.6561
	minimum = 7
	maximum = 45
Slowest flit = 4592
Fragmentation average = 0
	minimum = 0
	maximum = 0
Injected packet rate average = 0.0196875
	minimum = 0.009 (at node 3)
	maximum = 0.027 (at node 12)
Accepted packet rate average = 0.019625
	minimum = 0.009 (at node 12)
	maximum = 0.029 (at node 3)
Injected flit rate average = 0.0196875
	minimum = 0.009 (at node 3)
	maximum = 0.027 (at node 12)
Accepted flit rate average= 0.019625
	minimum = 0.009 (at node 12)
	maximum = 0.029 (at node 3)
Injected packet length average = 1
Accepted packet length average = 1
Total in-flight flits = 4 (0 measured)
latency change    = 0.0142547
throughput change = 0.0509554
Warmed up ...Time used is 3000 cycles
Class 0:
Packet latency average = 20.3817
	minimum = 7
	maximum = 58
Network latency average = 20.3817
	minimum = 7
	maximum = 58
Slowest packet = 4778
Flit latency average = 20.3707
	minimum = 7
	maximum = 58
Slowest flit = 4778
Fragmentation average = 0
	minimum = 0
	maximum = 0
Injected packet rate average = 0.020125
	minimum = 0.015 (at node 9)
	maximum = 0.028 (at node 15)
Accepted packet rate average = 0.0200625
	minimum = 0.014 (at node 10)
	maximum = 0.028 (at node 15)
Injected flit rate average = 0.020125
	minimum = 0.015 (at node 9)
	maximum = 0.028 (at node 15)
Accepted flit rate average= 0.0200625
	minimum = 0.014 (at node 10)
	maximum = 0.028 (at node 15)
Injected packet length average = 1
Accepted packet length average = 1
Total in-flight flits = 5 (5 measured)
latency change    = 0.0356031
throughput change = 0.0218069
Class 0:
Packet latency average = 19.7516
	minimum = 7
	maximum = 58
Network latency average = 19.7516
	minimum = 7
	maximum = 58
Slowest packet = 4778
Flit latency average = 19.75
	minimum = 7
	maximum = 58
Slowest flit = 4778
Fragmentation average = 0
	minimum = 0
	maximum = 0
Injected packet rate average = 0.0197813
	minimum = 0.016 (at node 0)
	maximum = 0.028 (at node 15)
Accepted packet rate average = 0.01975
	minimum = 0.0155 (at node 0)
	maximum = 0.028 (at node 15)
Injected flit rate average = 0.0197813
	minimum = 0.016 (at node 0)
	maximum = 0.028 (at node 15)
Accepted flit rate average= 0.01975
	minimum = 0.0155 (at node 0)
	maximum = 0.028 (at node 15)
Injected packet length average = 1
Accepted packet length average = 1
Total in-flight flits = 5 (5 measured)
latency change    = 0.0319018
throughput change = 0.0158228
Class 0:
Packet latency average = 19.5952
	minimum = 7
	maximum = 58
Network latency average = 19.5952
	minimum = 7
	maximum = 58
Slowest packet = 4778
Flit latency average = 19.5948
	minimum = 7
	maximum = 58
Slowest flit = 4778
Fragmentation average = 0
	minimum = 0
	maximum = 0
Injected packet rate average = 0.0193542
	minimum = 0.015 (at node 11)
	maximum = 0.0253333 (at node 15)
Accepted packet rate average = 0.0193333
	minimum = 0.015 (at node 2)
	maximum = 0.0253333 (at node 15)
Injected flit rate average = 0.0193542
	minimum = 0.015 (at node 11)
	maximum = 0.0253333 (at node 15)
Accepted flit rate average= 0.0193333
	minimum = 0.015 (at node 2)
	maximum = 0.0253333 (at node 15)
Injected packet length average = 1
Accepted packet length average = 1
Total in-flight flits = 5 (5 measured)
latency change    = 0.0079792
throughput change = 0.0215517
Draining all recorded packets ...
Draining remaining packets ...
Time taken is 6045 cycles
Class 0:
Packet latency average = 19.8262
	minimum = 7
	maximum = 58
Network latency average = 19.8262
	minimum = 7
	maximum = 58
Slowest packet = 5884
Flit latency average = 19.8262
	minimum = 7
	maximum = 58
Slowest flit = 5884
Fragmentation average = 0
	minimum = 0
	maximum = 0
Injected packet rate average = 0.02075
	minimum = 0.015 (at node 2)
	maximum = 0.03 (at node 7)
Accepted packet rate average = 0.0205
	minimum = 0.015 (at node 8)
	maximum = 0.027 (at node 13)
Injected flit rate average = 0.02075
	minimum = 0.015 (at node 2)
	maximum = 0.03 (at node 7)
Accepted flit rate average= 0.0205
	minimum = 0.015 (at node 8)
	maximum = 0.027 (at node 13)
Injected packet length average = 1
Accepted packet length average = 1
Total in-flight flits = 4 (0 measured)
latency change    = 1
throughput change = 1
Class 0:
Packet latency average = 19.4146
	minimum = 7
	maximum = 58
Network latency average = 19.4146
	minimum = 7
	maximum = 58
Slowest packet = 5884
Flit latency average = 19.4146
	minimum = 7
	maximum = 58
Slowest flit = 5884
Fragmentation average = 0
	minimum = 0
	maximum = 0
Injected packet rate average = 0.0203438
	minimum = 0.0165 (at node 2)
	maximum = 0.026 (at node 7)
Accepted packet rate average = 0.020125
	minimum = 0.0155 (at node 12)
	maximum = 0.026 (at node 13)
Injected flit rate average = 0.0203438
	minimum = 0.0165 (at node 2)
	maximum = 0.026 (at node 7)
Accepted flit rate average= 0.020125
	minimum = 0.0155 (at node 12)
	maximum = 0.026 (at node 13)
Injected packet length average = 1
Accepted packet length average = 1
Total in-flight flits = 7 (0 measured)
latency change    = 0.0212017
throughput change = 0.0186335
Class 0:
Packet latency average = 19.8774
	minimum = 7
	maximum = 49
Network latency average = 19.8774
	minimum = 7
	maximum = 49
Slowest packet = 6499
Flit latency average = 19.8774
	minimum = 7
	maximum = 49
Slowest flit = 6499
Fragmentation average = 0
	minimum = 0
	maximum = 0
Injected packet rate average = 0.019375
	minimum = 0.014 (at node 6)
	maximum = 0.025 (at node 11)
Accepted packet rate average = 0.019375
	minimum = 0.014 (at node 9)
	maximum = 0.026 (at node 14)
Injected flit rate average = 0.019375
	minimum = 0.014 (at node 6)
	maximum = 0.025 (at node 11)
Accepted flit rate average= 0.019375
	minimum = 0.014 (at node 9)
	maximum = 0.026 (at node 14)
Injected packet length average = 1
Accepted packet length average = 1
Total in-flight flits = 7 (0 measured)
latency change    = 0.0232839
throughput change = 0.0387097
Warmed up ...Time used is 3000 cycles
Class 0:
Packet latency average = 20.247
	minimum = 7
	maximum = 47
Network latency average = 20.247
	minimum = 7
	maximum = 47
Slowest packet = 6773
Flit latency average = 20.3864
	minimum = 7
	maximum = 47
Slowest flit = 6773
Fragmentation average = 0
	minimum = 0
	maximum = 0
Injected packet rate average = 0.021125
	minimum = 0.014 (at node 14)
	maximum = 0.028 (at node 9)
Accepted packet rate average = 0.0211875
	minimum = 0.014 (at node 11)
	maximum = 0.028 (at node 6)
Injected flit rate average = 0.021125
	minimum = 0.014 (at node 14)
	maximum = 0.028 (at node 9)
Accepted flit rate average= 0.0211875
	minimum = 0.014 (at node 11)
	maximum = 0.028 (at node 6)
Injected packet length average = 1
Accepted packet length average = 1
Total in-flight flits = 6 (6 measured)
latency change    = 0.018253
throughput change = 0.0855457
Class 0:
Packet latency average = 20.1809
	minimum = 7
	maximum = 53
Network latency average = 20.1809
	minimum = 7
	maximum = 53
Slowest packet = 7153
Flit latency average = 20.2515
	minimum = 7
	maximum = 53
Slowest flit = 7153
Fragmentation average = 0
	minimum = 0
	maximum = 0
Injected packet rate average = 0.0210625
	minimum = 0.0135 (at node 14)
	maximum = 0.027 (at node 2)
Accepted packet rate average = 0.021125
	minimum = 0.0135 (at node 11)
	maximum = 0.027 (at node 8)
Injected flit rate average = 0.0210625
	minimum = 0.0135 (at node 14)
	maximum = 0.027 (at node 2)
Accepted flit rate average= 0.021125
	minimum = 0.0135 (at node 11)
	maximum = 0.027 (at node 8)
Injected packet length average = 1
Accepted packet length average = 1
Total in-flight flits = 5 (5 measured)
latency change    = 0.00327642
throughput change = 0.00295858
Class 0:
Packet latency average = 19.9921
	minimum = 7
	maximum = 53
Network latency average = 19.9921
	minimum = 7
	maximum = 53
Slowest packet = 7153
Flit latency average = 20.0404
	minimum = 7
	maximum = 53
Slowest flit = 7153
Fragmentation average = 0
	minimum = 0
	maximum = 0
Injected packet rate average = 0.0211667
	minimum = 0.016 (at node 14)
	maximum = 0.0273333 (at node 2)
Accepted packet rate average = 0.0211667
	minimum = 0.016 (at node 11)
	maximum = 0.0276667 (at node 8)
Injected flit rate average = 0.0211667
	minimum = 0.016 (at node 14)
	maximum = 0.0273333 (at node 2)
Accepted flit rate average= 0.0211667
	minimum = 0.016 (at node 11)
	maximum = 0.0276667 (at node 8)
Injected packet length average = 1
Accepted packet length average = 1
Total in-flight flits = 7 (7 measured)
latency change    = 0.00944352
throughput change = 0.0019685
Class 0:
Packet latency average = 19.6642
	minimum = 7
	maximum = 53
Network latency average = 19.6642
	minimum = 7
	maximum = 53
Slowest packet = 7153
Flit latency average = 19.702
	minimum = 7
	maximum = 53
Slowest flit = 7153
Fragmentation average = 0
	minimum = 0
	maximum = 0
Injected packet rate average = 0.0212031
	minimum = 0.01825 (at node 3)
	maximum = 0.0245 (at node 2)
Accepted packet rate average = 0.0212344
	minimum = 0.0185 (at node 11)
	maximum = 0.02475 (at node 8)
Injected flit rate average = 0.0212031
	minimum = 0.01825 (at node 3)
	maximum = 0.0245 (at node 2)
Accepted flit rate average= 0.0212344
	minimum = 0.0185 (at node 11)
	maximum = 0.02475 (at node 8)
Injected packet length average = 1
Accepted packet length average = 1
Total in-flight flits = 5 (5 measured)
latency change    = 0.0166735
throughput change = 0.00318862
Draining all recorded packets ...
Draining remaining packets ...
Time taken is 7042 cycles
Class 0:
Packet latency average = 19.0625
	minimum = 7
	maximum = 46
Network latency average = 19.0625
	minimum = 7
	maximum = 46
Slowest packet = 8019
Flit latency average = 19.0625
	minimum = 7
	maximum = 46
Slowest flit = 8019
Fragmentation average = 0
	minimum = 0
	maximum = 0
Injected packet rate average = 0.019375
	minimum = 0.011 (at node 12)
	maximum = 0.034 (at node 10)
Accepted packet rate average = 0.019
	minimum = 0.01 (at node 3)
	maximum = 0.034 (at node 10)
Injected flit rate average = 0.019375
	minimum = 0.011 (at node 12)
	maximum = 0.034 (at node 10)
Accepted flit rate average= 0.019
	minimum = 0.01 (at node 3)
	maximum = 0.034 (at node 10)
Injected packet length average = 1
Accepted packet length average = 1
Total in-flight flits = 6 (0 measured)
latency change    = 1
throughput change = 1
Class 0:
Packet latency average = 19.8493
	minimum = 7
	maximum = 47
Network latency average = 19.8493
	minimum = 7
	maximum = 47
Slowest packet = 8374
Flit latency average = 19.8493
	minimum = 7
	maximum = 47
Slowest flit = 8374
Fragmentation average = 0
	minimum = 0
	maximum = 0
Injected packet rate average = 0.0207188
	minimum = 0.014 (at node 12)
	maximum = 0.028 (at node 3)
Accepted packet rate average = 0.0205313
	minimum = 0.0135 (at node 3)
	maximum = 0.028 (at node 12)
Injected flit rate average = 0.0207188
	minimum = 0.014 (at node 12)
	maximum = 0.028 (at node 3)
Accepted flit rate average= 0.0205313
	minimum = 0.0135 (at node 3)
	maximum = 0.028 (at node 12)
Injected packet length average = 1
Accepted packet length average = 1
Total in-flight flits = 6 (0 measured)
latency change    = 0.0396394
throughput change = 0.0745814
Class 0:
Packet latency average = 20.0424
	minimum = 7
	maximum = 56
Network latency average = 20.0424
	minimum = 7
	maximum = 56
Slowest packet = 8755
Flit latency average = 20.0424
	minimum = 7
	maximum = 56
Slowest flit = 8755
Fragmentation average = 0
	minimum = 0
	maximum = 0
Injected packet rate average = 0.0205
	minimum = 0.016 (at node 1)
	maximum = 0.027 (at node 11)
Accepted packet rate average = 0.020625
	minimum = 0.015 (at node 9)
	maximum = 0.028 (at node 14)
Injected flit rate average = 0.0205
	minimum = 0.016 (at node 1)
	maximum = 0.027 (at node 11)
Accepted flit rate average= 0.020625
	minimum = 0.015 (at node 9)
	maximum = 0.028 (at node 14)
Injected packet length average = 1
Accepted packet length average = 1
Total in-flight flits = 4 (0 measured)
latency change    = 0.00963502
throughput change = 0.00454545
Warmed up ...Time used is 3000 cycles
Class 0:
Packet latency average = 19.7195
	minimum = 7
	maximum = 46
Network latency average = 19.7195
	minimum = 7
	maximum = 46
Slowest packet = 9132
Flit latency average = 19.7492
	minimum = 7
	maximum = 46
Slowest flit = 9132
Fragmentation average = 0
	minimum = 0
	maximum = 0
Injected packet rate average = 0.0193125
	minimum = 0.011 (at node 5)
	maximum = 0.028 (at node 14)
Accepted packet rate average = 0.0191875
	minimum = 0.011 (at node 5)
	maximum = 0.028 (at node 11)
Injected flit rate average = 0.0193125
	minimum = 0.011 (at node 5)
	maximum = 0.028 (at node 14)
Accepted flit rate average= 0.0191875
	minimum = 0.011 (at node 5)
	maximum = 0.028 (at node 11)
Injected packet length average = 1
Accepted packet length average = 1
Total in-flight flits = 6 (6 measured)
latency change    = 0.0163773
throughput change = 0.0749186
Class 0:
Packet latency average = 20.052
	minimum = 7
	maximum = 47
Network latency average = 20.052
	minimum = 7
	maximum = 47
Slowest packet = 9382
Flit latency average = 20.0638
	minimum = 7
	maximum = 47
Slowest flit = 9382
Fragmentation average = 0
	minimum = 0
	maximum = 0
Injected packet rate average = 0.0207188
	minimum = 0.0145 (at node 5)
	maximum = 0.0275 (at node 8)
Accepted packet rate average = 0.0205625
	minimum = 0.0145 (at node 5)
	maximum = 0.028 (at node 2)
Injected flit rate average = 0.0207188
	minimum = 0.0145 (at node 5)
	maximum = 0.0275 (at node 8)
Accepted flit rate average= 0.0205625
	minimum = 0.0145 (at node 5)
	maximum = 0.028 (at node 2)
Injected packet length average = 1
Accepted packet length average = 1
Total in-flight flits = 9 (9 measured)
latency change    = 0.0165827
throughput change = 0.0668693
Class 0:
Packet latency average = 20.0225
	minimum = 7
	maximum = 63
Network latency average = 20.0225
	minimum = 7
	maximum = 63
Slowest packet = 9657
Flit latency average = 20.0302
	minimum = 7
	maximum = 63
Slowest flit = 9657
Fragmentation average = 0
	minimum = 0
	maximum = 0
Injected packet rate average = 0.0213333
	minimum = 0.0166667 (at node 5)
	maximum = 0.0276667 (at node 8)
Accepted packet rate average = 0.021375
	minimum = 0.0166667 (at node 5)
	maximum = 0.0276667 (at node 2)
Injected flit rate average = 0.0213333
	minimum = 0.0166667 (at node 5)
	maximum = 0.0276667 (at node 8)
Accepted flit rate average= 0.021375
	minimum = 0.0166667 (at node 5)
	maximum = 0.0276667 (at node 2)
Injected packet length average = 1
Accepted packet length average = 1
Total in-flight flits = 2 (2 measured)
latency change    = 0.00147249
throughput change = 0.0380117
Class 0:
Packet latency average = 19.7962
	minimum = 7
	maximum = 63
Network latency average = 19.7962
	minimum = 7
	maximum = 63
Slowest packet = 9657
Flit latency average = 19.8028
	minimum = 7
	maximum = 63
Slowest flit = 9657
Fragmentation average = 0
	minimum = 0
	maximum = 0
Injected packet rate average = 0.0209219
	minimum = 0.01625 (at node 5)
	maximum = 0.02475 (at node 14)
Accepted packet rate average = 0.0208438
	minimum = 0.01625 (at node 5)
	maximum = 0.02475 (at node 2)
Injected flit rate average = 0.0209219
	minimum = 0.01625 (at node 5)
	maximum = 0.02475 (at node 14)
Accepted flit rate average= 0.0208438
	minimum = 0.01625 (at node 5)
	maximum = 0.02475 (at node 2)
Injected packet length average = 1
Accepted packet length average = 1
Total in-flight flits = 9 (9 measured)
latency change    = 0.0114297
throughput change = 0.0254873
Class 0:
Packet latency average = 19.91
	minimum = 7
	maximum = 63
Network latency average = 19.91
	minimum = 7
	maximum = 63
Slowest packet = 9657
Flit latency average = 19.9152
	minimum = 7
	maximum = 63
Slowest flit = 9657
Fragmentation average = 0
	minimum = 0
	maximum = 0
Injected packet rate average = 0.02035
	minimum = 0.016 (at node 5)
	maximum = 0.024 (at node 14)
Accepted packet rate average = 0.0203375
	minimum = 0.016 (at node 5)
	maximum = 0.024 (at node 11)
Injected flit rate average = 0.02035
	minimum = 0.016 (at node 5)
	maximum = 0.024 (at node 14)
Accepted flit rate average= 0.0203375
	minimum = 0.016 (at node 5)
	maximum = 0.024 (at node 11)
Injected packet length average = 1
Accepted packet length average = 1
Total in-flight flits = 5 (5 measured)
latency change    = 0.00571584
throughput change = 0.0248924
Draining all recorded packets ...
Draining remaining packets ...
Time taken is 8065 cycles
Class 0:
Packet latency average = 19.7872
	minimum = 7
	maximum = 58
Network latency average = 19.7872
	minimum = 7
	maximum = 58
Slowest packet = 10696
Flit latency average = 19.7872
	minimum = 7
	maximum = 58
Slowest flit = 10696
Fragmentation average = 0
	minimum = 0
	maximum = 0
Injected packet rate average = 0.0215625
	minimum = 0.016 (at node 6)
	maximum = 0.03 (at node 1)
Accepted packet rate average = 0.0214375
	minimum = 0.016 (at node 7)
	maximum = 0.03 (at node 4)
Injected flit rate average = 0.0215625
	minimum = 0.016 (at node 6)
	maximum = 0.03 (at node 1)
Accepted flit rate average= 0.0214375
	minimum = 0.016 (at node 7)
	maximum = 0.03 (at node 4)
Injected packet length average = 1
Accepted packet length average = 1
Total in-flight flits = 2 (0 measured)
latency change    = 1
throughput change = 1
Class 0:
Packet latency average = 19.8848
	minimum = 7
	maximum = 58
Network latency average = 19.8848
	minimum = 7
	maximum = 58
Slowest packet = 10696
Flit latency average = 19.8848
	minimum = 7
	maximum = 58
Slowest flit = 10696
Fragmentation average = 0
	minimum = 0
	maximum = 0
Injected packet rate average = 0.020625
	minimum = 0.016 (at node 6)
	maximum = 0.0245 (at node 5)
Accepted packet rate average = 0.0203438
	minimum = 0.016 (at node 9)
	maximum = 0.0245 (at node 5)
Injected flit rate average = 0.020625
	minimum = 0.016 (at node 6)
	maximum = 0.0245 (at node 5)
Accepted flit rate average= 0.0203438
	minimum = 0.016 (at node 9)
	maximum = 0.0245 (at node 5)
Injected packet length average = 1
Accepted packet length average = 1
Total in-flight flits = 9 (0 measured)
latency change    = 0.00490931
throughput change = 0.0537634
Class 0:
Packet latency average = 20.0926
	minimum = 7
	maximum = 47
Network latency average = 20.0926
	minimum = 7
	maximum = 47
Slowest packet = 11316
Flit latency average = 20.0926
	minimum = 7
	maximum = 47
Slowest flit = 11316
Fragmentation average = 0
	minimum = 0
	maximum = 0
Injected packet rate average = 0.02025
	minimum = 0.012 (at node 11)
	maximum = 0.032 (at node 8)
Accepted packet rate average = 0.02025
	minimum = 0.012 (at node 14)
	maximum = 0.031 (at node 2)
Injected flit rate average = 0.02025
	minimum = 0.012 (at node 11)
	maximum = 0.032 (at node 8)
Accepted flit rate average= 0.02025
	minimum = 0.012 (at node 14)
	maximum = 0.031 (at node 2)
Injected packet length average = 1
Accepted packet length average = 1
Total in-flight flits = 9 (0 measured)
latency change    = 0.0103421
throughput change = 0.00462963
Warmed up ...Time used is 3000 cycles
Class 0:
Packet latency average = 18.2026
	minimum = 7
	maximum = 47
Network latency average = 18.2026
	minimum = 7
	maximum = 47
Slowest packet = 11596
Flit latency average = 18.6469
	minimum = 7
	maximum = 47
Slowest flit = 11596
Fragmentation average = 0
	minimum = 0
	maximum = 0
Injected packet rate average = 0.0196875
	minimum = 0.011 (at node 12)
	maximum = 0.027 (at node 0)
Accepted packet rate average = 0.02
	minimum = 0.013 (at node 3)
	maximum = 0.027 (at node 0)
Injected flit rate average = 0.0196875
	minimum = 0.011 (at node 12)
	maximum = 0.027 (at node 0)
Accepted flit rate average= 0.02
	minimum = 0.013 (at node 3)
	maximum = 0.027 (at node 0)
Injected packet length average = 1
Accepted packet length average = 1
Total in-flight flits = 4 (4 measured)
latency change    = 0.103833
throughput change = 0.0125
Class 0:
Packet latency average = 18.8366
	minimum = 7
	maximum = 51
Network latency average = 18.8366
	minimum = 7
	maximum = 51
Slowest packet = 12047
Flit latency average = 19.0585
	minimum = 7
	maximum = 51
Slowest flit = 12047
Fragmentation average = 0
	minimum = 0
	maximum = 0
Injected packet rate average = 0.019125
	minimum = 0.015 (at node 2)
	maximum = 0.0255 (at node 10)
Accepted packet rate average = 0.0192187
	minimum = 0.016 (at node 1)
	maximum = 0.0255 (at node 10)
Injected flit rate average = 0.019125
	minimum = 0.015 (at node 2)
	maximum = 0.0255 (at node 10)
Accepted flit rate average= 0.0192187
	minimum = 0.016 (at node 1)
	maximum = 0.0255 (at node 10)
Injected packet length average = 1
Accepted packet length average = 1
Total in-flight flits = 6 (6 measured)
latency change    = 0.0336611
throughput change = 0.0406504
Class 0:
Packet latency average = 18.91
	minimum = 7
	maximum = 51
Network latency average = 18.91
	minimum = 7
	maximum = 51
Slowest packet = 12047
Flit latency average = 19.0541
	minimum = 7
	maximum = 51
Slowest flit = 12047
Fragmentation average = 0
	minimum = 0
	maximum = 0
Injected packet rate average = 0.0195417
	minimum = 0.0143333 (at node 2)
	maximum = 0.0236667 (at node 11)
Accepted packet rate average = 0.019625
	minimum = 0.0153333 (at node 3)
	maximum = 0.0236667 (at node 14)
Injected flit rate average = 0.0195417
	minimum = 0.0143333 (at node 2)
	maximum = 0.0236667 (at node 11)
Accepted flit rate average= 0.019625
	minimum = 0.0153333 (at node 3)
	maximum = 0.0236667 (at node 14)
Injected packet length average = 1
Accepted packet length average = 1
Total in-flight flits = 5 (5 measured)
latency change    = 0.00387807
throughput change = 0.0207006
Class 0:
Packet latency average = 19.0747
	minimum = 7
	maximum = 51
Network latency average = 19.0747
	minimum = 7
	maximum = 51
Slowest packet = 12047
Flit latency average = 19.1831
	minimum = 7
	maximum = 51
Slowest flit = 12047
Fragmentation average = 0
	minimum = 0
	maximum = 0
Injected packet rate average = 0.0193125
	minimum = 0.01575 (at node 2)
	maximum = 0.02375 (at node 0)
Accepted packet rate average = 0.019375
	minimum = 0.01625 (at node 3)
	maximum = 0.02375 (at node 0)
Injected flit rate average = 0.0193125
	minimum = 0.01575 (at node 2)
	maximum = 0.02375 (at node 0)
Accepted flit rate average= 0.019375
	minimum = 0.01625 (at node 3)
	maximum = 0.02375 (at node 0)
Injected packet length average = 1
Accepted packet length average = 1
Total in-flight flits = 5 (5 measured)
latency change    = 0.00863803
throughput change = 0.0129032
Draining all recorded packets ...
Draining remaining packets ...
Time taken is 7019 cycles
Class 0:
Packet latency average = 20.1833
	minimum = 7
	maximum = 46
Network latency average = 20.1833
	minimum = 7
	maximum = 46
Slowest packet = 13070
Flit latency average = 20.1833
	minimum = 7
	maximum = 46
Slowest flit = 13070
Fragmentation average = 0
	minimum = 0
	maximum = 0
Injected packet rate average = 0.019875
	minimum = 0.012 (at node 7)
	maximum = 0.027 (at node 2)
Accepted packet rate average = 0.0194375
	minimum = 0.012 (at node 3)
	maximum = 0.026 (at node 8)
Injected flit rate average = 0.019875
	minimum = 0.012 (at node 7)
	maximum = 0.027 (at node 2)
Accepted flit rate average= 0.0194375
	minimum = 0.012 (at node 3)
	maximum = 0.026 (at node 8)
Injected packet length average = 1
Accepted packet length average = 1
Total in-flight flits = 7 (0 measured)
latency change    = 1
throughput change = 1
Class 0:
Packet latency average = 19.8758
	minimum = 7
	maximum = 56
Network latency average = 19.8758
	minimum = 7
	maximum = 56
Slowest packet = 13223
Flit latency average = 19.8758
	minimum = 7
	maximum = 56
Slowest flit = 13223
Fragmentation average = 0
	minimum = 0
	maximum = 0
Injected packet rate average = 0.0201875
	minimum = 0.0135 (at node 7)
	maximum = 0.027 (at node 4)
Accepted packet rate average = 0.019875
	minimum = 0.013 (at node 13)
	maximum = 0.027 (at node 1)
Injected flit rate average = 0.0201875
	minimum = 0.0135 (at node 7)
	maximum = 0.027 (at node 4)
Accepted flit rate average= 0.019875
	minimum = 0.013 (at node 13)
	maximum = 0.027 (at node 1)
Injected packet length average = 1
Accepted packet length average = 1
Total in-flight flits = 10 (0 measured)
latency change    = 0.0154708
throughput change = 0.0220126
Class 0:
Packet latency average = 20.4391
	minimum = 7
	maximum = 47
Network latency average = 20.4391
	minimum = 7
	maximum = 47
Slowest packet = 13453
Flit latency average = 20.4391
	minimum = 7
	maximum = 47
Slowest flit = 13453
Fragmentation average = 0
	minimum = 0
	maximum = 0
Injected packet rate average = 0.0191875
	minimum = 0.012 (at node 0)
	maximum = 0.027 (at node 2)
Accepted packet rate average = 0.0195
	minimum = 0.013 (at node 0)
	maximum = 0.026 (at node 8)
Injected flit rate average = 0.0191875
	minimum = 0.012 (at node 0)
	maximum = 0.027 (at node 2)
Accepted flit rate average= 0.0195
	minimum = 0.013 (at node 0)
	maximum = 0.026 (at node 8)
Injected packet length average = 1
Accepted packet length average = 1
Total in-flight flits = 5 (0 measured)
latency change    = 0.0275607
throughput change = 0.0192308
Warmed up ...Time used is 3000 cycles
Class 0:
Packet latency average = 19.9147
	minimum = 7
	maximum = 48
Network latency average = 19.9147
	minimum = 7
	maximum = 48
Slowest packet = 14075
Flit latency average = 19.9536
	minimum = 7
	maximum = 48
Slowest flit = 14075
Fragmentation average = 0
	minimum = 0
	maximum = 0
Injected packet rate average = 0.02175
	minimum = 0.015 (at node 7)
	maximum = 0.028 (at node 8)
Accepted packet rate average = 0.0215625
	minimum = 0.015 (at node 13)
	maximum = 0.027 (at node 2)
Injected flit rate average = 0.02175
	minimum = 0.015 (at node 7)
	maximum = 0.028 (at node 8)
Accepted flit rate average= 0.0215625
	minimum = 0.015 (at node 13)
	maximum = 0.027 (at node 2)
Injected packet length average = 1
Accepted packet length average = 1
Total in-flight flits = 8 (8 measured)
latency change    = 0.0263321
throughput change = 0.0956522
Class 0:
Packet latency average = 19.7376
	minimum = 7
	maximum = 48
Network latency average = 19.7376
	minimum = 7
	maximum = 48
Slowest packet = 14075
Flit latency average = 19.759
	minimum = 7
	maximum = 48
Slowest flit = 14075
Fragmentation average = 0
	minimum = 0
	maximum = 0
Injected packet rate average = 0.0209375
	minimum = 0.017 (at node 13)
	maximum = 0.0265 (at node 3)
Accepted packet rate average = 0.020875
	minimum = 0.0165 (at node 7)
	maximum = 0.0255 (at node 12)
Injected flit rate average = 0.0209375
	minimum = 0.017 (at node 13)
	maximum = 0.0265 (at node 3)
Accepted flit rate average= 0.020875
	minimum = 0.0165 (at node 7)
	maximum = 0.0255 (at node 12)
Injected packet length average = 1
Accepted packet length average = 1
Total in-flight flits = 7 (7 measured)
latency change    = 0.00897524
throughput change = 0.0329341
Class 0:
Packet latency average = 20.1138
	minimum = 7
	maximum = 48
Network latency average = 20.1138
	minimum = 7
	maximum = 48
Slowest packet = 14075
Flit latency average = 20.1264
	minimum = 7
	maximum = 48
Slowest flit = 14075
Fragmentation average = 0
	minimum = 0
	maximum = 0
Injected packet rate average = 0.020625
	minimum = 0.0173333 (at node 5)
	maximum = 0.026 (at node 3)
Accepted packet rate average = 0.0206042
	minimum = 0.0173333 (at node 5)
	maximum = 0.026 (at node 12)
Injected flit rate average = 0.020625
	minimum = 0.0173333 (at node 5)
	maximum = 0.026 (at node 3)
Accepted flit rate average= 0.0206042
	minimum = 0.0173333 (at node 5)
	maximum = 0.026 (at node 12)
Injected packet length average = 1
Accepted packet length average = 1
Total in-flight flits = 6 (6 measured)
latency change    = 0.0187068
throughput change = 0.0131446
Class 0:
Packet latency average = 20.1513
	minimum = 7
	maximum = 48
Network latency average = 20.1513
	minimum = 7
	maximum = 48
Slowest packet = 14075
Flit latency average = 20.1608
	minimum = 7
	maximum = 48
Slowest flit = 14075
Fragmentation average = 0
	minimum = 0
	maximum = 0
Injected packet rate average = 0.0201563
	minimum = 0.01725 (at node 5)
	maximum = 0.02525 (at node 3)
Accepted packet rate average = 0.0201094
	minimum = 0.01725 (at node 5)
	maximum = 0.02475 (at node 12)
Injected flit rate average = 0.0201563
	minimum = 0.01725 (at node 5)
	maximum = 0.02525 (at node 3)
Accepted flit rate average= 0.0201094
	minimum = 0.01725 (at node 5)
	maximum = 0.02475 (at node 12)
Injected packet length average = 1
Accepted packet length average = 1
Total in-flight flits = 8 (8 measured)
latency change    = 0.00186116
throughput change = 0.024605
Draining all recorded packets ...
Draining remaining packets ...
Time taken is 7049 cycles
Class 0:
Packet latency average = 20.4051
	minimum = 7
	maximum = 46
Network latency average = 20.4051
	minimum = 7
	maximum = 46
Slowest packet = 15363
Flit latency average = 20.4051
	minimum = 7
	maximum = 46
Slowest flit = 15363
Fragmentation average = 0
	minimum = 0
	maximum = 0
Injected packet rate average = 0.0196875
	minimum = 0.012 (at node 6)
	maximum = 0.03 (at node 3)
Accepted packet rate average = 0.0194375
	minimum = 0.011 (at node 9)
	maximum = 0.029 (at node 12)
Injected flit rate average = 0.0196875
	minimum = 0.012 (at node 6)
	maximum = 0.03 (at node 3)
Accepted flit rate average= 0.0194375
	minimum = 0.011 (at node 9)
	maximum = 0.029 (at node 12)
Injected packet length average = 1
Accepted packet length average = 1
Total in-flight flits = 4 (0 measured)
latency change    = 1
throughput change = 1
Class 0:
Packet latency average = 19.901
	minimum = 7
	maximum = 46
Network latency average = 19.901
	minimum = 7
	maximum = 46
Slowest packet = 15363
Flit latency average = 19.901
	minimum = 7
	maximum = 46
Slowest flit = 15363
Fragmentation average = 0
	minimum = 0
	maximum = 0
Injected packet rate average = 0.01875
	minimum = 0.0165 (at node 1)
	maximum = 0.0235 (at node 0)
Accepted packet rate average = 0.018625
	minimum = 0.016 (at node 4)
	maximum = 0.0235 (at node 0)
Injected flit rate average = 0.01875
	minimum = 0.0165 (at node 1)
	maximum = 0.0235 (at node 0)
Accepted flit rate average= 0.018625
	minimum = 0.016 (at node 4)
	maximum = 0.0235 (at node 0)
Injected packet length average = 1
Accepted packet length average = 1
Total in-flight flits = 4 (0 measured)
latency change    = 0.0253323
throughput change = 0.0436242
Class 0:
Packet latency average = 20.0767
	minimum = 7
	maximum = 54
Network latency average = 20.0767
	minimum = 7
	maximum = 54
Slowest packet = 15706
Flit latency average = 20.0767
	minimum = 7
	maximum = 54
Slowest flit = 15706
Fragmentation average = 0
	minimum = 0
	maximum = 0
Injected packet rate average = 0.02125
	minimum = 0.014 (at node 14)
	maximum = 0.033 (at node 4)
Accepted packet rate average = 0.0211875
	minimum = 0.014 (at node 9)
	maximum = 0.033 (at node 1)
Injected flit rate average = 0.02125
	minimum = 0.014 (at node 14)
	maximum = 0.033 (at node 4)
Accepted flit rate average= 0.0211875
	minimum = 0.014 (at node 9)
	maximum = 0.033 (at node 1)
Injected packet length average = 1
Accepted packet length average = 1
Total in-flight flits = 5 (0 measured)
latency change    = 0.00875091
throughput change = 0.120944
Warmed up ...Time used is 3000 cycles
Class 0:
Packet latency average = 20.0061
	minimum = 7
	maximum = 62
Network latency average = 20.0061
	minimum = 7
	maximum = 62
Slowest packet = 16042
Flit latency average = 20.021
	minimum = 7
	maximum = 62
Slowest flit = 16042
Fragmentation average = 0
	minimum = 0
	maximum = 0
Injected packet rate average = 0.0209375
	minimum = 0.015 (at node 5)
	maximum = 0.028 (at node 11)
Accepted packet rate average = 0.0208125
	minimum = 0.014 (at node 5)
	maximum = 0.028 (at node 14)
Injected flit rate average = 0.0209375
	minimum = 0.015 (at node 5)
	maximum = 0.028 (at node 11)
Accepted flit rate average= 0.0208125
	minimum = 0.014 (at node 5)
	maximum = 0.028 (at node 14)
Injected packet length average = 1
Accepted packet length average = 1
Total in-flight flits = 7 (7 measured)
latency change    = 0.00352885
throughput change = 0.018018
Class 0:
Packet latency average = 19.6342
	minimum = 7
	maximum = 62
Network latency average = 19.6342
	minimum = 7
	maximum = 62
Slowest packet = 16042
Flit latency average = 19.6443
	minimum = 7
	maximum = 62
Slowest flit = 16042
Fragmentation average = 0
	minimum = 0
	maximum = 0
Injected packet rate average = 0.021125
	minimum = 0.015 (at node 12)
	maximum = 0.0255 (at node 6)
Accepted packet rate average = 0.021
	minimum = 0.013 (at node 3)
	maximum = 0.0255 (at node 9)
Injected flit rate average = 0.021125
	minimum = 0.015 (at node 12)
	maximum = 0.0255 (at node 6)
Accepted flit rate average= 0.021
	minimum = 0.013 (at node 3)
	maximum = 0.0255 (at node 9)
Injected packet length average = 1
Accepted packet length average = 1
Total in-flight flits = 9 (9 measured)
latency change    = 0.0189422
throughput change = 0.00892857
Class 0:
Packet latency average = 19.625
	minimum = 7
	maximum = 62
Network latency average = 19.625
	minimum = 7
	maximum = 62
Slowest packet = 16042
Flit latency average = 19.632
	minimum = 7
	maximum = 62
Slowest flit = 16042
Fragmentation average = 0
	minimum = 0
	maximum = 0
Injected packet rate average = 0.0206458
	minimum = 0.0166667 (at node 11)
	maximum = 0.025 (at node 6)
Accepted packet rate average = 0.0206042
	minimum = 0.0166667 (at node 14)
	maximum = 0.0253333 (at node 9)
Injected flit rate average = 0.0206458
	minimum = 0.0166667 (at node 11)
	maximum = 0.025 (at node 6)
Accepted flit rate average= 0.0206042
	minimum = 0.0166667 (at node 14)
	maximum = 0.0253333 (at node 9)
Injected packet length average = 1
Accepted packet length average = 1
Total in-flight flits = 7 (7 measured)
latency change    = 0.000467919
throughput change = 0.0192113
Draining all recorded packets ...
Draining remaining packets ...
Time taken is 6064 cycles
Class 0:
Packet latency average = 20.1765
	minimum = 7
	maximum = 45
Network latency average = 20.1765
	minimum = 7
	maximum = 45
Slowest packet = 17036
Flit latency average = 20.1765
	minimum = 7
	maximum = 45
Slowest flit = 17036
Fragmentation average = 0
	minimum = 0
	maximum = 0
Injected packet rate average = 0.0193125
	minimum = 0.011 (at node 10)
	maximum = 0.029 (at node 12)
Accepted packet rate average = 0.019125
	minimum = 0.011 (at node 10)
	maximum = 0.029 (at node 3)
Injected flit rate average = 0.0193125
	minimum = 0.011 (at node 10)
	maximum = 0.029 (at node 12)
Accepted flit rate average= 0.019125
	minimum = 0.011 (at node 10)
	maximum = 0.029 (at node 3)
Injected packet length average = 1
Accepted packet length average = 1
Total in-flight flits = 3 (0 measured)
latency change    = 1
throughput change = 1
Class 0:
Packet latency average = 20.2211
	minimum = 7
	maximum = 46
Network latency average = 20.2211
	minimum = 7
	maximum = 46
Slowest packet = 17512
Flit latency average = 20.2211
	minimum = 7
	maximum = 46
Slowest flit = 17512
Fragmentation average = 0
	minimum = 0
	maximum = 0
Injected packet rate average = 0.019375
	minimum = 0.013 (at node 10)
	maximum = 0.024 (at node 13)
Accepted packet rate average = 0.0192187
	minimum = 0.013 (at node 10)
	maximum = 0.0235 (at node 3)
Injected flit rate average = 0.019375
	minimum = 0.013 (at node 10)
	maximum = 0.024 (at node 13)
Accepted flit rate average= 0.0192187
	minimum = 0.013 (at node 10)
	maximum = 0.0235 (at node 3)
Injected packet length average = 1
Accepted packet length average = 1
Total in-flight flits = 5 (0 measured)
latency change    = 0.00220896
throughput change = 0.00487805
Class 0:
Packet latency average = 20.9646
	minimum = 7
	maximum = 62
Network latency average = 20.9646
	minimum = 7
	maximum = 62
Slowest packet = 17920
Flit latency average = 20.9646
	minimum = 7
	maximum = 62
Slowest flit = 17920
Fragmentation average = 0
	minimum = 0
	maximum = 0
Injected packet rate average = 0.0211875
	minimum = 0.013 (at node 6)
	maximum = 0.031 (at node 13)
Accepted packet rate average = 0.0211875
	minimum = 0.013 (at node 9)
	maximum = 0.032 (at node 7)
Injected flit rate average = 0.0211875
	minimum = 0.013 (at node 6)
	maximum = 0.031 (at node 13)
Accepted flit rate average= 0.0211875
	minimum = 0.013 (at node 9)
	maximum = 0.032 (at node 7)
Injected packet length average = 1
Accepted packet length average = 1
Total in-flight flits = 5 (0 measured)
latency change    = 0.0354628
throughput change = 0.0929204
Warmed up ...Time used is 3000 cycles
Class 0:
Packet latency average = 19.4939
	minimum = 7
	maximum = 44
Network latency average = 19.4939
	minimum = 7
	maximum = 44
Slowest packet = 18007
Flit latency average = 19.6677
	minimum = 7
	maximum = 44
Slowest flit = 18007
Fragmentation average = 0
	minimum = 0
	maximum = 0
Injected packet rate average = 0.021125
	minimum = 0.015 (at node 14)
	maximum = 0.028 (at node 13)
Accepted packet rate average = 0.0206875
	minimum = 0.015 (at node 11)
	maximum = 0.026 (at node 9)
Injected flit rate average = 0.021125
	minimum = 0.015 (at node 14)
	maximum = 0.028 (at node 13)
Accepted flit rate average= 0.0206875
	minimum = 0.015 (at node 11)
	maximum = 0.026 (at node 9)
Injected packet length average = 1
Accepted packet length average = 1
Total in-flight flits = 12 (12 measured)
latency change    = 0.0754461
throughput change = 0.0241692
Class 0:
Packet latency average = 20.0063
	minimum = 7
	maximum = 55
Network latency average = 20.0063
	minimum = 7
	maximum = 55
Slowest packet = 18558
Flit latency average = 20.0919
	minimum = 7
	maximum = 55
Slowest flit = 18558
Fragmentation average = 0
	minimum = 0
	maximum = 0
Injected packet rate average = 0.0200313
	minimum = 0.016 (at node 14)
	maximum = 0.024 (at node 3)
Accepted packet rate average = 0.0200625
	minimum = 0.016 (at node 11)
	maximum = 0.0245 (at node 12)
Injected flit rate average = 0.0200313
	minimum = 0.016 (at node 14)
	maximum = 0.024 (at node 3)
Accepted flit rate average= 0.0200625
	minimum = 0.016 (at node 11)
	maximum = 0.0245 (at node 12)
Injected packet length average = 1
Accepted packet length average = 1
Total in-flight flits = 4 (4 measured)
latency change    = 0.0256127
throughput change = 0.0311526
Class 0:
Packet latency average = 20.1233
	minimum = 7
	maximum = 55
Network latency average = 20.1233
	minimum = 7
	maximum = 55
Slowest packet = 18558
Flit latency average = 20.1794
	minimum = 7
	maximum = 55
Slowest flit = 18558
Fragmentation average = 0
	minimum = 0
	maximum = 0
Injected packet rate average = 0.0203125
	minimum = 0.0163333 (at node 14)
	maximum = 0.0236667 (at node 7)
Accepted packet rate average = 0.0202083
	minimum = 0.016 (at node 11)
	maximum = 0.0233333 (at node 9)
Injected flit rate average = 0.0203125
	minimum = 0.0163333 (at node 14)
	maximum = 0.0236667 (at node 7)
Accepted flit rate average= 0.0202083
	minimum = 0.016 (at node 11)
	maximum = 0.0233333 (at node 9)
Injected packet length average = 1
Accepted packet length average = 1
Total in-flight flits = 10 (10 measured)
latency change    = 0.00581597
throughput change = 0.00721649
Class 0:
Packet latency average = 20.072
	minimum = 7
	maximum = 55
Network latency average = 20.072
	minimum = 7
	maximum = 55
Slowest packet = 18558
Flit latency average = 20.1155
	minimum = 7
	maximum = 55
Slowest flit = 18558
Fragmentation average = 0
	minimum = 0
	maximum = 0
Injected packet rate average = 0.0196719
	minimum = 0.0155 (at node 14)
	maximum = 0.0225 (at node 3)
Accepted packet rate average = 0.0196094
	minimum = 0.0155 (at node 11)
	maximum = 0.0225 (at node 12)
Injected flit rate average = 0.0196719
	minimum = 0.0155 (at node 14)
	maximum = 0.0225 (at node 3)
Accepted flit rate average= 0.0196094
	minimum = 0.0155 (at node 11)
	maximum = 0.0225 (at node 12)
Injected packet length average = 1
Accepted packet length average = 1
Total in-flight flits = 9 (9 measured)
latency change    = 0.0025566
throughput change = 0.0305445
Draining all recorded packets ...
Draining remaining packets ...
Time taken is 7062 cycles
Class 0:
Packet latency average = 19.8786
	minimum = 7
	maximum = 52
Network latency average = 19.8786
	minimum = 7
	maximum = 52
Slowest packet = 19301
Flit latency average = 19.8786
	minimum = 7
	maximum = 52
Slowest flit = 19301
Fragmentation average = 0
	minimum = 0
	maximum = 0
Injected packet rate average = 0.022
	minimum = 0.015 (at node 6)
	maximum = 0.029 (at node 4)
Accepted packet rate average = 0.021625
	minimum = 0.015 (at node 9)
	maximum = 0.029 (at node 1)
Injected flit rate average = 0.022
	minimum = 0.015 (at node 6)
	maximum = 0.029 (at node 4)
Accepted flit rate average= 0.021625
	minimum = 0.015 (at node 9)
	maximum = 0.029 (at node 1)
Injected packet length average = 1
Accepted packet length average = 1
Total in-flight flits = 6 (0 measured)
latency change    = 1
throughput change = 1
Class 0:
Packet latency average = 19.6547
	minimum = 7
	maximum = 52
Network latency average = 19.6547
	minimum = 7
	maximum = 52
Slowest packet = 19301
Flit latency average = 19.6547
	minimum = 7
	maximum = 52
Slowest flit = 19301
Fragmentation average = 0
	minimum = 0
	maximum = 0
Injected packet rate average = 0.02025
	minimum = 0.015 (at node 13)
	maximum = 0.026 (at node 4)
Accepted packet rate average = 0.0200938
	minimum = 0.0145 (at node 7)
	maximum = 0.0255 (at node 1)
Injected flit rate average = 0.02025
	minimum = 0.015 (at node 13)
	maximum = 0.026 (at node 4)
Accepted flit rate average= 0.0200938
	minimum = 0.0145 (at node 7)
	maximum = 0.0255 (at node 1)
Injected packet length average = 1
Accepted packet length average = 1
Total in-flight flits = 5 (0 measured)
latency change    = 0.0113901
throughput change = 0.0762053
Class 0:
Packet latency average = 19.597
	minimum = 7
	maximum = 47
Network latency average = 19.597
	minimum = 7
	maximum = 47
Slowest packet = 20173
Flit latency average = 19.597
	minimum = 7
	maximum = 47
Slowest flit = 20173
Fragmentation average = 0
	minimum = 0
	maximum = 0
Injected packet rate average = 0.020875
	minimum = 0.015 (at node 9)
	maximum = 0.028 (at node 2)
Accepted packet rate average = 0.020625
	minimum = 0.014 (at node 6)
	maximum = 0.027 (at node 1)
Injected flit rate average = 0.020875
	minimum = 0.015 (at node 9)
	maximum = 0.028 (at node 2)
Accepted flit rate average= 0.020625
	minimum = 0.014 (at node 6)
	maximum = 0.027 (at node 1)
Injected packet length average = 1
Accepted packet length average = 1
Total in-flight flits = 9 (0 measured)
latency change    = 0.00294809
throughput change = 0.0257576
Warmed up ...Time used is 3000 cycles
Class 0:
Packet latency average = 19.4073
	minimum = 7
	maximum = 43
Network latency average = 19.4073
	minimum = 7
	maximum = 43
Slowest packet = 20463
Flit latency average = 19.7395
	minimum = 7
	maximum = 43
Slowest flit = 20463
Fragmentation average = 0
	minimum = 0
	maximum = 0
Injected packet rate average = 0.0193125
	minimum = 0.012 (at node 0)
	maximum = 0.025 (at node 6)
Accepted packet rate average = 0.0194375
	minimum = 0.012 (at node 0)
	maximum = 0.024 (at node 1)
Injected flit rate average = 0.0193125
	minimum = 0.012 (at node 0)
	maximum = 0.025 (at node 6)
Accepted flit rate average= 0.0194375
	minimum = 0.012 (at node 0)
	maximum = 0.024 (at node 1)
Injected packet length average = 1
Accepted packet length average = 1
Total in-flight flits = 7 (7 measured)
latency change    = 0.0097739
throughput change = 0.0610932
Class 0:
Packet latency average = 19.9274
	minimum = 7
	maximum = 48
Network latency average = 19.9274
	minimum = 7
	maximum = 48
Slowest packet = 20813
Flit latency average = 20.0843
	minimum = 7
	maximum = 48
Slowest flit = 20813
Fragmentation average = 0
	minimum = 0
	maximum = 0
Injected packet rate average = 0.0195938
	minimum = 0.0155 (at node 0)
	maximum = 0.027 (at node 6)
Accepted packet rate average = 0.0196563
	minimum = 0.0155 (at node 0)
	maximum = 0.027 (at node 9)
Injected flit rate average = 0.0195938
	minimum = 0.0155 (at node 0)
	maximum = 0.027 (at node 6)
Accepted flit rate average= 0.0196563
	minimum = 0.0155 (at node 0)
	maximum = 0.027 (at node 9)
Injected packet length average = 1
Accepted packet length average = 1
Total in-flight flits = 7 (7 measured)
latency change    = 0.0261015
throughput change = 0.0111288
Class 0:
Packet latency average = 20.2075
	minimum = 7
	maximum = 55
Network latency average = 20.2075
	minimum = 7
	maximum = 55
Slowest packet = 20862
Flit latency average = 20.3068
	minimum = 7
	maximum = 55
Slowest flit = 20862
Fragmentation average = 0
	minimum = 0
	maximum = 0
Injected packet rate average = 0.020125
	minimum = 0.0166667 (at node 0)
	maximum = 0.0266667 (at node 12)
Accepted packet rate average = 0.0201667
	minimum = 0.0166667 (at node 0)
	maximum = 0.0273333 (at node 3)
Injected flit rate average = 0.020125
	minimum = 0.0166667 (at node 0)
	maximum = 0.0266667 (at node 12)
Accepted flit rate average= 0.0201667
	minimum = 0.0166667 (at node 0)
	maximum = 0.0273333 (at node 3)
Injected packet length average = 1
Accepted packet length average = 1
Total in-flight flits = 7 (7 measured)
latency change    = 0.0138606
throughput change = 0.0253099
Class 0:
Packet latency average = 20.117
	minimum = 7
	maximum = 55
Network latency average = 20.117
	minimum = 7
	maximum = 55
Slowest packet = 20862
Flit latency average = 20.1931
	minimum = 7
	maximum = 55
Slowest flit = 20862
Fragmentation average = 0
	minimum = 0
	maximum = 0
Injected packet rate average = 0.0199063
	minimum = 0.01725 (at node 2)
	maximum = 0.025 (at node 12)
Accepted packet rate average = 0.0199063
	minimum = 0.01725 (at node 8)
	maximum = 0.02525 (at node 3)
Injected flit rate average = 0.0199063
	minimum = 0.01725 (at node 2)
	maximum = 0.025 (at node 12)
Accepted flit rate average= 0.0199063
	minimum = 0.01725 (at node 8)
	maximum = 0.02525 (at node 3)
Injected packet length average = 1
Accepted packet length average = 1
Total in-flight flits = 9 (9 measured)
latency change    = 0.00449927
throughput change = 0.0130822
Draining all recorded packets ...
Draining remaining packets ...
Time taken is 7049 cycles
Class 0:
Packet latency average = 20.2914
	minimum = 7
	maximum = 47
Network latency average = 20.2914
	minimum = 7
	maximum = 47
Slowest packet = 21549
Flit latency average = 20.2914
	minimum = 7
	maximum = 47
Slowest flit = 21549
Fragmentation average = 0
	minimum = 0
	maximum = 0
Injected packet rate average = 0.0195
	minimum = 0.011 (at node 13)
	maximum = 0.03 (at node 8)
Accepted packet rate average = 0.018875
	minimum = 0.011 (at node 7)
	maximum = 0.028 (at node 2)
Injected flit rate average = 0.0195
	minimum = 0.011 (at node 13)
	maximum = 0.03 (at node 8)
Accepted flit rate average= 0.018875
	minimum = 0.011 (at node 7)
	maximum = 0.028 (at node 2)
Injected packet length average = 1
Accepted packet length average = 1
Total in-flight flits = 10 (0 measured)
latency change    = 1
throughput change = 1
Class 0:
Packet latency average = 19.9937
	minimum = 7
	maximum = 49
Network latency average = 19.9937
	minimum = 7
	maximum = 49
Slowest packet = 21904
Flit latency average = 19.9937
	minimum = 7
	maximum = 49
Slowest flit = 21904
Fragmentation average = 0
	minimum = 0
	maximum = 0
Injected packet rate average = 0.0200938
	minimum = 0.015 (at node 15)
	maximum = 0.0245 (at node 9)
Accepted packet rate average = 0.0199375
	minimum = 0.015 (at node 15)
	maximum = 0.0245 (at node 6)
Injected flit rate average = 0.0200938
	minimum = 0.015 (at node 15)
	maximum = 0.0245 (at node 9)
Accepted flit rate average= 0.0199375
	minimum = 0.015 (at node 15)
	maximum = 0.0245 (at node 6)
Injected packet length average = 1
Accepted packet length average = 1
Total in-flight flits = 5 (0 measured)
latency change    = 0.0148877
throughput change = 0.0532915
Class 0:
Packet latency average = 20.2807
	minimum = 7
	maximum = 53
Network latency average = 20.2807
	minimum = 7
	maximum = 53
Slowest packet = 22394
Flit latency average = 20.2807
	minimum = 7
	maximum = 53
Slowest flit = 22394
Fragmentation average = 0
	minimum = 0
	maximum = 0
Injected packet rate average = 0.021625
	minimum = 0.017 (at node 1)
	maximum = 0.031 (at node 4)
Accepted packet rate average = 0.021375
	minimum = 0.016 (at node 4)
	maximum = 0.03 (at node 1)
Injected flit rate average = 0.021625
	minimum = 0.017 (at node 1)
	maximum = 0.031 (at node 4)
Accepted flit rate average= 0.021375
	minimum = 0.016 (at node 4)
	maximum = 0.03 (at node 1)
Injected packet length average = 1
Accepted packet length average = 1
Total in-flight flits = 9 (0 measured)
latency change    = 0.01415
throughput change = 0.0672515
Warmed up ...Time used is 3000 cycles
Class 0:
Packet latency average = 19.3095
	minimum = 7
	maximum = 46
Network latency average = 19.3095
	minimum = 7
	maximum = 46
Slowest packet = 22581
Flit latency average = 19.5083
	minimum = 7
	maximum = 46
Slowest flit = 22581
Fragmentation average = 0
	minimum = 0
	maximum = 0
Injected packet rate average = 0.0186875
	minimum = 0.013 (at node 14)
	maximum = 0.03 (at node 9)
Accepted packet rate average = 0.0189375
	minimum = 0.013 (at node 11)
	maximum = 0.031 (at node 6)
Injected flit rate average = 0.0186875
	minimum = 0.013 (at node 14)
	maximum = 0.03 (at node 9)
Accepted flit rate average= 0.0189375
	minimum = 0.013 (at node 11)
	maximum = 0.031 (at node 6)
Injected packet length average = 1
Accepted packet length average = 1
Total in-flight flits = 5 (5 measured)
latency change    = 0.0502953
throughput change = 0.128713
Class 0:
Packet latency average = 19.8474
	minimum = 7
	maximum = 49
Network latency average = 19.8474
	minimum = 7
	maximum = 49
Slowest packet = 23047
Flit latency average = 19.9379
	minimum = 7
	maximum = 49
Slowest flit = 23047
Fragmentation average = 0
	minimum = 0
	maximum = 0
Injected packet rate average = 0.019
	minimum = 0.014 (at node 14)
	maximum = 0.0265 (at node 9)
Accepted packet rate average = 0.019125
	minimum = 0.0135 (at node 11)
	maximum = 0.027 (at node 6)
Injected flit rate average = 0.019
	minimum = 0.014 (at node 14)
	maximum = 0.0265 (at node 9)
Accepted flit rate average= 0.019125
	minimum = 0.0135 (at node 11)
	maximum = 0.027 (at node 6)
Injected packet length average = 1
Accepted packet length average = 1
Total in-flight flits = 5 (5 measured)
latency change    = 0.027102
throughput change = 0.00980392
Class 0:
Packet latency average = 19.8979
	minimum = 7
	maximum = 50
Network latency average = 19.8979
	minimum = 7
	maximum = 50
Slowest packet = 23153
Flit latency average = 19.957
	minimum = 7
	maximum = 50
Slowest flit = 23153
Fragmentation average = 0
	minimum = 0
	maximum = 0
Injected packet rate average = 0.0193542
	minimum = 0.0153333 (at node 14)
	maximum = 0.0246667 (at node 9)
Accepted packet rate average = 0.019375
	minimum = 0.0153333 (at node 11)
	maximum = 0.025 (at node 6)
Injected flit rate average = 0.0193542
	minimum = 0.0153333 (at node 14)
	maximum = 0.0246667 (at node 9)
Accepted flit rate average= 0.019375
	minimum = 0.0153333 (at node 11)
	maximum = 0.025 (at node 6)
Injected packet length average = 1
Accepted packet length average = 1
Total in-flight flits = 8 (8 measured)
latency change    = 0.00253833
throughput change = 0.0129032
Class 0:
Packet latency average = 19.9258
	minimum = 7
	maximum = 50
Network latency average = 19.9258
	minimum = 7
	maximum = 50
Slowest packet = 23153
Flit latency average = 19.97
	minimum = 7
	maximum = 50
Slowest flit = 23153
Fragmentation average = 0
	minimum = 0
	maximum = 0
Injected packet rate average = 0.0193594
	minimum = 0.01625 (at node 7)
	maximum = 0.023 (at node 9)
Accepted packet rate average = 0.0192969
	minimum = 0.01625 (at node 13)
	maximum = 0.02275 (at node 6)
Injected flit rate average = 0.0193594
	minimum = 0.01625 (at node 7)
	maximum = 0.023 (at node 9)
Accepted flit rate average= 0.0192969
	minimum = 0.01625 (at node 13)
	maximum = 0.02275 (at node 6)
Injected packet length average = 1
Accepted packet length average = 1
Total in-flight flits = 13 (13 measured)
latency change    = 0.00139708
throughput change = 0.00404858
Draining all recorded packets ...
Draining remaining packets ...
Time taken is 7055 cycles
Class 0:
Packet latency average = 20.5317
	minimum = 7
	maximum = 52
Network latency average = 20.5317
	minimum = 7
	maximum = 52
Slowest packet = 24005
Flit latency average = 20.5317
	minimum = 7
	maximum = 52
Slowest flit = 24005
Fragmentation average = 0
	minimum = 0
	maximum = 0
Injected packet rate average = 0.021125
	minimum = 0.015 (at node 14)
	maximum = 0.033 (at node 12)
Accepted packet rate average = 0.0206875
	minimum = 0.015 (at node 11)
	maximum = 0.033 (at node 3)
Injected flit rate average = 0.021125
	minimum = 0.015 (at node 14)
	maximum = 0.033 (at node 12)
Accepted flit rate average= 0.0206875
	minimum = 0.015 (at node 11)
	maximum = 0.033 (at node 3)
Injected packet length average = 1
Accepted packet length average = 1
Total in-flight flits = 7 (0 measured)
latency change    = 1
throughput change = 1
Class 0:
Packet latency average = 19.9418
	minimum = 7
	maximum = 52
Network latency average = 19.9418
	minimum = 7
	maximum = 52
Slowest packet = 24005
Flit latency average = 19.9418
	minimum = 7
	maximum = 52
Slowest flit = 24005
Fragmentation average = 0
	minimum = 0
	maximum = 0
Injected packet rate average = 0.0200313
	minimum = 0.0145 (at node 14)
	maximum = 0.026 (at node 12)
Accepted packet rate average = 0.019875
	minimum = 0.014 (at node 11)
	maximum = 0.0255 (at node 3)
Injected flit rate average = 0.0200313
	minimum = 0.0145 (at node 14)
	maximum = 0.026 (at node 12)
Accepted flit rate average= 0.019875
	minimum = 0.014 (at node 11)
	maximum = 0.0255 (at node 3)
Injected packet length average = 1
Accepted packet length average = 1
Total in-flight flits = 5 (0 measured)
latency change    = 0.029581
throughput change = 0.0408805
Class 0:
Packet latency average = 19.5881
	minimum = 7
	maximum = 52
Network latency average = 19.5881
	minimum = 7
	maximum = 52
Slowest packet = 24416
Flit latency average = 19.5881
	minimum = 7
	maximum = 52
Slowest flit = 24416
Fragmentation average = 0
	minimum = 0
	maximum = 0
Injected packet rate average = 0.0210625
	minimum = 0.012 (at node 13)
	maximum = 0.028 (at node 10)
Accepted packet rate average = 0.0209375
	minimum = 0.012 (at node 7)
	maximum = 0.027 (at node 3)
Injected flit rate average = 0.0210625
	minimum = 0.012 (at node 13)
	maximum = 0.028 (at node 10)
Accepted flit rate average= 0.0209375
	minimum = 0.012 (at node 7)
	maximum = 0.027 (at node 3)
Injected packet length average = 1
Accepted packet length average = 1
Total in-flight flits = 7 (0 measured)
latency change    = 0.0180602
throughput change = 0.0507463
Warmed up ...Time used is 3000 cycles
Class 0:
Packet latency average = 19.5404
	minimum = 7
	maximum = 46
Network latency average = 19.5404
	minimum = 7
	maximum = 46
Slowest packet = 24985
Flit latency average = 19.6109
	minimum = 7
	maximum = 46
Slowest flit = 24985
Fragmentation average = 0
	minimum = 0
	maximum = 0
Injected packet rate average = 0.0208125
	minimum = 0.015 (at node 7)
	maximum = 0.028 (at node 2)
Accepted packet rate average = 0.0205625
	minimum = 0.016 (at node 13)
	maximum = 0.026 (at node 8)
Injected flit rate average = 0.0208125
	minimum = 0.015 (at node 7)
	maximum = 0.028 (at node 2)
Accepted flit rate average= 0.0205625
	minimum = 0.016 (at node 13)
	maximum = 0.026 (at node 8)
Injected packet length average = 1
Accepted packet length average = 1
Total in-flight flits = 11 (11 measured)
latency change    = 0.00244044
throughput change = 0.0182371
Class 0:
Packet latency average = 19.767
	minimum = 7
	maximum = 46
Network latency average = 19.767
	minimum = 7
	maximum = 46
Slowest packet = 24985
Flit latency average = 19.8009
	minimum = 7
	maximum = 46
Slowest flit = 24985
Fragmentation average = 0
	minimum = 0
	maximum = 0
Injected packet rate average = 0.0199688
	minimum = 0.0145 (at node 7)
	maximum = 0.024 (at node 12)
Accepted packet rate average = 0.0199375
	minimum = 0.015 (at node 13)
	maximum = 0.023 (at node 2)
Injected flit rate average = 0.0199688
	minimum = 0.0145 (at node 7)
	maximum = 0.024 (at node 12)
Accepted flit rate average= 0.0199375
	minimum = 0.015 (at node 13)
	maximum = 0.023 (at node 2)
Injected packet length average = 1
Accepted packet length average = 1
Total in-flight flits = 8 (8 measured)
latency change    = 0.0114668
throughput change = 0.031348
Class 0:
Packet latency average = 20.0291
	minimum = 7
	maximum = 52
Network latency average = 20.0291
	minimum = 7
	maximum = 52
Slowest packet = 25533
Flit latency average = 20.0503
	minimum = 7
	maximum = 52
Slowest flit = 25533
Fragmentation average = 0
	minimum = 0
	maximum = 0
Injected packet rate average = 0.0194375
	minimum = 0.0166667 (at node 3)
	maximum = 0.0233333 (at node 12)
Accepted packet rate average = 0.0194792
	minimum = 0.017 (at node 5)
	maximum = 0.0236667 (at node 3)
Injected flit rate average = 0.0194375
	minimum = 0.0166667 (at node 3)
	maximum = 0.0233333 (at node 12)
Accepted flit rate average= 0.0194792
	minimum = 0.017 (at node 5)
	maximum = 0.0236667 (at node 3)
Injected packet length average = 1
Accepted packet length average = 1
Total in-flight flits = 5 (5 measured)
latency change    = 0.0130839
throughput change = 0.0235294
Draining all recorded packets ...
Draining remaining packets ...
Time taken is 6061 cycles
Class 0:
Packet latency average = 20.53
	minimum = 7
	maximum = 44
Network latency average = 20.53
	minimum = 7
	maximum = 44
Slowest packet = 25674
Flit latency average = 20.53
	minimum = 7
	maximum = 44
Slowest flit = 25674
Fragmentation average = 0
	minimum = 0
	maximum = 0
Injected packet rate average = 0.020125
	minimum = 0.013 (at node 5)
	maximum = 0.027 (at node 7)
Accepted packet rate average = 0.0198125
	minimum = 0.013 (at node 5)
	maximum = 0.026 (at node 2)
Injected flit rate average = 0.020125
	minimum = 0.013 (at node 5)
	maximum = 0.027 (at node 7)
Accepted flit rate average= 0.0198125
	minimum = 0.013 (at node 5)
	maximum = 0.026 (at node 2)
Injected packet length average = 1
Accepted packet length average = 1
Total in-flight flits = 5 (0 measured)
latency change    = 1
throughput change = 1
Class 0:
Packet latency average = 20.2263
	minimum = 7
	maximum = 53
Network latency average = 20.2263
	minimum = 7
	maximum = 53
Slowest packet = 26164
Flit latency average = 20.2263
	minimum = 7
	maximum = 53
Slowest flit = 26164
Fragmentation average = 0
	minimum = 0
	maximum = 0
Injected packet rate average = 0.0197188
	minimum = 0.012 (at node 10)
	maximum = 0.0245 (at node 6)
Accepted packet rate average = 0.0194687
	minimum = 0.012 (at node 10)
	maximum = 0.024 (at node 2)
Injected flit rate average = 0.0197188
	minimum = 0.012 (at node 10)
	maximum = 0.0245 (at node 6)
Accepted flit rate average= 0.0194687
	minimum = 0.012 (at node 10)
	maximum = 0.024 (at node 2)
Injected packet length average = 1
Accepted packet length average = 1
Total in-flight flits = 8 (0 measured)
latency change    = 0.0150123
throughput change = 0.0176565
Class 0:
Packet latency average = 20.2322
	minimum = 7
	maximum = 46
Network latency average = 20.2322
	minimum = 7
	maximum = 46
Slowest packet = 26385
Flit latency average = 20.2322
	minimum = 7
	maximum = 46
Slowest flit = 26385
Fragmentation average = 0
	minimum = 0
	maximum = 0
Injected packet rate average = 0.020125
	minimum = 0.01 (at node 5)
	maximum = 0.028 (at node 6)
Accepted packet rate average = 0.0201875
	minimum = 0.009 (at node 5)
	maximum = 0.029 (at node 9)
Injected flit rate average = 0.020125
	minimum = 0.01 (at node 5)
	maximum = 0.028 (at node 6)
Accepted flit rate average= 0.0201875
	minimum = 0.009 (at node 5)
	maximum = 0.029 (at node 9)
Injected packet length average = 1
Accepted packet length average = 1
Total in-flight flits = 7 (0 measured)
latency change    = 0.000290325
throughput change = 0.0356037
Warmed up ...Time used is 3000 cycles
Class 0:
Packet latency average = 18.9383
	minimum = 7
	maximum = 47
Network latency average = 18.9383
	minimum = 7
	maximum = 47
Slowest packet = 26657
Flit latency average = 18.9587
	minimum = 7
	maximum = 47
Slowest flit = 26657
Fragmentation average = 0
	minimum = 0
	maximum = 0
Injected packet rate average = 0.0195625
	minimum = 0.011 (at node 6)
	maximum = 0.029 (at node 4)
Accepted packet rate average = 0.0196875
	minimum = 0.011 (at node 9)
	maximum = 0.029 (at node 1)
Injected flit rate average = 0.0195625
	minimum = 0.011 (at node 6)
	maximum = 0.029 (at node 4)
Accepted flit rate average= 0.0196875
	minimum = 0.011 (at node 9)
	maximum = 0.029 (at node 1)
Injected packet length average = 1
Accepted packet length average = 1
Total in-flight flits = 5 (5 measured)
latency change    = 0.0683211
throughput change = 0.0253968
Class 0:
Packet latency average = 19.0955
	minimum = 7
	maximum = 55
Network latency average = 19.0955
	minimum = 7
	maximum = 55
Slowest packet = 27048
Flit latency average = 19.1037
	minimum = 7
	maximum = 55
Slowest flit = 27048
Fragmentation average = 0
	minimum = 0
	maximum = 0
Injected packet rate average = 0.0204375
	minimum = 0.0175 (at node 2)
	maximum = 0.029 (at node 1)
Accepted packet rate average = 0.0205
	minimum = 0.017 (at node 7)
	maximum = 0.0285 (at node 4)
Injected flit rate average = 0.0204375
	minimum = 0.0175 (at node 2)
	maximum = 0.029 (at node 1)
Accepted flit rate average= 0.0205
	minimum = 0.017 (at node 7)
	maximum = 0.0285 (at node 4)
Injected packet length average = 1
Accepted packet length average = 1
Total in-flight flits = 5 (5 measured)
latency change    = 0.00823333
throughput change = 0.0396341
Class 0:
Packet latency average = 19.3956
	minimum = 7
	maximum = 55
Network latency average = 19.3956
	minimum = 7
	maximum = 55
Slowest packet = 27048
Flit latency average = 19.399
	minimum = 7
	maximum = 55
Slowest flit = 27048
Fragmentation average = 0
	minimum = 0
	maximum = 0
Injected packet rate average = 0.0198125
	minimum = 0.016 (at node 2)
	maximum = 0.0236667 (at node 1)
Accepted packet rate average = 0.0198958
	minimum = 0.016 (at node 8)
	maximum = 0.024 (at node 4)
Injected flit rate average = 0.0198125
	minimum = 0.016 (at node 2)
	maximum = 0.0236667 (at node 1)
Accepted flit rate average= 0.0198958
	minimum = 0.016 (at node 8)
	maximum = 0.024 (at node 4)
Injected packet length average = 1
Accepted packet length average = 1
Total in-flight flits = 3 (3 measured)
latency change    = 0.0154694
throughput change = 0.0303665
Class 0:
Packet latency average = 19.4823
	minimum = 7
	maximum = 55
Network latency average = 19.4823
	minimum = 7
	maximum = 55
Slowest packet = 27048
Flit latency average = 19.4843
	minimum = 7
	maximum = 55
Slowest flit = 27048
Fragmentation average = 0
	minimum = 0
	maximum = 0
Injected packet rate average = 0.0199063
	minimum = 0.01675 (at node 2)
	maximum = 0.02325 (at node 1)
Accepted packet rate average = 0.0199375
	minimum = 0.01675 (at node 8)
	maximum = 0.0235 (at node 4)
Injected flit rate average = 0.0199063
	minimum = 0.01675 (at node 2)
	maximum = 0.02325 (at node 1)
Accepted flit rate average= 0.0199375
	minimum = 0.01675 (at node 8)
	maximum = 0.0235 (at node 4)
Injected packet length average = 1
Accepted packet length average = 1
Total in-flight flits = 5 (5 measured)
latency change    = 0.00445019
throughput change = 0.00208986
Draining all recorded packets ...
Draining remaining packets ...
Time taken is 7072 cycles
Class 0:
Packet latency average = 19.8667
	minimum = 7
	maximum = 50
Network latency average = 19.8667
	minimum = 7
	maximum = 50
Slowest packet = 27992
Flit latency average = 19.8667
	minimum = 7
	maximum = 50
Slowest flit = 27992
Fragmentation average = 0
	minimum = 0
	maximum = 0
Injected packet rate average = 0.0190625
	minimum = 0.009 (at node 8)
	maximum = 0.028 (at node 13)
Accepted packet rate average = 0.01875
	minimum = 0.009 (at node 2)
	maximum = 0.027 (at node 4)
Injected flit rate average = 0.0190625
	minimum = 0.009 (at node 8)
	maximum = 0.028 (at node 13)
Accepted flit rate average= 0.01875
	minimum = 0.009 (at node 2)
	maximum = 0.027 (at node 4)
Injected packet length average = 1
Accepted packet length average = 1
Total in-flight flits = 5 (0 measured)
latency change    = 1
throughput change = 1
Class 0:
Packet latency average = 20.056
	minimum = 7
	maximum = 50
Network latency average = 20.056
	minimum = 7
	maximum = 50
Slowest packet = 27992
Flit latency average = 20.056
	minimum = 7
	maximum = 50
Slowest flit = 27992
Fragmentation average = 0
	minimum = 0
	maximum = 0
Injected packet rate average = 0.0197188
	minimum = 0.0145 (at node 8)
	maximum = 0.027 (at node 13)
Accepted packet rate average = 0.0195312
	minimum = 0.0145 (at node 2)
	maximum = 0.0265 (at node 7)
Injected flit rate average = 0.0197188
	minimum = 0.0145 (at node 8)
	maximum = 0.027 (at node 13)
Accepted flit rate average= 0.0195312
	minimum = 0.0145 (at node 2)
	maximum = 0.0265 (at node 7)
Injected packet length average = 1
Accepted packet length average = 1
Total in-flight flits = 6 (0 measured)
latency change    = 0.00944023
throughput change = 0.04
Class 0:
Packet latency average = 19.8607
	minimum = 7
	maximum = 41
Network latency average = 19.8607
	minimum = 7
	maximum = 41
Slowest packet = 28758
Flit latency average = 19.8607
	minimum = 7
	maximum = 41
Slowest flit = 28758
Fragmentation average = 0
	minimum = 0
	maximum = 0
Injected packet rate average = 0.020125
	minimum = 0.01 (at node 1)
	maximum = 0.028 (at node 8)
Accepted packet rate average = 0.0201875
	minimum = 0.011 (at node 4)
	maximum = 0.028 (at node 2)
Injected flit rate average = 0.020125
	minimum = 0.01 (at node 1)
	maximum = 0.028 (at node 8)
Accepted flit rate average= 0.0201875
	minimum = 0.011 (at node 4)
	maximum = 0.028 (at node 2)
Injected packet length average = 1
Accepted packet length average = 1
Total in-flight flits = 5 (0 measured)
latency change    = 0.00983445
throughput change = 0.0325077
Warmed up ...Time used is 3000 cycles
Class 0:
Packet latency average = 18.8374
	minimum = 7
	maximum = 46
Network latency average = 18.8374
	minimum = 7
	maximum = 46
Slowest packet = 28948
Flit latency average = 18.9422
	minimum = 7
	maximum = 46
Slowest flit = 28948
Fragmentation average = 0
	minimum = 0
	maximum = 0
Injected packet rate average = 0.0185
	minimum = 0.013 (at node 11)
	maximum = 0.026 (at node 0)
Accepted packet rate average = 0.018375
	minimum = 0.013 (at node 14)
	maximum = 0.025 (at node 0)
Injected flit rate average = 0.0185
	minimum = 0.013 (at node 11)
	maximum = 0.026 (at node 0)
Accepted flit rate average= 0.018375
	minimum = 0.013 (at node 14)
	maximum = 0.025 (at node 0)
Injected packet length average = 1
Accepted packet length average = 1
Total in-flight flits = 7 (7 measured)
latency change    = 0.0543234
throughput change = 0.0986395
Class 0:
Packet latency average = 19.3355
	minimum = 7
	maximum = 49
Network latency average = 19.3355
	minimum = 7
	maximum = 49
Slowest packet = 29362
Flit latency average = 19.3813
	minimum = 7
	maximum = 49
Slowest flit = 29362
Fragmentation average = 0
	minimum = 0
	maximum = 0
Injected packet rate average = 0.019375
	minimum = 0.0155 (at node 8)
	maximum = 0.023 (at node 0)
Accepted packet rate average = 0.0193437
	minimum = 0.015 (at node 2)
	maximum = 0.023 (at node 0)
Injected flit rate average = 0.019375
	minimum = 0.0155 (at node 8)
	maximum = 0.023 (at node 0)
Accepted flit rate average= 0.0193437
	minimum = 0.015 (at node 2)
	maximum = 0.023 (at node 0)
[...]
	minimum = 0
	maximum = 0
Injected packet rate average = 0.0185
	minimum = 0.012 (at node 0)
	maximum = 0.026 (at node 8)
Accepted packet rate average = 0.0180625
	minimum = 0.012 (at node 0)
	maximum = 0.026 (at node 15)
Injected flit rate average = 0.0185
	minimum = 0.012 (at node 0)
	maximum = 0.026 (at node 8)
Accepted flit rate average= 0.0180625
	minimum = 0.012 (at node 0)
	maximum = 0.026 (at node 15)
Injected packet length average = 1
Accepted packet length average = 1
Total in-flight flits = 11 (0 measured)
latency change    = 0.0339923
throughput change = 0.032872
Warmed up ...Time used is 3000 cycles
Class 0:
Packet latency average = 20.3862
	minimum = 7
	maximum = 50
Network latency average = 20.3862
	minimum = 7
	maximum = 50
Slowest packet = 216568
Flit latency average = 20.5681
	minimum = 7
	maximum = 50
Slowest flit = 216568
Fragmentation average = 0
	minimum = 0
	maximum = 0
Injected packet rate average = 0.0215625
	minimum = 0.008 (at node 15)
	maximum = 0.033 (at node 2)
Accepted packet rate average = 0.0215625
	minimum = 0.008 (at node 15)
	maximum = 0.031 (at node 8)
Injected flit rate average = 0.0215625
	minimum = 0.008 (at node 15)
	maximum = 0.033 (at node 2)
Accepted flit rate average= 0.0215625
	minimum = 0.008 (at node 15)
	maximum = 0.031 (at node 8)
Injected packet length average = 1
Accepted packet length average = 1
Total in-flight flits = 11 (11 measured)
latency change    = 0.0362582
throughput change = 0.162319
Class 0:
Packet latency average = 20.5934
	minimum = 7
	maximum = 54
Network latency average = 20.5934
	minimum = 7
	maximum = 54
Slowest packet = 217069
Flit latency average = 20.6867
	minimum = 7
	maximum = 54
Slowest flit = 217069
Fragmentation average = 0
	minimum = 0
	maximum = 0
Injected packet rate average = 0.0201563
	minimum = 0.0115 (at node 15)
	maximum = 0.024 (at node 2)
Accepted packet rate average = 0.02025
	minimum = 0.0115 (at node 15)
	maximum = 0.0245 (at node 6)
Injected flit rate average = 0.0201563
	minimum = 0.0115 (at node 15)
	maximum = 0.024 (at node 2)
Accepted flit rate average= 0.02025
	minimum = 0.0115 (at node 15)
	maximum = 0.0245 (at node 6)
Injected packet length average = 1
Accepted packet length average = 1
Total in-flight flits = 8 (8 measured)
latency change    = 0.0100605
throughput change = 0.0648148
Class 0:
Packet latency average = 20.3589
	minimum = 7
	maximum = 54
Network latency average = 20.3589
	minimum = 7
	maximum = 54
Slowest packet = 217069
Flit latency average = 20.4273
	minimum = 7
	maximum = 54
Slowest flit = 217069
Fragmentation average = 0
	minimum = 0
	maximum = 0
Injected packet rate average = 0.0191458
	minimum = 0.0143333 (at node 15)
	maximum = 0.022 (at node 7)
Accepted packet rate average = 0.0192083
	minimum = 0.0143333 (at node 15)
	maximum = 0.0223333 (at node 13)
Injected flit rate average = 0.0191458
	minimum = 0.0143333 (at node 15)
	maximum = 0.022 (at node 7)
Accepted flit rate average= 0.0192083
	minimum = 0.0143333 (at node 15)
	maximum = 0.0223333 (at node 13)
Injected packet length average = 1
Accepted packet length average = 1
Total in-flight flits = 8 (8 measured)
latency change    = 0.0115163
throughput change = 0.0542299
Class 0:
Packet latency average = 20.22
	minimum = 7
	maximum = 54
Network latency average = 20.22
	minimum = 7
	maximum = 54
Slowest packet = 217069
Flit latency average = 20.2726
	minimum = 7
	maximum = 54
Slowest flit = 217069
Fragmentation average = 0
	minimum = 0
	maximum = 0
Injected packet rate average = 0.0191094
	minimum = 0.0145 (at node 15)
	maximum = 0.02225 (at node 4)
Accepted packet rate average = 0.0192031
	minimum = 0.0145 (at node 15)
	maximum = 0.0225 (at node 13)
Injected flit rate average = 0.0191094
	minimum = 0.0145 (at node 15)
	maximum = 0.02225 (at node 4)
Accepted flit rate average= 0.0192031
	minimum = 0.0145 (at node 15)
	maximum = 0.0225 (at node 13)
Injected packet length average = 1
Accepted packet length average = 1
Total in-flight flits = 5 (5 measured)
latency change    = 0.00687009
throughput change = 0.000271223
Class 0:
Packet latency average = 20.0454
	minimum = 7
	maximum = 54
Network latency average = 20.0454
	minimum = 7
	maximum = 54
Slowest packet = 217069
Flit latency average = 20.0882
	minimum = 7
	maximum = 54
Slowest flit = 217069
Fragmentation average = 0
	minimum = 0
	maximum = 0
Injected packet rate average = 0.0193875
	minimum = 0.0166 (at node 15)
	maximum = 0.0228 (at node 7)
Accepted packet rate average = 0.019425
	minimum = 0.0164 (at node 15)
	maximum = 0.0228 (at node 13)
Injected flit rate average = 0.0193875
	minimum = 0.0166 (at node 15)
	maximum = 0.0228 (at node 7)
Accepted flit rate average= 0.019425
	minimum = 0.0164 (at node 15)
	maximum = 0.0228 (at node 13)
Injected packet length average = 1
Accepted packet length average = 1
Total in-flight flits = 8 (8 measured)
latency change    = 0.00871357
throughput change = 0.0114221
Class 0:
Packet latency average = 20.0892
	minimum = 7
	maximum = 54
Network latency average = 20.0892
	minimum = 7
	maximum = 54
Slowest packet = 217069
Flit latency average = 20.1242
	minimum = 7
	maximum = 54
Slowest flit = 217069
Fragmentation average = 0
	minimum = 0
	maximum = 0
Injected packet rate average = 0.0195521
	minimum = 0.0168333 (at node 11)
	maximum = 0.0223333 (at node 12)
Accepted packet rate average = 0.019625
	minimum = 0.0168333 (at node 14)
	maximum = 0.0225 (at node 3)
Injected flit rate average = 0.0195521
	minimum = 0.0168333 (at node 11)
	maximum = 0.0223333 (at node 12)
Accepted flit rate average= 0.019625
	minimum = 0.0168333 (at node 14)
	maximum = 0.0225 (at node 3)
Injected packet length average = 1
Accepted packet length average = 1
Total in-flight flits = 4 (4 measured)
latency change    = 0.00218006
throughput change = 0.0101911
Draining all recorded packets ...
Draining remaining packets ...
Time taken is 9017 cycles
Class 0:
Packet latency average = 18.9243
	minimum = 7
	maximum = 53
Network latency average = 18.9243
	minimum = 7
	maximum = 53
Slowest packet = 218611
Flit latency average = 18.9243
	minimum = 7
	maximum = 53
Slowest flit = 218611
Fragmentation average = 0
	minimum = 0
	maximum = 0
Injected packet rate average = 0.019375
	minimum = 0.011 (at node 9)
	maximum = 0.031 (at node 15)
Accepted packet rate average = 0.019
	minimum = 0.011 (at node 6)
	maximum = 0.03 (at node 15)
Injected flit rate average = 0.019375
	minimum = 0.011 (at node 9)
	maximum = 0.031 (at node 15)
Accepted flit rate average= 0.019
	minimum = 0.011 (at node 6)
	maximum = 0.03 (at node 15)
Injected packet length average = 1
Accepted packet length average = 1
Total in-flight flits = 6 (0 measured)
latency change    = 1
throughput change = 1
Class 0:
Packet latency average = 19.5566
	minimum = 7
	maximum = 53
Network latency average = 19.5566
	minimum = 7
	maximum = 53
Slowest packet = 218611
Flit latency average = 19.5566
	minimum = 7
	maximum = 53
Slowest flit = 218611
Fragmentation average = 0
	minimum = 0
	maximum = 0
Injected packet rate average = 0.0210313
	minimum = 0.016 (at node 1)
	maximum = 0.025 (at node 2)
Accepted packet rate average = 0.0207188
	minimum = 0.016 (at node 4)
	maximum = 0.025 (at node 8)
Injected flit rate average = 0.0210313
	minimum = 0.016 (at node 1)
	maximum = 0.025 (at node 2)
Accepted flit rate average= 0.0207188
	minimum = 0.016 (at node 4)
	maximum = 0.025 (at node 8)
Injected packet length average = 1
Accepted packet length average = 1
Total in-flight flits = 10 (0 measured)
latency change    = 0.0323277
throughput change = 0.0829563
Class 0:
Packet latency average = 19.8845
	minimum = 7
	maximum = 46
Network latency average = 19.8845
	minimum = 7
	maximum = 46
Slowest packet = 219052
Flit latency average = 19.8845
	minimum = 7
	maximum = 46
Slowest flit = 219052
Fragmentation average = 0
	minimum = 0
	maximum = 0
Injected packet rate average = 0.018875
	minimum = 0.011 (at node 6)
	maximum = 0.026 (at node 0)
Accepted packet rate average = 0.0189375
	minimum = 0.01 (at node 9)
	maximum = 0.026 (at node 0)
Injected flit rate average = 0.018875
	minimum = 0.011 (at node 6)
	maximum = 0.026 (at node 0)
Accepted flit rate average= 0.0189375
	minimum = 0.01 (at node 9)
	maximum = 0.026 (at node 0)
Injected packet length average = 1
Accepted packet length average = 1
Total in-flight flits = 9 (0 measured)
latency change    = 0.0164916
throughput change = 0.0940594
Warmed up ...Time used is 3000 cycles
Class 0:
Packet latency average = 19.514
	minimum = 7
	maximum = 50
Network latency average = 19.514
	minimum = 7
	maximum = 50
Slowest packet = 219534
Flit latency average = 19.8
	minimum = 7
	maximum = 50
Slowest flit = 219534
Fragmentation average = 0
	minimum = 0
	maximum = 0
Injected packet rate average = 0.0204375
	minimum = 0.011 (at node 10)
	maximum = 0.025 (at node 4)
Accepted packet rate average = 0.020625
	minimum = 0.011 (at node 10)
	maximum = 0.025 (at node 1)
Injected flit rate average = 0.0204375
	minimum = 0.011 (at node 10)
	maximum = 0.025 (at node 4)
Accepted flit rate average= 0.020625
	minimum = 0.011 (at node 10)
	maximum = 0.025 (at node 1)
Injected packet length average = 1
Accepted packet length average = 1
Total in-flight flits = 6 (6 measured)
latency change    = 0.0189848
throughput change = 0.0818182
Class 0:
Packet latency average = 19.0523
	minimum = 7
	maximum = 50
Network latency average = 19.0523
	minimum = 7
	maximum = 50
Slowest packet = 219534
Flit latency average = 19.2063
	minimum = 7
	maximum = 50
Slowest flit = 219534
Fragmentation average = 0
	minimum = 0
	maximum = 0
Injected packet rate average = 0.0199375
	minimum = 0.015 (at node 3)
	maximum = 0.028 (at node 4)
Accepted packet rate average = 0.02
	minimum = 0.0155 (at node 12)
	maximum = 0.0275 (at node 1)
Injected flit rate average = 0.0199375
	minimum = 0.015 (at node 3)
	maximum = 0.028 (at node 4)
Accepted flit rate average= 0.02
	minimum = 0.0155 (at node 12)
	maximum = 0.0275 (at node 1)
Injected packet length average = 1
Accepted packet length average = 1
Total in-flight flits = 7 (7 measured)
latency change    = 0.0242344
throughput change = 0.03125
Class 0:
Packet latency average = 19.2994
	minimum = 7
	maximum = 50
Network latency average = 19.2994
	minimum = 7
	maximum = 50
Slowest packet = 219534
Flit latency average = 19.4017
	minimum = 7
	maximum = 50
Slowest flit = 219534
Fragmentation average = 0
	minimum = 0
	maximum = 0
Injected packet rate average = 0.0194792
	minimum = 0.015 (at node 12)
	maximum = 0.0253333 (at node 4)
Accepted packet rate average = 0.0196042
	minimum = 0.0156667 (at node 3)
	maximum = 0.025 (at node 1)
Injected flit rate average = 0.0194792
	minimum = 0.015 (at node 12)
	maximum = 0.0253333 (at node 4)
Accepted flit rate average= 0.0196042
	minimum = 0.0156667 (at node 3)
	maximum = 0.025 (at node 1)
Injected packet length average = 1
Accepted packet length average = 1
Total in-flight flits = 3 (3 measured)
latency change    = 0.0128014
throughput change = 0.0201913
Class 0:
Packet latency average = 19.4305
	minimum = 7
	maximum = 53
Network latency average = 19.4305
	minimum = 7
	maximum = 53
Slowest packet = 220411
Flit latency average = 19.5039
	minimum = 7
	maximum = 53
Slowest flit = 220411
Fragmentation average = 0
	minimum = 0
	maximum = 0
Injected packet rate average = 0.0201563
	minimum = 0.017 (at node 12)
	maximum = 0.02425 (at node 4)
Accepted packet rate average = 0.02025
	minimum = 0.0175 (at node 3)
	maximum = 0.02425 (at node 1)
Injected flit rate average = 0.0201563
	minimum = 0.017 (at node 12)
	maximum = 0.02425 (at node 4)
Accepted flit rate average= 0.02025
	minimum = 0.0175 (at node 3)
	maximum = 0.02425 (at node 1)
Injected packet length average = 1
Accepted packet length average = 1
Total in-flight flits = 3 (3 measured)
latency change    = 0.00674725
throughput change = 0.031893
Draining all recorded packets ...
Draining remaining packets ...
Time taken is 7046 cycles
Class 0:
Packet latency average = 19.7168
	minimum = 7
	maximum = 43
Network latency average = 19.7168
	minimum = 7
	maximum = 43
Slowest packet = 220672
Flit latency average = 19.7168
	minimum = 7
	maximum = 43
Slowest flit = 220672
Fragmentation average = 0
	minimum = 0
	maximum = 0
Injected packet rate average = 0.01825
	minimum = 0.012 (at node 12)
	maximum = 0.025 (at node 2)
Accepted packet rate average = 0.017875
	minimum = 0.011 (at node 3)
	maximum = 0.025 (at node 8)
Injected flit rate average = 0.01825
	minimum = 0.012 (at node 12)
	maximum = 0.025 (at node 2)
Accepted flit rate average= 0.017875
	minimum = 0.011 (at node 3)
	maximum = 0.025 (at node 8)
Injected packet length average = 1
Accepted packet length average = 1
Total in-flight flits = 6 (0 measured)
latency change    = 1
throughput change = 1
Class 0:
Packet latency average = 19.2736
	minimum = 7
	maximum = 46
Network latency average = 19.2736
	minimum = 7
	maximum = 46
Slowest packet = 220982
Flit latency average = 19.2736
	minimum = 7
	maximum = 46
Slowest flit = 220982
Fragmentation average = 0
	minimum = 0
	maximum = 0
Injected packet rate average = 0.01875
	minimum = 0.0145 (at node 7)
	maximum = 0.0225 (at node 4)
Accepted packet rate average = 0.0185
	minimum = 0.014 (at node 3)
	maximum = 0.022 (at node 1)
Injected flit rate average = 0.01875
	minimum = 0.0145 (at node 7)
	maximum = 0.0225 (at node 4)
Accepted flit rate average= 0.0185
	minimum = 0.014 (at node 3)
	maximum = 0.022 (at node 1)
Injected packet length average = 1
Accepted packet length average = 1
Total in-flight flits = 8 (0 measured)
latency change    = 0.0229917
throughput change = 0.0337838
Class 0:
Packet latency average = 19.159
	minimum = 7
	maximum = 45
Network latency average = 19.159
	minimum = 7
	maximum = 45
Slowest packet = 221368
Flit latency average = 19.159
	minimum = 7
	maximum = 45
Slowest flit = 221368
Fragmentation average = 0
	minimum = 0
	maximum = 0
Injected packet rate average = 0.0204375
	minimum = 0.009 (at node 2)
	maximum = 0.029 (at node 9)
Accepted packet rate average = 0.0204375
	minimum = 0.011 (at node 8)
	maximum = 0.029 (at node 6)
Injected flit rate average = 0.0204375
	minimum = 0.009 (at node 2)
	maximum = 0.029 (at node 9)
Accepted flit rate average= 0.0204375
	minimum = 0.011 (at node 8)
	maximum = 0.029 (at node 6)
Injected packet length average = 1
Accepted packet length average = 1
Total in-flight flits = 8 (0 measured)
latency change    = 0.00598294
throughput change = 0.0948012
Warmed up ...Time used is 3000 cycles
Class 0:
Packet latency average = 20.5091
	minimum = 7
	maximum = 47
Network latency average = 20.5091
	minimum = 7
	maximum = 47
Slowest packet = 221704
Flit latency average = 20.4851
	minimum = 7
	maximum = 47
Slowest flit = 221704
Fragmentation average = 0
	minimum = 0
	maximum = 0
Injected packet rate average = 0.0208125
	minimum = 0.013 (at node 11)
	maximum = 0.033 (at node 13)
Accepted packet rate average = 0.021
	minimum = 0.012 (at node 14)
	maximum = 0.034 (at node 7)
Injected flit rate average = 0.0208125
	minimum = 0.013 (at node 11)
	maximum = 0.033 (at node 13)
Accepted flit rate average= 0.021
	minimum = 0.012 (at node 14)
	maximum = 0.034 (at node 7)
Injected packet length average = 1
Accepted packet length average = 1
Total in-flight flits = 5 (5 measured)
latency change    = 0.0658304
throughput change = 0.0267857
Class 0:
Packet latency average = 20.0647
	minimum = 7
	maximum = 47
Network latency average = 20.0647
	minimum = 7
	maximum = 47
Slowest packet = 221704
Flit latency average = 20.0575
	minimum = 7
	maximum = 47
Slowest flit = 221704
Fragmentation average = 0
	minimum = 0
	maximum = 0
Injected packet rate average = 0.0195938
	minimum = 0.0155 (at node 10)
	maximum = 0.0265 (at node 13)
Accepted packet rate average = 0.0195625
	minimum = 0.0155 (at node 11)
	maximum = 0.0265 (at node 7)
Injected flit rate average = 0.0195938
	minimum = 0.0155 (at node 10)
	maximum = 0.0265 (at node 13)
Accepted flit rate average= 0.0195625
	minimum = 0.0155 (at node 11)
	maximum = 0.0265 (at node 7)
Injected packet length average = 1
Accepted packet length average = 1
Total in-flight flits = 9 (9 measured)
latency change    = 0.0221494
throughput change = 0.0734824
Class 0:
Packet latency average = 20.1645
	minimum = 7
	maximum = 48
Network latency average = 20.1645
	minimum = 7
	maximum = 48
Slowest packet = 222361
Flit latency average = 20.1589
	minimum = 7
	maximum = 48
Slowest flit = 222361
Fragmentation average = 0
	minimum = 0
	maximum = 0
Injected packet rate average = 0.0197708
	minimum = 0.0163333 (at node 14)
	maximum = 0.0256667 (at node 13)
Accepted packet rate average = 0.0197917
	minimum = 0.0163333 (at node 11)
	maximum = 0.025 (at node 7)
Injected flit rate average = 0.0197708
	minimum = 0.0163333 (at node 14)
	maximum = 0.0256667 (at node 13)
Accepted flit rate average= 0.0197917
	minimum = 0.0163333 (at node 11)
	maximum = 0.025 (at node 7)
Injected packet length average = 1
Accepted packet length average = 1
Total in-flight flits = 7 (7 measured)
latency change    = 0.0049502
throughput change = 0.0115789
Class 0:
Packet latency average = 20.1535
	minimum = 7
	maximum = 48
Network latency average = 20.1535
	minimum = 7
	maximum = 48
Slowest packet = 222361
Flit latency average = 20.1493
	minimum = 7
	maximum = 48
Slowest flit = 222361
Fragmentation average = 0
	minimum = 0
	maximum = 0
Injected packet rate average = 0.019625
	minimum = 0.016 (at node 14)
	maximum = 0.0245 (at node 13)
Accepted packet rate average = 0.0196719
	minimum = 0.01625 (at node 11)
	maximum = 0.02475 (at node 7)
Injected flit rate average = 0.019625
	minimum = 0.016 (at node 14)
	maximum = 0.0245 (at node 13)
Accepted flit rate average= 0.0196719
	minimum = 0.01625 (at node 11)
	maximum = 0.02475 (at node 7)
Injected packet length average = 1
Accepted packet length average = 1
Total in-flight flits = 5 (5 measured)
latency change    = 0.000549102
throughput change = 0.00608949
Class 0:
Packet latency average = 20.1688
	minimum = 7
	maximum = 48
Network latency average = 20.1688
	minimum = 7
	maximum = 48
Slowest packet = 222361
Flit latency average = 20.1654
	minimum = 7
	maximum = 48
Slowest flit = 222361
Fragmentation average = 0
	minimum = 0
	maximum = 0
Injected packet rate average = 0.0194
	minimum = 0.0166 (at node 10)
	maximum = 0.024 (at node 13)
Accepted packet rate average = 0.019425
	minimum = 0.0168 (at node 10)
	maximum = 0.0242 (at node 7)
Injected flit rate average = 0.0194
	minimum = 0.0166 (at node 10)
	maximum = 0.024 (at node 13)
Accepted flit rate average= 0.019425
	minimum = 0.0168 (at node 10)
	maximum = 0.0242 (at node 7)
Injected packet length average = 1
Accepted packet length average = 1
Total in-flight flits = 6 (6 measured)
latency change    = 0.000760855
throughput change = 0.0127091
Draining all recorded packets ...
Draining remaining packets ...
Time taken is 8059 cycles
====== Overall Traffic Statistics ======
====== Traffic class 0 ======
Packet latency average = 19.8124 (100 samples)
	minimum = 7 (100 samples)
	maximum = 53.54 (100 samples)
Network latency average = 19.8124 (100 samples)
	minimum = 7 (100 samples)
	maximum = 53.54 (100 samples)
Flit latency average = 19.8375 (100 samples)
	minimum = 7 (100 samples)
	maximum = 53.55 (100 samples)
Fragmentation average = 0 (100 samples)
	minimum = 0 (100 samples)
	maximum = 0 (100 samples)
Injected packet rate average = 0.0199767 (100 samples)
	minimum = 0.0161407 (100 samples)
	maximum = 0.0241413 (100 samples)
Accepted packet rate average = 0.0199739 (100 samples)
	minimum = 0.0161492 (100 samples)
	maximum = 0.024144 (100 samples)
Injected flit rate average = 0.0199767 (100 samples)
	minimum = 0.0161407 (100 samples)
	maximum = 0.0241413 (100 samples)
Accepted flit rate average = 0.0199739 (100 samples)
	minimum = 0.0161492 (100 samples)
	maximum = 0.024144 (100 samples)
Injected packet size average = 1 (100 samples)
Accepted packet size average = 1 (100 samples)
Hops average = 3.50171 (100 samples)
Total run time 5.11374
