BEGIN Configuration File: /tmp/bs_1137237_184609.cfg
topology = mesh;
k = 4;
n = 2;
routing_function = gnn_ppo_route_4x4;
num_vcs = 4;
vc_buf_size = 4;
wait_for_tail_credit = 1;
vc_allocator = islip;
sw_allocator = islip;
alloc_iters = 1;
credit_delay = 2;
routing_delay = 1;
vc_alloc_delay = 1;
sw_alloc_delay = 1;
input_speedup = 2;
output_speedup = 1;
internal_speedup = 1.0;
traffic = transpose;
packet_size = 1;
sim_type = latency;
injection_rate = 0.1;
warmup_periods = 3;
sample_period = 1000;
sim_count = 100;
seed = 1;

END Configuration File: /tmp/bs_1137237_184609.cfg
Class 0:
Packet latency average = 28.4548
	minimum = 7
	maximum = 246
Network latency average = 25.4873
	minimum = 7
	maximum = 218
Slowest packet = 755
Flit latency average = 25.4873
	minimum = 7
	maximum = 218
Slowest flit = 755
Fragmentation average = 0
	minimum = 0
	maximum = 0
Injected packet rate average = 0.10075
	minimum = 0.084 (at node 13)
	maximum = 0.121 (at node 4)
Accepted packet rate average = 0.098125
	minimum = 0.083 (at node 7)
	maximum = 0.12 (at node 1)
Injected flit rate average = 0.10075
	minimum = 0.084 (at node 13)
	maximum = 0.121 (at node 4)
Accepted flit rate average= 0.098125
	minimum = 0.083 (at node 7)
	maximum = 0.12 (at node 1)
Injected packet length average = 1
Accepted packet length average = 1
Total in-flight flits = 44 (0 measured)
latency change    = 1
throughput change = 1
Class 0:
Packet latency average = 30.9382
	minimum = 7
	maximum = 246
Network latency average = 26.1325
	minimum = 7
	maximum = 218
Slowest packet = 755
Flit latency average = 26.1325
	minimum = 7
	maximum = 218
Slowest flit = 755
Fragmentation average = 0
	minimum = 0
	maximum = 0
Injected packet rate average = 0.1005
	minimum = 0.09 (at node 13)
	maximum = 0.112 (at node 7)
Accepted packet rate average = 0.0990313
	minimum = 0.0885 (at node 7)
	maximum = 0.111 (at node 11)
Injected flit rate average = 0.1005
	minimum = 0.09 (at node 13)
	maximum = 0.112 (at node 7)
Accepted flit rate average= 0.0990313
	minimum = 0.0885 (at node 7)
	maximum = 0.111 (at node 11)
Injected packet length average = 1
Accepted packet length average = 1
Total in-flight flits = 48 (0 measured)
latency change    = 0.080269
throughput change = 0.00915115
Class 0:
Packet latency average = 37.9145
	minimum = 7
	maximum = 368
Network latency average = 28.8608
	minimum = 7
	maximum = 231
Slowest packet = 3050
Flit latency average = 28.8608
	minimum = 7
	maximum = 231
Slowest flit = 3968
Fragmentation average = 0
	minimum = 0
	maximum = 0
Injected packet rate average = 0.099875
	minimum = 0.083 (at node 10)
	maximum = 0.114 (at node 2)
Accepted packet rate average = 0.100125
	minimum = 0.081 (at node 10)
	maximum = 0.116 (at node 7)
Injected flit rate average = 0.099875
	minimum = 0.083 (at node 10)
	maximum = 0.114 (at node 2)
Accepted flit rate average= 0.100125
	minimum = 0.081 (at node 10)
	maximum = 0.116 (at node 7)
Injected packet length average = 1
Accepted packet length average = 1
Total in-flight flits = 45 (0 measured)
latency change    = 0.184002
throughput change = 0.0109238
Warmed up ...Time used is 3000 cycles
Class 0:
Packet latency average = 35.5801
	minimum = 7
	maximum = 453
Network latency average = 27.7164
	minimum = 7
	maximum = 261
Slowest packet = 4823
Flit latency average = 28.8235
	minimum = 7
	maximum = 261
Slowest flit = 4933
Fragmentation average = 0
	minimum = 0
	maximum = 0
Injected packet rate average = 0.0996875
	minimum = 0.081 (at node 11)
	maximum = 0.109 (at node 4)
Accepted packet rate average = 0.099125
	minimum = 0.079 (at node 14)
	maximum = 0.107 (at node 1)
Injected flit rate average = 0.0996875
	minimum = 0.081 (at node 11)
	maximum = 0.109 (at node 4)
Accepted flit rate average= 0.099125
	minimum = 0.079 (at node 14)
	maximum = 0.107 (at node 1)
Injected packet length average = 1
Accepted packet length average = 1
Total in-flight flits = 54 (54 measured)
latency change    = 0.0656079
throughput change = 0.0100883
Class 0:
Packet latency average = 32.3079
	minimum = 7
	maximum = 453
Network latency average = 27.0814
	minimum = 7
	maximum = 261
Slowest packet = 4823
Flit latency average = 27.6319
	minimum = 7
	maximum = 261
Slowest flit = 4933
Fragmentation average = 0
	minimum = 0
	maximum = 0
Injected packet rate average = 0.101562
	minimum = 0.089 (at node 11)
	maximum = 0.111 (at node 1)
Accepted packet rate average = 0.101281
	minimum = 0.088 (at node 14)
	maximum = 0.11 (at node 4)
Injected flit rate average = 0.101562
	minimum = 0.089 (at node 11)
	maximum = 0.111 (at node 1)
Accepted flit rate average= 0.101281
	minimum = 0.088 (at node 14)
	maximum = 0.11 (at node 4)
Injected packet length average = 1
Accepted packet length average = 1
Total in-flight flits = 53 (53 measured)
latency change    = 0.101284
throughput change = 0.0212897
Class 0:
Packet latency average = 31.4539
	minimum = 7
	maximum = 453
Network latency average = 27.2366
	minimum = 7
	maximum = 261
Slowest packet = 4823
Flit latency average = 27.6028
	minimum = 7
	maximum = 261
Slowest flit = 4933
Fragmentation average = 0
	minimum = 0
	maximum = 0
Injected packet rate average = 0.101292
	minimum = 0.0926667 (at node 11)
	maximum = 0.108 (at node 2)
Accepted packet rate average = 0.101125
	minimum = 0.0916667 (at node 14)
	maximum = 0.108 (at node 8)
Injected flit rate average = 0.101292
	minimum = 0.0926667 (at node 11)
	maximum = 0.108 (at node 2)
Accepted flit rate average= 0.101125
	minimum = 0.0916667 (at node 14)
	maximum = 0.108 (at node 8)
Injected packet length average = 1
Accepted packet length average = 1
Total in-flight flits = 53 (53 measured)
latency change    = 0.027149
throughput change = 0.00154512
Class 0:
Packet latency average = 32.0417
	minimum = 7
	maximum = 453
Network latency average = 27.547
	minimum = 7
	maximum = 261
Slowest packet = 4823
Flit latency average = 27.8201
	minimum = 7
	maximum = 261
Slowest flit = 4933
Fragmentation average = 0
	minimum = 0
	maximum = 0
Injected packet rate average = 0.100906
	minimum = 0.09175 (at node 11)
	maximum = 0.106 (at node 1)
Accepted packet rate average = 0.100859
	minimum = 0.0915 (at node 14)
	maximum = 0.1075 (at node 8)
Injected flit rate average = 0.100906
	minimum = 0.09175 (at node 11)
	maximum = 0.106 (at node 1)
Accepted flit rate average= 0.100859
	minimum = 0.0915 (at node 14)
	maximum = 0.1075 (at node 8)
Injected packet length average = 1
Accepted packet length average = 1
Total in-flight flits = 48 (48 measured)
latency change    = 0.0183422
throughput change = 0.00263362
Class 0:
Packet latency average = 34.6838
	minimum = 7
	maximum = 498
Network latency average = 27.849
	minimum = 7
	maximum = 311
Slowest packet = 4823
Flit latency average = 28.0667
	minimum = 7
	maximum = 311
Slowest flit = 10781
Fragmentation average = 0
	minimum = 0
	maximum = 0
Injected packet rate average = 0.100538
	minimum = 0.091 (at node 11)
	maximum = 0.108 (at node 1)
Accepted packet rate average = 0.100475
	minimum = 0.0904 (at node 14)
	maximum = 0.1076 (at node 4)
Injected flit rate average = 0.100538
	minimum = 0.091 (at node 11)
	maximum = 0.108 (at node 1)
Accepted flit rate average= 0.100475
	minimum = 0.0904 (at node 14)
	maximum = 0.1076 (at node 4)
Injected packet length average = 1
Accepted packet length average = 1
Total in-flight flits = 50 (50 measured)
latency change    = 0.0761794
throughput change = 0.00382558
Class 0:
Packet latency average = 36.0063
	minimum = 7
	maximum = 528
Network latency average = 28.1341
	minimum = 7
	maximum = 311
Slowest packet = 4823
Flit latency average = 28.315
	minimum = 7
	maximum = 311
Slowest flit = 10781
Fragmentation average = 0
	minimum = 0
	maximum = 0
Injected packet rate average = 0.100062
	minimum = 0.0926667 (at node 9)
	maximum = 0.106333 (at node 1)
Accepted packet rate average = 0.10001
	minimum = 0.0921667 (at node 14)
	maximum = 0.106667 (at node 4)
Injected flit rate average = 0.100062
	minimum = 0.0926667 (at node 9)
	maximum = 0.106333 (at node 1)
Accepted flit rate average= 0.10001
	minimum = 0.0921667 (at node 14)
	maximum = 0.106667 (at node 4)
Injected packet length average = 1
Accepted packet length average = 1
Total in-flight flits = 50 (50 measured)
latency change    = 0.0367278
throughput change = 0.00464535
Class 0:
Packet latency average = 36.4563
	minimum = 7
	maximum = 528
Network latency average = 27.8972
	minimum = 7
	maximum = 311
Slowest packet = 4823
Flit latency average = 28.053
	minimum = 7
	maximum = 311
Slowest flit = 10781
Fragmentation average = 0
	minimum = 0
	maximum = 0
Injected packet rate average = 0.100187
	minimum = 0.0928571 (at node 11)
	maximum = 0.106143 (at node 2)
Accepted packet rate average = 0.100143
	minimum = 0.0924286 (at node 14)
	maximum = 0.106571 (at node 8)
Injected flit rate average = 0.100187
	minimum = 0.0928571 (at node 11)
	maximum = 0.106143 (at node 2)
Accepted flit rate average= 0.100143
	minimum = 0.0924286 (at node 14)
	maximum = 0.106571 (at node 8)
Injected packet length average = 1
Accepted packet length average = 1
Total in-flight flits = 49 (49 measured)
latency change    = 0.0123433
throughput change = 0.00132252
Draining all recorded packets ...
Draining remaining packets ...
Time taken is 10247 cycles
Class 0:
Packet latency average = 22.1274
	minimum = 7
	maximum = 80
Network latency average = 22.1129
	minimum = 7
	maximum = 80
Slowest packet = 17647
Flit latency average = 22.1129
	minimum = 7
	maximum = 80
Slowest flit = 17647
Fragmentation average = 0
	minimum = 0
	maximum = 0
Injected packet rate average = 0.0974375
	minimum = 0.087 (at node 10)
	maximum = 0.118 (at node 8)
Accepted packet rate average = 0.0951875
	minimum = 0.086 (at node 10)
	maximum = 0.115 (at node 2)
Injected flit rate average = 0.0974375
	minimum = 0.087 (at node 10)
	maximum = 0.118 (at node 8)
Accepted flit rate average= 0.0951875
	minimum = 0.086 (at node 10)
	maximum = 0.115 (at node 2)
Injected packet length average = 1
Accepted packet length average = 1
Total in-flight flits = 36 (0 measured)
latency change    = 1
throughput change = 1
Class 0:
Packet latency average = 24.4352
	minimum = 7
	maximum = 218
Network latency average = 24.1824
	minimum = 7
	maximum = 192
Slowest packet = 18538
Flit latency average = 24.1824
	minimum = 7
	maximum = 192
Slowest flit = 18538
Fragmentation average = 0
	minimum = 0
	maximum = 0
Injected packet rate average = 0.097375
	minimum = 0.0875 (at node 2)
	maximum = 0.117 (at node 8)
Accepted packet rate average = 0.0962812
	minimum = 0.0865 (at node 8)
	maximum = 0.1165 (at node 2)
Injected flit rate average = 0.097375
	minimum = 0.0875 (at node 2)
	maximum = 0.117 (at node 8)
Accepted flit rate average= 0.0962812
	minimum = 0.0865 (at node 8)
	maximum = 0.1165 (at node 2)
Injected packet length average = 1
Accepted packet length average = 1
Total in-flight flits = 35 (0 measured)
latency change    = 0.0944483
throughput change = 0.0113599
Class 0:
Packet latency average = 26.8696
	minimum = 7
	maximum = 270
Network latency average = 25.5837
	minimum = 7
	maximum = 178
Slowest packet = 19681
Flit latency average = 25.5837
	minimum = 7
	maximum = 178
Slowest flit = 19947
Fragmentation average = 0
	minimum = 0
	maximum = 0
Injected packet rate average = 0.099875
	minimum = 0.081 (at node 11)
	maximum = 0.115 (at node 4)
Accepted packet rate average = 0.0996875
	minimum = 0.08 (at node 14)
	maximum = 0.115 (at node 6)
Injected flit rate average = 0.099875
	minimum = 0.081 (at node 11)
	maximum = 0.115 (at node 4)
Accepted flit rate average= 0.0996875
	minimum = 0.08 (at node 14)
	maximum = 0.115 (at node 6)
Injected packet length average = 1
Accepted packet length average = 1
Total in-flight flits = 38 (0 measured)
latency change    = 0.0905985
throughput change = 0.0341693
Warmed up ...Time used is 3000 cycles
Class 0:
Packet latency average = 21.973
	minimum = 7
	maximum = 100
Network latency average = 21.923
	minimum = 7
	maximum = 100
Slowest packet = 21758
Flit latency average = 22.176
	minimum = 7
	maximum = 100
Slowest flit = 21758
Fragmentation average = 0
	minimum = 0
	maximum = 0
Injected packet rate average = 0.097625
	minimum = 0.083 (at node 8)
	maximum = 0.106 (at node 0)
Accepted packet rate average = 0.0973125
	minimum = 0.084 (at node 2)
	maximum = 0.108 (at node 0)
Injected flit rate average = 0.097625
	minimum = 0.083 (at node 8)
	maximum = 0.106 (at node 0)
Accepted flit rate average= 0.0973125
	minimum = 0.084 (at node 2)
	maximum = 0.108 (at node 0)
Injected packet length average = 1
Accepted packet length average = 1
Total in-flight flits = 44 (44 measured)
latency change    = 0.222845
throughput change = 0.0244059
Class 0:
Packet latency average = 23.3993
	minimum = 7
	maximum = 149
Network latency average = 23.1486
	minimum = 7
	maximum = 149
Slowest packet = 23954
Flit latency average = 23.2585
	minimum = 7
	maximum = 149
Slowest flit = 23954
Fragmentation average = 0
	minimum = 0
	maximum = 0
Injected packet rate average = 0.0988437
	minimum = 0.092 (at node 14)
	maximum = 0.1085 (at node 5)
Accepted packet rate average = 0.0987813
	minimum = 0.093 (at node 2)
	maximum = 0.1085 (at node 5)
Injected flit rate average = 0.0988437
	minimum = 0.092 (at node 14)
	maximum = 0.1085 (at node 5)
Accepted flit rate average= 0.0987813
	minimum = 0.093 (at node 2)
	maximum = 0.1085 (at node 5)
Injected packet length average = 1
Accepted packet length average = 1
Total in-flight flits = 41 (41 measured)
latency change    = 0.0609543
throughput change = 0.0148687
Class 0:
Packet latency average = 26.2528
	minimum = 7
	maximum = 267
Network latency average = 24.7123
	minimum = 7
	maximum = 244
Slowest packet = 24234
Flit latency average = 24.773
	minimum = 7
	maximum = 244
Slowest flit = 24234
Fragmentation average = 0
	minimum = 0
	maximum = 0
Injected packet rate average = 0.0990833
	minimum = 0.092 (at node 14)
	maximum = 0.108667 (at node 5)
Accepted packet rate average = 0.0988542
	minimum = 0.0916667 (at node 11)
	maximum = 0.108333 (at node 5)
Injected flit rate average = 0.0990833
	minimum = 0.092 (at node 14)
	maximum = 0.108667 (at node 5)
Accepted flit rate average= 0.0988542
	minimum = 0.0916667 (at node 11)
	maximum = 0.108333 (at node 5)
Injected packet length average = 1
Accepted packet length average = 1
Total in-flight flits = 50 (50 measured)
latency change    = 0.108694
throughput change = 0.000737619
Class 0:
Packet latency average = 28.9051
	minimum = 7
	maximum = 346
Network latency average = 25.4479
	minimum = 7
	maximum = 244
Slowest packet = 24234
Flit latency average = 25.489
	minimum = 7
	maximum = 244
Slowest flit = 24234
Fragmentation average = 0
	minimum = 0
	maximum = 0
Injected packet rate average = 0.0988281
	minimum = 0.09125 (at node 14)
	maximum = 0.10975 (at node 5)
Accepted packet rate average = 0.0987344
	minimum = 0.09175 (at node 11)
	maximum = 0.10975 (at node 5)
Injected flit rate average = 0.0988281
	minimum = 0.09125 (at node 14)
	maximum = 0.10975 (at node 5)
Accepted flit rate average= 0.0987344
	minimum = 0.09175 (at node 11)
	maximum = 0.10975 (at node 5)
Injected packet length average = 1
Accepted packet length average = 1
Total in-flight flits = 46 (46 measured)
latency change    = 0.0917587
throughput change = 0.00121327
Class 0:
Packet latency average = 30.532
	minimum = 7
	maximum = 425
Network latency average = 25.7946
	minimum = 7
	maximum = 244
Slowest packet = 24234
Flit latency average = 25.8257
	minimum = 7
	maximum = 244
Slowest flit = 24234
Fragmentation average = 0
	minimum = 0
	maximum = 0
Injected packet rate average = 0.0994375
	minimum = 0.0956 (at node 14)
	maximum = 0.108 (at node 5)
Accepted packet rate average = 0.0993875
	minimum = 0.096 (at node 1)
	maximum = 0.1078 (at node 5)
Injected flit rate average = 0.0994375
	minimum = 0.0956 (at node 14)
	maximum = 0.108 (at node 5)
Accepted flit rate average= 0.0993875
	minimum = 0.096 (at node 1)
	maximum = 0.1078 (at node 5)
Injected packet length average = 1
Accepted packet length average = 1
Total in-flight flits = 44 (44 measured)
latency change    = 0.0532858
throughput change = 0.0065715
Class 0:
Packet latency average = 32.7937
	minimum = 7
	maximum = 456
Network latency average = 26.3992
	minimum = 7
	maximum = 264
Slowest packet = 24234
Flit latency average = 26.4226
	minimum = 7
	maximum = 264
Slowest flit = 29649
Fragmentation average = 0
	minimum = 0
	maximum = 0
Injected packet rate average = 0.0996563
	minimum = 0.0946667 (at node 4)
	maximum = 0.106333 (at node 5)
Accepted packet rate average = 0.0995729
	minimum = 0.0946667 (at node 1)
	maximum = 0.106333 (at node 5)
Injected flit rate average = 0.0996563
	minimum = 0.0946667 (at node 4)
	maximum = 0.106333 (at node 5)
Accepted flit rate average= 0.0995729
	minimum = 0.0946667 (at node 1)
	maximum = 0.106333 (at node 5)
Injected packet length average = 1
Accepted packet length average = 1
Total in-flight flits = 47 (47 measured)
latency change    = 0.068967
throughput change = 0.00186212
Class 0:
Packet latency average = 35.4763
	minimum = 7
	maximum = 546
Network latency average = 26.7298
	minimum = 7
	maximum = 264
Slowest packet = 24234
Flit latency average = 26.7488
	minimum = 7
	maximum = 264
Slowest flit = 29649
Fragmentation average = 0
	minimum = 0
	maximum = 0
Injected packet rate average = 0.0990536
	minimum = 0.0932857 (at node 4)
	maximum = 0.103286 (at node 5)
Accepted packet rate average = 0.0988929
	minimum = 0.0932857 (at node 1)
	maximum = 0.103143 (at node 5)
Injected flit rate average = 0.0990536
	minimum = 0.0932857 (at node 4)
	maximum = 0.103286 (at node 5)
Accepted flit rate average= 0.0988929
	minimum = 0.0932857 (at node 1)
	maximum = 0.103143 (at node 5)
Injected packet length average = 1
Accepted packet length average = 1
Total in-flight flits = 58 (58 measured)
latency change    = 0.0756152
throughput change = 0.00687673
Draining all recorded packets ...
Draining remaining packets ...
Time taken is 10650 cycles
Class 0:
Packet latency average = 24.6705
	minimum = 7
	maximum = 213
Network latency average = 23.4423
	minimum = 7
	maximum = 168
Slowest packet = 34068
Flit latency average = 23.4423
	minimum = 7
	maximum = 168
Slowest flit = 34222
Fragmentation average = 0
	minimum = 0
	maximum = 0
Injected packet rate average = 0.0995625
	minimum = 0.086 (at node 4)
	maximum = 0.115 (at node 10)
Accepted packet rate average = 0.0969375
	minimum = 0.079 (at node 13)
	maximum = 0.115 (at node 10)
Injected flit rate average = 0.0995625
	minimum = 0.086 (at node 4)
	maximum = 0.115 (at node 10)
Accepted flit rate average= 0.0969375
	minimum = 0.079 (at node 13)
	maximum = 0.115 (at node 10)
Injected packet length average = 1
Accepted packet length average = 1
Total in-flight flits = 44 (0 measured)
latency change    = 1
throughput change = 1
Class 0:
Packet latency average = 30.1434
	minimum = 7
	maximum = 314
Network latency average = 25.3486
	minimum = 7
	maximum = 192
Slowest packet = 34068
Flit latency average = 25.3486
	minimum = 7
	maximum = 192
Slowest flit = 35595
Fragmentation average = 0
	minimum = 0
	maximum = 0
Injected packet rate average = 0.101187
	minimum = 0.0925 (at node 2)
	maximum = 0.1155 (at node 6)
Accepted packet rate average = 0.0995937
	minimum = 0.0885 (at node 13)
	maximum = 0.113 (at node 9)
Injected flit rate average = 0.101187
	minimum = 0.0925 (at node 2)
	maximum = 0.1155 (at node 6)
Accepted flit rate average= 0.0995937
	minimum = 0.0885 (at node 13)
	maximum = 0.113 (at node 9)
Injected packet length average = 1
Accepted packet length average = 1
Total in-flight flits = 53 (0 measured)
latency change    = 0.181561
throughput change = 0.0266709
Class 0:
Packet latency average = 33.1052
	minimum = 7
	maximum = 310
Network latency average = 27.4857
	minimum = 7
	maximum = 205
Slowest packet = 35973
Flit latency average = 27.4857
	minimum = 7
	maximum = 205
Slowest flit = 37038
Fragmentation average = 0
	minimum = 0
	maximum = 0
Injected packet rate average = 0.0979375
	minimum = 0.076 (at node 9)
	maximum = 0.126 (at node 10)
Accepted packet rate average = 0.0980625
	minimum = 0.077 (at node 6)
	maximum = 0.128 (at node 10)
Injected flit rate average = 0.0979375
	minimum = 0.076 (at node 9)
	maximum = 0.126 (at node 10)
Accepted flit rate average= 0.0980625
	minimum = 0.077 (at node 6)
	maximum = 0.128 (at node 10)
Injected packet length average = 1
Accepted packet length average = 1
Total in-flight flits = 50 (0 measured)
latency change    = 0.0894654
throughput change = 0.015615
Warmed up ...Time used is 3000 cycles
Class 0:
Packet latency average = 49.8018
	minimum = 7
	maximum = 558
Network latency average = 27.898
	minimum = 7
	maximum = 220
Slowest packet = 37872
Flit latency average = 29.0931
	minimum = 7
	maximum = 220
Slowest flit = 37830
Fragmentation average = 0
	minimum = 0
	maximum = 0
Injected packet rate average = 0.0986875
	minimum = 0.085 (at node 3)
	maximum = 0.115 (at node 2)
Accepted packet rate average = 0.0986875
	minimum = 0.084 (at node 3)
	maximum = 0.118 (at node 9)
Injected flit rate average = 0.0986875
	minimum = 0.085 (at node 3)
	maximum = 0.115 (at node 2)
Accepted flit rate average= 0.0986875
	minimum = 0.084 (at node 3)
	maximum = 0.118 (at node 9)
Injected packet length average = 1
Accepted packet length average = 1
Total in-flight flits = 52 (52 measured)
latency change    = 0.335262
throughput change = 0.00633312
Class 0:
Packet latency average = 54.4446
	minimum = 7
	maximum = 640
Network latency average = 28.4885
	minimum = 7
	maximum = 221
Slowest packet = 37872
Flit latency average = 29.0741
	minimum = 7
	maximum = 221
Slowest flit = 39278
Fragmentation average = 0
	minimum = 0
	maximum = 0
Injected packet rate average = 0.0990313
	minimum = 0.0905 (at node 3)
	maximum = 0.111 (at node 6)
Accepted packet rate average = 0.099125
	minimum = 0.091 (at node 12)
	maximum = 0.1125 (at node 9)
Injected flit rate average = 0.0990313
	minimum = 0.0905 (at node 3)
	maximum = 0.111 (at node 6)
Accepted flit rate average= 0.099125
	minimum = 0.091 (at node 12)
	maximum = 0.1125 (at node 9)
Injected packet length average = 1
Accepted packet length average = 1
Total in-flight flits = 48 (48 measured)
latency change    = 0.0852749
throughput change = 0.00441362
Class 0:
Packet latency average = 57.4503
	minimum = 7
	maximum = 640
Network latency average = 28.3362
	minimum = 7
	maximum = 221
Slowest packet = 37872
Flit latency average = 28.727
	minimum = 7
	maximum = 221
Slowest flit = 39278
Fragmentation average = 0
	minimum = 0
	maximum = 0
Injected packet rate average = 0.0992708
	minimum = 0.0913333 (at node 15)
	maximum = 0.106667 (at node 0)
Accepted packet rate average = 0.0994375
	minimum = 0.0916667 (at node 15)
	maximum = 0.107 (at node 0)
Injected flit rate average = 0.0992708
	minimum = 0.0913333 (at node 15)
	maximum = 0.106667 (at node 0)
Accepted flit rate average= 0.0994375
	minimum = 0.0916667 (at node 15)
	maximum = 0.107 (at node 0)
Injected packet length average = 1
Accepted packet length average = 1
Total in-flight flits = 43 (43 measured)
latency change    = 0.0523193
throughput change = 0.00314268
Class 0:
Packet latency average = 62.554
	minimum = 7
	maximum = 640
Network latency average = 28.2335
	minimum = 7
	maximum = 221
Slowest packet = 37872
Flit latency average = 28.525
	minimum = 7
	maximum = 221
Slowest flit = 39278
Fragmentation average = 0
	minimum = 0
	maximum = 0
Injected packet rate average = 0.100125
	minimum = 0.0935 (at node 9)
	maximum = 0.10925 (at node 5)
Accepted packet rate average = 0.100266
	minimum = 0.094 (at node 6)
	maximum = 0.109 (at node 5)
Injected flit rate average = 0.100125
	minimum = 0.0935 (at node 9)
	maximum = 0.10925 (at node 5)
Accepted flit rate average= 0.100266
	minimum = 0.094 (at node 6)
	maximum = 0.109 (at node 5)
Injected packet length average = 1
Accepted packet length average = 1
Total in-flight flits = 42 (42 measured)
latency change    = 0.0815872
throughput change = 0.00825931
Class 0:
Packet latency average = 66.5485
	minimum = 7
	maximum = 640
Network latency average = 28.3777
	minimum = 7
	maximum = 221
Slowest packet = 37872
Flit latency average = 28.6104
	minimum = 7
	maximum = 221
Slowest flit = 39278
Fragmentation average = 0
	minimum = 0
	maximum = 0
Injected packet rate average = 0.099925
	minimum = 0.0932 (at node 15)
	maximum = 0.1052 (at node 0)
Accepted packet rate average = 0.100075
	minimum = 0.0934 (at node 15)
	maximum = 0.1054 (at node 0)
Injected flit rate average = 0.099925
	minimum = 0.0932 (at node 15)
	maximum = 0.1052 (at node 0)
Accepted flit rate average= 0.100075
	minimum = 0.0934 (at node 15)
	maximum = 0.1054 (at node 0)
Injected packet length average = 1
Accepted packet length average = 1
Total in-flight flits = 38 (38 measured)
latency change    = 0.0600249
throughput change = 0.00190482
Class 0:
Packet latency average = 68.4259
	minimum = 7
	maximum = 640
Network latency average = 28.3504
	minimum = 7
	maximum = 221
Slowest packet = 37872
Flit latency average = 28.5446
	minimum = 7
	maximum = 221
Slowest flit = 39278
Fragmentation average = 0
	minimum = 0
	maximum = 0
Injected packet rate average = 0.100062
	minimum = 0.092 (at node 15)
	maximum = 0.107 (at node 0)
Accepted packet rate average = 0.10001
	minimum = 0.0918333 (at node 15)
	maximum = 0.107 (at node 0)
Injected flit rate average = 0.100062
	minimum = 0.092 (at node 15)
	maximum = 0.107 (at node 0)
Accepted flit rate average= 0.10001
	minimum = 0.0918333 (at node 15)
	maximum = 0.107 (at node 0)
Injected packet length average = 1
Accepted packet length average = 1
Total in-flight flits = 56 (56 measured)
latency change    = 0.0274371
throughput change = 0.000645766
Class 0:
Packet latency average = 71.6841
	minimum = 7
	maximum = 845
Network latency average = 28.4357
	minimum = 7
	maximum = 230
Slowest packet = 37872
Flit latency average = 28.6011
	minimum = 7
	maximum = 230
Slowest flit = 48032
Fragmentation average = 0
	minimum = 0
	maximum = 0
Injected packet rate average = 0.100402
	minimum = 0.095 (at node 15)
	maximum = 0.106857 (at node 0)
Accepted packet rate average = 0.100446
	minimum = 0.095 (at node 15)
	maximum = 0.106857 (at node 0)
Injected flit rate average = 0.100402
	minimum = 0.095 (at node 15)
	maximum = 0.106857 (at node 0)
Accepted flit rate average= 0.100446
	minimum = 0.095 (at node 15)
	maximum = 0.106857 (at node 0)
Injected packet length average = 1
Accepted packet length average = 1
Total in-flight flits = 46 (46 measured)
latency change    = 0.045452
throughput change = 0.00434074
Draining all recorded packets ...
Draining remaining packets ...
Time taken is 10825 cycles
Class 0:
Packet latency average = 21.3563
	minimum = 7
	maximum = 93
Network latency average = 21.3095
	minimum = 7
	maximum = 93
Slowest packet = 51662
Flit latency average = 21.3095
	minimum = 7
	maximum = 93
Slowest flit = 51662
Fragmentation average = 0
	minimum = 0
	maximum = 0
Injected packet rate average = 0.0996875
	minimum = 0.081 (at node 2)
	maximum = 0.118 (at node 5)
Accepted packet rate average = 0.096125
	minimum = 0.078 (at node 8)
	maximum = 0.118 (at node 5)
Injected flit rate average = 0.0996875
	minimum = 0.081 (at node 2)
	maximum = 0.118 (at node 5)
Accepted flit rate average= 0.096125
	minimum = 0.078 (at node 8)
	maximum = 0.118 (at node 5)
Injected packet length average = 1
Accepted packet length average = 1
Total in-flight flits = 57 (0 measured)
latency change    = 1
throughput change = 1
Class 0:
Packet latency average = 26.4672
	minimum = 7
	maximum = 268
Network latency average = 24.7642
	minimum = 7
	maximum = 225
Slowest packet = 52016
Flit latency average = 24.7642
	minimum = 7
	maximum = 225
Slowest flit = 52504
Fragmentation average = 0
	minimum = 0
	maximum = 0
Injected packet rate average = 0.0985625
	minimum = 0.0875 (at node 3)
	maximum = 0.1135 (at node 5)
Accepted packet rate average = 0.097125
	minimum = 0.0815 (at node 12)
	maximum = 0.113 (at node 5)
Injected flit rate average = 0.0985625
	minimum = 0.0875 (at node 3)
	maximum = 0.1135 (at node 5)
Accepted flit rate average= 0.097125
	minimum = 0.0815 (at node 12)
	maximum = 0.113 (at node 5)
Injected packet length average = 1
Accepted packet length average = 1
Total in-flight flits = 47 (0 measured)
latency change    = 0.193102
throughput change = 0.010296
Class 0:
Packet latency average = 33.2397
	minimum = 7
	maximum = 258
Network latency average = 27.3525
	minimum = 7
	maximum = 196
Slowest packet = 53164
Flit latency average = 27.3525
	minimum = 7
	maximum = 196
Slowest flit = 53226
Fragmentation average = 0
	minimum = 0
	maximum = 0
Injected packet rate average = 0.103125
	minimum = 0.084 (at node 6)
	maximum = 0.117 (at node 7)
Accepted packet rate average = 0.103
	minimum = 0.084 (at node 9)
	maximum = 0.114 (at node 3)
Injected flit rate average = 0.103125
	minimum = 0.084 (at node 6)
	maximum = 0.117 (at node 7)
Accepted flit rate average= 0.103
	minimum = 0.084 (at node 9)
	maximum = 0.114 (at node 3)
Injected packet length average = 1
Accepted packet length average = 1
Total in-flight flits = 50 (0 measured)
latency change    = 0.203748
throughput change = 0.0570388
Warmed up ...Time used is 3000 cycles
Class 0:
Packet latency average = 41.2388
	minimum = 7
	maximum = 334
Network latency average = 27.278
	minimum = 7
	maximum = 181
Slowest packet = 55101
Flit latency average = 28.248
	minimum = 7
	maximum = 181
Slowest flit = 56380
Fragmentation average = 0
	minimum = 0
	maximum = 0
Injected packet rate average = 0.102063
	minimum = 0.079 (at node 6)
	maximum = 0.124 (at node 9)
Accepted packet rate average = 0.102063
	minimum = 0.08 (at node 9)
	maximum = 0.123 (at node 6)
Injected flit rate average = 0.102063
	minimum = 0.079 (at node 6)
	maximum = 0.124 (at node 9)
Accepted flit rate average= 0.102063
	minimum = 0.08 (at node 9)
	maximum = 0.123 (at node 6)
Injected packet length average = 1
Accepted packet length average = 1
Total in-flight flits = 50 (50 measured)
latency change    = 0.19397
throughput change = 0.00918555
Class 0:
Packet latency average = 43.0469
	minimum = 7
	maximum = 384
Network latency average = 27.7741
	minimum = 7
	maximum = 236
Slowest packet = 55101
Flit latency average = 28.2538
	minimum = 7
	maximum = 236
Slowest flit = 56920
Fragmentation average = 0
	minimum = 0
	maximum = 0
Injected packet rate average = 0.10125
	minimum = 0.083 (at node 6)
	maximum = 0.1155 (at node 9)
Accepted packet rate average = 0.101562
	minimum = 0.0835 (at node 9)
	maximum = 0.1155 (at node 6)
Injected flit rate average = 0.10125
	minimum = 0.083 (at node 6)
	maximum = 0.1155 (at node 9)
Accepted flit rate average= 0.101562
	minimum = 0.0835 (at node 9)
	maximum = 0.1155 (at node 6)
Injected packet length average = 1
Accepted packet length average = 1
Total in-flight flits = 39 (39 measured)
latency change    = 0.0420028
throughput change = 0.00492308
Class 0:
Packet latency average = 42.3328
	minimum = 7
	maximum = 412
Network latency average = 27.835
	minimum = 7
	maximum = 236
Slowest packet = 55101
Flit latency average = 28.1583
	minimum = 7
	maximum = 236
Slowest flit = 56920
Fragmentation average = 0
	minimum = 0
	maximum = 0
Injected packet rate average = 0.100146
	minimum = 0.0886667 (at node 6)
	maximum = 0.111 (at node 9)
Accepted packet rate average = 0.100271
	minimum = 0.0883333 (at node 9)
	maximum = 0.110333 (at node 6)
Injected flit rate average = 0.100146
	minimum = 0.0886667 (at node 6)
	maximum = 0.111 (at node 9)
Accepted flit rate average= 0.100271
	minimum = 0.0883333 (at node 9)
	maximum = 0.110333 (at node 6)
Injected packet length average = 1
Accepted packet length average = 1
Total in-flight flits = 43 (43 measured)
latency change    = 0.0168688
throughput change = 0.0128818
Class 0:
Packet latency average = 41.0541
	minimum = 7
	maximum = 412
Network latency average = 27.6487
	minimum = 7
	maximum = 236
Slowest packet = 55101
Flit latency average = 27.8922
	minimum = 7
	maximum = 236
Slowest flit = 56920
Fragmentation average = 0
	minimum = 0
	maximum = 0
Injected packet rate average = 0.100359
	minimum = 0.09225 (at node 4)
	maximum = 0.10675 (at node 15)
Accepted packet rate average = 0.100453
	minimum = 0.09225 (at node 1)
	maximum = 0.10675 (at node 15)
Injected flit rate average = 0.100359
	minimum = 0.09225 (at node 4)
	maximum = 0.10675 (at node 15)
Accepted flit rate average= 0.100453
	minimum = 0.09225 (at node 1)
	maximum = 0.10675 (at node 15)
Injected packet length average = 1
Accepted packet length average = 1
Total in-flight flits = 42 (42 measured)
latency change    = 0.0311465
throughput change = 0.00181469
Draining all recorded packets ...
Draining remaining packets ...
Time taken is 7368 cycles
Class 0:
Packet latency average = 24.7238
	minimum = 7
	maximum = 146
Network latency average = 24.1941
	minimum = 7
	maximum = 146
Slowest packet = 63156
Flit latency average = 24.1941
	minimum = 7
	maximum = 146
Slowest flit = 63156
Fragmentation average = 0
	minimum = 0
	maximum = 0
Injected packet rate average = 0.098
	minimum = 0.084 (at node 11)
	maximum = 0.114 (at node 6)
Accepted packet rate average = 0.0959375
	minimum = 0.084 (at node 14)
	maximum = 0.112 (at node 9)
Injected flit rate average = 0.098
	minimum = 0.084 (at node 11)
	maximum = 0.114 (at node 6)
Accepted flit rate average= 0.0959375
	minimum = 0.084 (at node 14)
	maximum = 0.112 (at node 9)
Injected packet length average = 1
Accepted packet length average = 1
Total in-flight flits = 33 (0 measured)
latency change    = 1
throughput change = 1
Class 0:
Packet latency average = 23.5399
	minimum = 7
	maximum = 146
Network latency average = 23.2317
	minimum = 7
	maximum = 146
Slowest packet = 63156
Flit latency average = 23.2317
	minimum = 7
	maximum = 146
Slowest flit = 63156
Fragmentation average = 0
	minimum = 0
	maximum = 0
Injected packet rate average = 0.097
	minimum = 0.0875 (at node 7)
	maximum = 0.1085 (at node 4)
Accepted packet rate average = 0.0960312
	minimum = 0.0865 (at node 13)
	maximum = 0.1075 (at node 1)
Injected flit rate average = 0.097
	minimum = 0.0875 (at node 7)
	maximum = 0.1085 (at node 4)
Accepted flit rate average= 0.0960312
	minimum = 0.0865 (at node 13)
	maximum = 0.1075 (at node 1)
Injected packet length average = 1
Accepted packet length average = 1
Total in-flight flits = 31 (0 measured)
latency change    = 0.0502941
throughput change = 0.000976245
Class 0:
Packet latency average = 25.2651
	minimum = 7
	maximum = 205
Network latency average = 24.3025
	minimum = 7
	maximum = 193
Slowest packet = 66098
Flit latency average = 24.3025
	minimum = 7
	maximum = 193
Slowest flit = 66098
Fragmentation average = 0
	minimum = 0
	maximum = 0
Injected packet rate average = 0.0999375
	minimum = 0.085 (at node 0)
	maximum = 0.121 (at node 12)
Accepted packet rate average = 0.0985625
	minimum = 0.078 (at node 12)
	maximum = 0.123 (at node 3)
Injected flit rate average = 0.0999375
	minimum = 0.085 (at node 0)
	maximum = 0.121 (at node 12)
Accepted flit rate average= 0.0985625
	minimum = 0.078 (at node 12)
	maximum = 0.123 (at node 3)
Injected packet length average = 1
Accepted packet length average = 1
Total in-flight flits = 55 (0 measured)
latency change    = 0.0682839
throughput change = 0.0256817
Warmed up ...Time used is 3000 cycles
Class 0:
Packet latency average = 24.8751
	minimum = 7
	maximum = 194
Network latency average = 23.7882
	minimum = 7
	maximum = 160
Slowest packet = 66678
Flit latency average = 25.0622
	minimum = 7
	maximum = 167
Slowest flit = 66521
Fragmentation average = 0
	minimum = 0
	maximum = 0
Injected packet rate average = 0.0994375
	minimum = 0.079 (at node 14)
	maximum = 0.12 (at node 13)
Accepted packet rate average = 0.1005
	minimum = 0.08 (at node 11)
	maximum = 0.123 (at node 7)
Injected flit rate average = 0.0994375
	minimum = 0.079 (at node 14)
	maximum = 0.12 (at node 13)
Accepted flit rate average= 0.1005
	minimum = 0.08 (at node 11)
	maximum = 0.123 (at node 7)
Injected packet length average = 1
Accepted packet length average = 1
Total in-flight flits = 36 (36 measured)
latency change    = 0.0156775
throughput change = 0.0192786
Class 0:
Packet latency average = 24.5468
	minimum = 7
	maximum = 194
Network latency average = 23.907
	minimum = 7
	maximum = 160
Slowest packet = 66678
Flit latency average = 24.54
	minimum = 7
	maximum = 167
Slowest flit = 66521
Fragmentation average = 0
	minimum = 0
	maximum = 0
Injected packet rate average = 0.100375
	minimum = 0.089 (at node 6)
	maximum = 0.112 (at node 1)
Accepted packet rate average = 0.100812
	minimum = 0.0905 (at node 9)
	maximum = 0.111 (at node 4)
Injected flit rate average = 0.100375
	minimum = 0.089 (at node 6)
	maximum = 0.112 (at node 1)
Accepted flit rate average= 0.100812
	minimum = 0.0905 (at node 9)
	maximum = 0.111 (at node 4)
Injected packet length average = 1
Accepted packet length average = 1
Total in-flight flits = 39 (39 measured)
latency change    = 0.0133724
throughput change = 0.00309981
Class 0:
Packet latency average = 24.2098
	minimum = 7
	maximum = 194
Network latency average = 23.7468
	minimum = 7
	maximum = 160
Slowest packet = 66678
Flit latency average = 24.1764
	minimum = 7
	maximum = 167
Slowest flit = 66521
Fragmentation average = 0
	minimum = 0
	maximum = 0
Injected packet rate average = 0.098875
	minimum = 0.0846667 (at node 6)
	maximum = 0.106667 (at node 9)
Accepted packet rate average = 0.0994583
	minimum = 0.0856667 (at node 9)
	maximum = 0.107333 (at node 7)
Injected flit rate average = 0.098875
	minimum = 0.0846667 (at node 6)
	maximum = 0.106667 (at node 9)
Accepted flit rate average= 0.0994583
	minimum = 0.0856667 (at node 9)
	maximum = 0.107333 (at node 7)
Injected packet length average = 1
Accepted packet length average = 1
Total in-flight flits = 25 (25 measured)
latency change    = 0.0139217
throughput change = 0.0136154
Draining all recorded packets ...
Draining remaining packets ...
Time taken is 6078 cycles
Class 0:
Packet latency average = 24.9888
	minimum = 7
	maximum = 161
Network latency average = 24.4282
	minimum = 7
	maximum = 118
Slowest packet = 72565
Flit latency average = 24.4282
	minimum = 7
	maximum = 118
Slowest flit = 72852
Fragmentation average = 0
	minimum = 0
	maximum = 0
Injected packet rate average = 0.103188
	minimum = 0.088 (at node 10)
	maximum = 0.118 (at node 14)
Accepted packet rate average = 0.100562
	minimum = 0.087 (at node 10)
	maximum = 0.118 (at node 11)
Injected flit rate average = 0.103188
	minimum = 0.088 (at node 10)
	maximum = 0.118 (at node 14)
Accepted flit rate average= 0.100562
	minimum = 0.087 (at node 10)
	maximum = 0.118 (at node 11)
Injected packet length average = 1
Accepted packet length average = 1
Total in-flight flits = 43 (0 measured)
latency change    = 1
throughput change = 1
Class 0:
Packet latency average = 30.6536
	minimum = 7
	maximum = 277
Network latency average = 26.3523
	minimum = 7
	maximum = 173
Slowest packet = 72565
Flit latency average = 26.3523
	minimum = 7
	maximum = 173
Slowest flit = 74223
Fragmentation average = 0
	minimum = 0
	maximum = 0
Injected packet rate average = 0.102406
	minimum = 0.088 (at node 10)
	maximum = 0.1175 (at node 12)
Accepted packet rate average = 0.101219
	minimum = 0.0875 (at node 10)
	maximum = 0.116 (at node 3)
Injected flit rate average = 0.102406
	minimum = 0.088 (at node 10)
	maximum = 0.1175 (at node 12)
Accepted flit rate average= 0.101219
	minimum = 0.0875 (at node 10)
	maximum = 0.116 (at node 3)
Injected packet length average = 1
Accepted packet length average = 1
Total in-flight flits = 39 (0 measured)
latency change    = 0.1848
throughput change = 0.00648348
Class 0:
Packet latency average = 35.4157
	minimum = 7
	maximum = 323
Network latency average = 27.118
	minimum = 7
	maximum = 160
Slowest packet = 74678
Flit latency average = 27.118
	minimum = 7
	maximum = 160
Slowest flit = 75717
Fragmentation average = 0
	minimum = 0
	maximum = 0
Injected packet rate average = 0.100625
	minimum = 0.081 (at node 1)
	maximum = 0.117 (at node 13)
Accepted packet rate average = 0.100125
	minimum = 0.081 (at node 4)
	maximum = 0.116 (at node 7)
Injected flit rate average = 0.100625
	minimum = 0.081 (at node 1)
	maximum = 0.117 (at node 13)
Accepted flit rate average= 0.100125
	minimum = 0.081 (at node 4)
	maximum = 0.116 (at node 7)
Injected packet length average = 1
Accepted packet length average = 1
Total in-flight flits = 47 (0 measured)
latency change    = 0.134464
throughput change = 0.0109238
Warmed up ...Time used is 3000 cycles
Class 0:
Packet latency average = 35.6788
	minimum = 7
	maximum = 389
Network latency average = 27.6269
	minimum = 7
	maximum = 183
Slowest packet = 76358
Flit latency average = 28.5412
	minimum = 7
	maximum = 183
Slowest flit = 77517
Fragmentation average = 0
	minimum = 0
	maximum = 0
Injected packet rate average = 0.0993125
	minimum = 0.09 (at node 0)
	maximum = 0.118 (at node 1)
Accepted packet rate average = 0.0994375
	minimum = 0.089 (at node 0)
	maximum = 0.12 (at node 4)
Injected flit rate average = 0.0993125
	minimum = 0.09 (at node 0)
	maximum = 0.118 (at node 1)
Accepted flit rate average= 0.0994375
	minimum = 0.089 (at node 0)
	maximum = 0.12 (at node 4)
Injected packet length average = 1
Accepted packet length average = 1
Total in-flight flits = 46 (46 measured)
latency change    = 0.00737207
throughput change = 0.00691389
Class 0:
Packet latency average = 38.0373
	minimum = 7
	maximum = 389
Network latency average = 28.2328
	minimum = 7
	maximum = 239
Slowest packet = 76358
Flit latency average = 28.6845
	minimum = 7
	maximum = 239
Slowest flit = 77815
Fragmentation average = 0
	minimum = 0
	maximum = 0
Injected packet rate average = 0.098875
	minimum = 0.089 (at node 0)
	maximum = 0.117 (at node 1)
Accepted packet rate average = 0.0986563
	minimum = 0.089 (at node 0)
	maximum = 0.1155 (at node 4)
Injected flit rate average = 0.098875
	minimum = 0.089 (at node 0)
	maximum = 0.117 (at node 1)
Accepted flit rate average= 0.0986563
	minimum = 0.089 (at node 0)
	maximum = 0.1155 (at node 4)
Injected packet length average = 1
Accepted packet length average = 1
Total in-flight flits = 55 (55 measured)
latency change    = 0.062006
throughput change = 0.00791891
Class 0:
Packet latency average = 40.3005
	minimum = 7
	maximum = 538
Network latency average = 28.3513
	minimum = 7
	maximum = 240
Slowest packet = 76358
Flit latency average = 28.6444
	minimum = 7
	maximum = 240
Slowest flit = 80660
Fragmentation average = 0
	minimum = 0
	maximum = 0
Injected packet rate average = 0.100875
	minimum = 0.0923333 (at node 3)
	maximum = 0.117667 (at node 1)
Accepted packet rate average = 0.100958
	minimum = 0.092 (at node 12)
	maximum = 0.117667 (at node 4)
Injected flit rate average = 0.100875
	minimum = 0.0923333 (at node 3)
	maximum = 0.117667 (at node 1)
Accepted flit rate average= 0.100958
	minimum = 0.092 (at node 12)
	maximum = 0.117667 (at node 4)
Injected packet length average = 1
Accepted packet length average = 1
Total in-flight flits = 43 (43 measured)
latency change    = 0.0561577
throughput change = 0.0228023
Class 0:
Packet latency average = 45.7138
	minimum = 7
	maximum = 799
Network latency average = 28.713
	minimum = 7
	maximum = 280
Slowest packet = 76358
Flit latency average = 28.9319
	minimum = 7
	maximum = 280
Slowest flit = 82082
Fragmentation average = 0
	minimum = 0
	maximum = 0
Injected packet rate average = 0.100172
	minimum = 0.08925 (at node 3)
	maximum = 0.11025 (at node 1)
Accepted packet rate average = 0.100203
	minimum = 0.08925 (at node 12)
	maximum = 0.1105 (at node 4)
Injected flit rate average = 0.100172
	minimum = 0.08925 (at node 3)
	maximum = 0.11025 (at node 1)
Accepted flit rate average= 0.100203
	minimum = 0.08925 (at node 12)
	maximum = 0.1105 (at node 4)
Injected packet length average = 1
Accepted packet length average = 1
Total in-flight flits = 46 (46 measured)
latency change    = 0.118417
throughput change = 0.00753677
Class 0:
Packet latency average = 51.0997
	minimum = 7
	maximum = 799
Network latency average = 28.642
	minimum = 7
	maximum = 280
Slowest packet = 76358
Flit latency average = 28.8179
	minimum = 7
	maximum = 280
Slowest flit = 82082
Fragmentation average = 0
	minimum = 0
	maximum = 0
Injected packet rate average = 0.0999375
	minimum = 0.092 (at node 3)
	maximum = 0.1104 (at node 1)
Accepted packet rate average = 0.0999625
	minimum = 0.0918 (at node 12)
	maximum = 0.1102 (at node 4)
Injected flit rate average = 0.0999375
	minimum = 0.092 (at node 3)
	maximum = 0.1104 (at node 1)
Accepted flit rate average= 0.0999625
	minimum = 0.0918 (at node 12)
	maximum = 0.1102 (at node 4)
Injected packet length average = 1
Accepted packet length average = 1
Total in-flight flits = 46 (46 measured)
latency change    = 0.105401
throughput change = 0.00240715
Class 0:
Packet latency average = 54.95
	minimum = 7
	maximum = 838
Network latency average = 28.5917
	minimum = 7
	maximum = 280
Slowest packet = 76358
Flit latency average = 28.7394
	minimum = 7
	maximum = 280
Slowest flit = 82082
Fragmentation average = 0
	minimum = 0
	maximum = 0
Injected packet rate average = 0.0993333
	minimum = 0.0921667 (at node 0)
	maximum = 0.1075 (at node 1)
Accepted packet rate average = 0.0993646
	minimum = 0.092 (at node 0)
	maximum = 0.107833 (at node 4)
Injected flit rate average = 0.0993333
	minimum = 0.0921667 (at node 0)
	maximum = 0.1075 (at node 1)
Accepted flit rate average= 0.0993646
	minimum = 0.092 (at node 0)
	maximum = 0.107833 (at node 4)
Injected packet length average = 1
Accepted packet length average = 1
Total in-flight flits = 44 (44 measured)
latency change    = 0.0700676
throughput change = 0.0060174
Class 0:
Packet latency average = 57.2804
	minimum = 7
	maximum = 906
Network latency average = 28.47
	minimum = 7
	maximum = 280
Slowest packet = 76358
Flit latency average = 28.5967
	minimum = 7
	maximum = 280
Slowest flit = 82082
Fragmentation average = 0
	minimum = 0
	maximum = 0
Injected packet rate average = 0.0998304
	minimum = 0.0944286 (at node 5)
	maximum = 0.107143 (at node 1)
Accepted packet rate average = 0.09975
	minimum = 0.0944286 (at node 5)
	maximum = 0.107143 (at node 4)
Injected flit rate average = 0.0998304
	minimum = 0.0944286 (at node 5)
	maximum = 0.107143 (at node 1)
Accepted flit rate average= 0.09975
	minimum = 0.0944286 (at node 5)
	maximum = 0.107143 (at node 4)
Injected packet length average = 1
Accepted packet length average = 1
Total in-flight flits = 57 (57 measured)
latency change    = 0.0406841
throughput change = 0.00386383
Draining all recorded packets ...
Draining remaining packets ...
Time taken is 11010 cycles
Class 0:
Packet latency average = 21.5798
	minimum = 7
	maximum = 117
Network latency average = 21.506
	minimum = 7
	maximum = 111
Slowest packet = 90384
Flit latency average = 21.506
	minimum = 7
	maximum = 111
Slowest flit = 90384
Fragmentation average = 0
	minimum = 0
	maximum = 0
Injected packet rate average = 0.101125
	minimum = 0.086 (at node 2)
	maximum = 0.112 (at node 14)
Accepted packet rate average = 0.0983125
	minimum = 0.084 (at node 8)
	maximum = 0.107 (at node 11)
Injected flit rate average = 0.101125
	minimum = 0.086 (at node 2)
	maximum = 0.112 (at node 14)
Accepted flit rate average= 0.0983125
	minimum = 0.084 (at node 8)
	maximum = 0.107 (at node 11)
Injected packet length average = 1
Accepted packet length average = 1
Total in-flight flits = 45 (0 measured)
latency change    = 1
throughput change = 1
Class 0:
Packet latency average = 26.7424
	minimum = 7
	maximum = 256
Network latency average = 24.9915
	minimum = 7
	maximum = 213
Slowest packet = 91592
Flit latency average = 24.9915
	minimum = 7
	maximum = 213
Slowest flit = 91592
Fragmentation average = 0
	minimum = 0
	maximum = 0
Injected packet rate average = 0.100281
	minimum = 0.0925 (at node 9)
	maximum = 0.1115 (at node 14)
Accepted packet rate average = 0.098875
	minimum = 0.0915 (at node 7)
	maximum = 0.1105 (at node 11)
Injected flit rate average = 0.100281
	minimum = 0.0925 (at node 9)
	maximum = 0.1115 (at node 14)
Accepted flit rate average= 0.098875
	minimum = 0.0915 (at node 7)
	maximum = 0.1105 (at node 11)
Injected packet length average = 1
Accepted packet length average = 1
Total in-flight flits = 46 (0 measured)
latency change    = 0.19305
throughput change = 0.005689
Class 0:
Packet latency average = 35.9345
	minimum = 7
	maximum = 279
Network latency average = 27.7171
	minimum = 7
	maximum = 210
Slowest packet = 92098
Flit latency average = 27.7171
	minimum = 7
	maximum = 210
Slowest flit = 92925
Fragmentation average = 0
	minimum = 0
	maximum = 0
Injected packet rate average = 0.099
	minimum = 0.086 (at node 12)
	maximum = 0.116 (at node 0)
Accepted packet rate average = 0.0991875
	minimum = 0.086 (at node 3)
	maximum = 0.116 (at node 0)
Injected flit rate average = 0.099
	minimum = 0.086 (at node 12)
	maximum = 0.116 (at node 0)
Accepted flit rate average= 0.0991875
	minimum = 0.086 (at node 3)
	maximum = 0.116 (at node 0)
Injected packet length average = 1
Accepted packet length average = 1
Total in-flight flits = 44 (0 measured)
latency change    = 0.2558
throughput change = 0.0031506
Warmed up ...Time used is 3000 cycles
Class 0:
Packet latency average = 45.2966
	minimum = 7
	maximum = 468
Network latency average = 28.7768
	minimum = 7
	maximum = 251
Slowest packet = 93860
Flit latency average = 29.6744
	minimum = 7
	maximum = 251
Slowest flit = 94191
Fragmentation average = 0
	minimum = 0
	maximum = 0
Injected packet rate average = 0.0988125
	minimum = 0.083 (at node 5)
	maximum = 0.118 (at node 12)
Accepted packet rate average = 0.0990625
	minimum = 0.083 (at node 5)
	maximum = 0.117 (at node 7)
Injected flit rate average = 0.0988125
	minimum = 0.083 (at node 5)
	maximum = 0.118 (at node 12)
Accepted flit rate average= 0.0990625
	minimum = 0.083 (at node 5)
	maximum = 0.117 (at node 7)
Injected packet length average = 1
Accepted packet length average = 1
Total in-flight flits = 39 (39 measured)
latency change    = 0.206684
throughput change = 0.00126183
Class 0:
Packet latency average = 45.0426
	minimum = 7
	maximum = 482
Network latency average = 28.0384
	minimum = 7
	maximum = 251
Slowest packet = 93860
Flit latency average = 28.4978
	minimum = 7
	maximum = 251
Slowest flit = 94191
Fragmentation average = 0
	minimum = 0
	maximum = 0
Injected packet rate average = 0.0991563
	minimum = 0.089 (at node 14)
	maximum = 0.1085 (at node 12)
Accepted packet rate average = 0.099
	minimum = 0.0895 (at node 11)
	maximum = 0.109 (at node 4)
Injected flit rate average = 0.0991563
	minimum = 0.089 (at node 14)
	maximum = 0.1085 (at node 12)
Accepted flit rate average= 0.099
	minimum = 0.0895 (at node 11)
	maximum = 0.109 (at node 4)
Injected packet length average = 1
Accepted packet length average = 1
Total in-flight flits = 49 (49 measured)
latency change    = 0.00563882
throughput change = 0.000631313
Class 0:
Packet latency average = 45.5792
	minimum = 7
	maximum = 482
Network latency average = 28.1211
	minimum = 7
	maximum = 251
Slowest packet = 93860
Flit latency average = 28.425
	minimum = 7
	maximum = 251
Slowest flit = 94191
Fragmentation average = 0
	minimum = 0
	maximum = 0
Injected packet rate average = 0.0997083
	minimum = 0.092 (at node 14)
	maximum = 0.108333 (at node 12)
Accepted packet rate average = 0.0995
	minimum = 0.0926667 (at node 11)
	maximum = 0.108667 (at node 3)
Injected flit rate average = 0.0997083
	minimum = 0.092 (at node 14)
	maximum = 0.108333 (at node 12)
Accepted flit rate average= 0.0995
	minimum = 0.0926667 (at node 11)
	maximum = 0.108667 (at node 3)
Injected packet length average = 1
Accepted packet length average = 1
Total in-flight flits = 54 (54 measured)
latency change    = 0.0117745
throughput change = 0.00502513
Class 0:
Packet latency average = 45.384
	minimum = 7
	maximum = 482
Network latency average = 27.8284
	minimum = 7
	maximum = 251
Slowest packet = 93860
Flit latency average = 28.0568
	minimum = 7
	maximum = 251
Slowest flit = 94191
Fragmentation average = 0
	minimum = 0
	maximum = 0
Injected packet rate average = 0.100266
	minimum = 0.09325 (at node 14)
	maximum = 0.10675 (at node 1)
Accepted packet rate average = 0.100203
	minimum = 0.09325 (at node 11)
	maximum = 0.1075 (at node 4)
Injected flit rate average = 0.100266
	minimum = 0.09325 (at node 14)
	maximum = 0.10675 (at node 1)
Accepted flit rate average= 0.100203
	minimum = 0.09325 (at node 11)
	maximum = 0.1075 (at node 4)
Injected packet length average = 1
Accepted packet length average = 1
Total in-flight flits = 48 (48 measured)
latency change    = 0.00430107
throughput change = 0.007017
Draining all recorded packets ...
Draining remaining packets ...
Time taken is 7293 cycles
Class 0:
Packet latency average = 24.006
	minimum = 7
	maximum = 138
Network latency average = 23.7849
	minimum = 7
	maximum = 138
Slowest packet = 101521
Flit latency average = 23.7849
	minimum = 7
	maximum = 138
Slowest flit = 101521
Fragmentation average = 0
	minimum = 0
	maximum = 0
Injected packet rate average = 0.0965
	minimum = 0.081 (at node 13)
	maximum = 0.109 (at node 2)
Accepted packet rate average = 0.0935625
	minimum = 0.078 (at node 7)
	maximum = 0.106 (at node 6)
Injected flit rate average = 0.0965
	minimum = 0.081 (at node 13)
	maximum = 0.109 (at node 2)
Accepted flit rate average= 0.0935625
	minimum = 0.078 (at node 7)
	maximum = 0.106 (at node 6)
Injected packet length average = 1
Accepted packet length average = 1
Total in-flight flits = 47 (0 measured)
latency change    = 1
throughput change = 1
Class 0:
Packet latency average = 30.8616
	minimum = 7
	maximum = 372
Network latency average = 26.2736
	minimum = 7
	maximum = 192
Slowest packet = 102208
Flit latency average = 26.2736
	minimum = 7
	maximum = 192
Slowest flit = 102208
Fragmentation average = 0
	minimum = 0
	maximum = 0
Injected packet rate average = 0.100437
	minimum = 0.086 (at node 13)
	maximum = 0.109 (at node 1)
Accepted packet rate average = 0.0989063
	minimum = 0.0835 (at node 7)
	maximum = 0.1075 (at node 4)
Injected flit rate average = 0.100437
	minimum = 0.086 (at node 13)
	maximum = 0.109 (at node 1)
Accepted flit rate average= 0.0989063
	minimum = 0.0835 (at node 7)
	maximum = 0.1075 (at node 4)
Injected packet length average = 1
Accepted packet length average = 1
Total in-flight flits = 51 (0 measured)
latency change    = 0.22214
throughput change = 0.0540284
Class 0:
Packet latency average = 50.8429
	minimum = 7
	maximum = 447
Network latency average = 28.5155
	minimum = 7
	maximum = 171
Slowest packet = 103711
Flit latency average = 28.5155
	minimum = 7
	maximum = 171
Slowest flit = 104168
Fragmentation average = 0
	minimum = 0
	maximum = 0
Injected packet rate average = 0.0984375
	minimum = 0.081 (at node 9)
	maximum = 0.11 (at node 0)
Accepted packet rate average = 0.0986875
	minimum = 0.08 (at node 6)
	maximum = 0.11 (at node 0)
Injected flit rate average = 0.0984375
	minimum = 0.081 (at node 9)
	maximum = 0.11 (at node 0)
Accepted flit rate average= 0.0986875
	minimum = 0.08 (at node 6)
	maximum = 0.11 (at node 0)
Injected packet length average = 1
Accepted packet length average = 1
Total in-flight flits = 46 (0 measured)
latency change    = 0.393001
throughput change = 0.00221659
Warmed up ...Time used is 3000 cycles
Class 0:
Packet latency average = 48.4019
	minimum = 7
	maximum = 371
Network latency average = 27.4161
	minimum = 7
	maximum = 154
Slowest packet = 105415
Flit latency average = 27.9338
	minimum = 7
	maximum = 154
Slowest flit = 106275
Fragmentation average = 0
	minimum = 0
	maximum = 0
Injected packet rate average = 0.1005
	minimum = 0.079 (at node 14)
	maximum = 0.128 (at node 9)
Accepted packet rate average = 0.100062
	minimum = 0.079 (at node 11)
	maximum = 0.128 (at node 6)
Injected flit rate average = 0.1005
	minimum = 0.079 (at node 14)
	maximum = 0.128 (at node 9)
Accepted flit rate average= 0.100062
	minimum = 0.079 (at node 11)
	maximum = 0.128 (at node 6)
Injected packet length average = 1
Accepted packet length average = 1
Total in-flight flits = 53 (53 measured)
latency change    = 0.0504321
throughput change = 0.0137414
Class 0:
Packet latency average = 54.2709
	minimum = 7
	maximum = 495
Network latency average = 28.0708
	minimum = 7
	maximum = 201
Slowest packet = 105415
Flit latency average = 28.322
	minimum = 7
	maximum = 201
Slowest flit = 108024
Fragmentation average = 0
	minimum = 0
	maximum = 0
Injected packet rate average = 0.0994063
	minimum = 0.087 (at node 14)
	maximum = 0.111 (at node 9)
Accepted packet rate average = 0.099375
	minimum = 0.087 (at node 11)
	maximum = 0.11 (at node 6)
Injected flit rate average = 0.0994063
	minimum = 0.087 (at node 14)
	maximum = 0.111 (at node 9)
Accepted flit rate average= 0.099375
	minimum = 0.087 (at node 11)
	maximum = 0.11 (at node 6)
Injected packet length average = 1
Accepted packet length average = 1
Total in-flight flits = 48 (48 measured)
latency change    = 0.108142
throughput change = 0.00691824
Class 0:
Packet latency average = 59.1328
	minimum = 7
	maximum = 537
Network latency average = 28.1642
	minimum = 7
	maximum = 201
Slowest packet = 105415
Flit latency average = 28.3285
	minimum = 7
	maximum = 201
Slowest flit = 108024
Fragmentation average = 0
	minimum = 0
	maximum = 0
Injected packet rate average = 0.100583
	minimum = 0.0916667 (at node 0)
	maximum = 0.111333 (at node 8)
Accepted packet rate average = 0.100708
	minimum = 0.0913333 (at node 0)
	maximum = 0.111333 (at node 2)
Injected flit rate average = 0.100583
	minimum = 0.0916667 (at node 0)
	maximum = 0.111333 (at node 8)
Accepted flit rate average= 0.100708
	minimum = 0.0913333 (at node 0)
	maximum = 0.111333 (at node 2)
Injected packet length average = 1
Accepted packet length average = 1
Total in-flight flits = 41 (41 measured)
latency change    = 0.0822205
throughput change = 0.0132396
Class 0:
Packet latency average = 62.534
	minimum = 7
	maximum = 537
Network latency average = 28.1466
	minimum = 7
	maximum = 201
Slowest packet = 105415
Flit latency average = 28.2702
	minimum = 7
	maximum = 201
Slowest flit = 108024
Fragmentation average = 0
	minimum = 0
	maximum = 0
Injected packet rate average = 0.100625
	minimum = 0.0955 (at node 0)
	maximum = 0.10925 (at node 8)
Accepted packet rate average = 0.100578
	minimum = 0.09525 (at node 0)
	maximum = 0.109 (at node 2)
Injected flit rate average = 0.100625
	minimum = 0.0955 (at node 0)
	maximum = 0.10925 (at node 8)
Accepted flit rate average= 0.100578
	minimum = 0.09525 (at node 0)
	maximum = 0.109 (at node 2)
Injected packet length average = 1
Accepted packet length average = 1
Total in-flight flits = 50 (50 measured)
latency change    = 0.0543896
throughput change = 0.0012946
Class 0:
Packet latency average = 60.6083
	minimum = 7
	maximum = 537
Network latency average = 28.142
	minimum = 7
	maximum = 201
Slowest packet = 105415
Flit latency average = 28.2406
	minimum = 7
	maximum = 201
Slowest flit = 108024
Fragmentation average = 0
	minimum = 0
	maximum = 0
Injected packet rate average = 0.100812
	minimum = 0.0938 (at node 2)
	maximum = 0.1092 (at node 8)
Accepted packet rate average = 0.100775
	minimum = 0.0936 (at node 8)
	maximum = 0.1088 (at node 2)
Injected flit rate average = 0.100812
	minimum = 0.0938 (at node 2)
	maximum = 0.1092 (at node 8)
Accepted flit rate average= 0.100775
	minimum = 0.0936 (at node 8)
	maximum = 0.1088 (at node 2)
Injected packet length average = 1
Accepted packet length average = 1
Total in-flight flits = 50 (50 measured)
latency change    = 0.0317737
throughput change = 0.00195361
Class 0:
Packet latency average = 59.7641
	minimum = 7
	maximum = 537
Network latency average = 28.3367
	minimum = 7
	maximum = 201
Slowest packet = 105415
Flit latency average = 28.4181
	minimum = 7
	maximum = 201
Slowest flit = 108024
Fragmentation average = 0
	minimum = 0
	maximum = 0
Injected packet rate average = 0.100698
	minimum = 0.0938333 (at node 0)
	maximum = 0.106667 (at node 8)
Accepted packet rate average = 0.100708
	minimum = 0.0938333 (at node 0)
	maximum = 0.1065 (at node 5)
Injected flit rate average = 0.100698
	minimum = 0.0938333 (at node 0)
	maximum = 0.106667 (at node 8)
Accepted flit rate average= 0.100708
	minimum = 0.0938333 (at node 0)
	maximum = 0.1065 (at node 5)
Injected packet length average = 1
Accepted packet length average = 1
Total in-flight flits = 46 (46 measured)
latency change    = 0.0141256
throughput change = 0.000661978
Class 0:
Packet latency average = 58.7565
	minimum = 7
	maximum = 537
Network latency average = 28.3816
	minimum = 7
	maximum = 201
Slowest packet = 105415
Flit latency average = 28.4512
	minimum = 7
	maximum = 201
Slowest flit = 108024
Fragmentation average = 0
	minimum = 0
	maximum = 0
Injected packet rate average = 0.100554
	minimum = 0.0927143 (at node 2)
	maximum = 0.105 (at node 7)
Accepted packet rate average = 0.100643
	minimum = 0.0927143 (at node 8)
	maximum = 0.104857 (at node 2)
Injected flit rate average = 0.100554
	minimum = 0.0927143 (at node 2)
	maximum = 0.105 (at node 7)
Accepted flit rate average= 0.100643
	minimum = 0.0927143 (at node 8)
	maximum = 0.104857 (at node 2)
Injected packet length average = 1
Accepted packet length average = 1
Total in-flight flits = 37 (37 measured)
latency change    = 0.0171476
throughput change = 0.00065058
Draining all recorded packets ...
Draining remaining packets ...
Time taken is 10371 cycles
Class 0:
Packet latency average = 26.7133
	minimum = 7
	maximum = 253
Network latency average = 25.458
	minimum = 7
	maximum = 239
Slowest packet = 118350
Flit latency average = 25.458
	minimum = 7
	maximum = 239
Slowest flit = 118366
Fragmentation average = 0
	minimum = 0
	maximum = 0
Injected packet rate average = 0.0985625
	minimum = 0.084 (at node 11)
	maximum = 0.111 (at node 2)
Accepted packet rate average = 0.09525
	minimum = 0.08 (at node 7)
	maximum = 0.107 (at node 4)
Injected flit rate average = 0.0985625
	minimum = 0.084 (at node 11)
	maximum = 0.111 (at node 2)
Accepted flit rate average= 0.09525
	minimum = 0.08 (at node 7)
	maximum = 0.107 (at node 4)
Injected packet length average = 1
Accepted packet length average = 1
Total in-flight flits = 55 (0 measured)
latency change    = 1
throughput change = 1
Class 0:
Packet latency average = 32.5982
	minimum = 7
	maximum = 272
Network latency average = 26.8455
	minimum = 7
	maximum = 239
Slowest packet = 118350
Flit latency average = 26.8455
	minimum = 7
	maximum = 239
Slowest flit = 118366
Fragmentation average = 0
	minimum = 0
	maximum = 0
Injected packet rate average = 0.0989063
	minimum = 0.0865 (at node 0)
	maximum = 0.1105 (at node 8)
Accepted packet rate average = 0.0976875
	minimum = 0.086 (at node 0)
	maximum = 0.109 (at node 2)
Injected flit rate average = 0.0989063
	minimum = 0.0865 (at node 0)
	maximum = 0.1105 (at node 8)
Accepted flit rate average= 0.0976875
	minimum = 0.086 (at node 0)
	maximum = 0.109 (at node 2)
Injected packet length average = 1
Accepted packet length average = 1
Total in-flight flits = 41 (0 measured)
latency change    = 0.18053
throughput change = 0.024952
Class 0:
Packet latency average = 39.3759
	minimum = 7
	maximum = 282
Network latency average = 27.9799
	minimum = 7
	maximum = 191
Slowest packet = 120223
Flit latency average = 27.9799
	minimum = 7
	maximum = 191
Slowest flit = 121041
Fragmentation average = 0
	minimum = 0
	maximum = 0
Injected packet rate average = 0.0995625
	minimum = 0.083 (at node 9)
	maximum = 0.117 (at node 11)
Accepted packet rate average = 0.0994375
	minimum = 0.081 (at node 6)
	maximum = 0.118 (at node 14)
Injected flit rate average = 0.0995625
	minimum = 0.083 (at node 9)
	maximum = 0.117 (at node 11)
Accepted flit rate average= 0.0994375
	minimum = 0.081 (at node 6)
	maximum = 0.118 (at node 14)
Injected packet length average = 1
Accepted packet length average = 1
Total in-flight flits = 43 (0 measured)
latency change    = 0.172127
throughput change = 0.017599
Warmed up ...Time used is 3000 cycles
Class 0:
Packet latency average = 38.5117
	minimum = 7
	maximum = 323
Network latency average = 28.1472
	minimum = 7
	maximum = 221
Slowest packet = 121928
Flit latency average = 28.9779
	minimum = 7
	maximum = 221
Slowest flit = 122058
Fragmentation average = 0
	minimum = 0
	maximum = 0
Injected packet rate average = 0.0994375
	minimum = 0.087 (at node 5)
	maximum = 0.117 (at node 8)
Accepted packet rate average = 0.0990625
	minimum = 0.087 (at node 5)
	maximum = 0.115 (at node 2)
Injected flit rate average = 0.0994375
	minimum = 0.087 (at node 5)
	maximum = 0.117 (at node 8)
Accepted flit rate average= 0.0990625
	minimum = 0.087 (at node 5)
	maximum = 0.115 (at node 2)
Injected packet length average = 1
Accepted packet length average = 1
Total in-flight flits = 49 (49 measured)
latency change    = 0.0224397
throughput change = 0.00378549
Class 0:
Packet latency average = 45.7764
	minimum = 7
	maximum = 370
Network latency average = 28.1573
	minimum = 7
	maximum = 221
Slowest packet = 121928
Flit latency average = 28.5731
	minimum = 7
	maximum = 221
Slowest flit = 122058
Fragmentation average = 0
	minimum = 0
	maximum = 0
Injected packet rate average = 0.09925
	minimum = 0.0865 (at node 5)
	maximum = 0.1115 (at node 11)
Accepted packet rate average = 0.0989063
	minimum = 0.0865 (at node 5)
	maximum = 0.111 (at node 13)
Injected flit rate average = 0.09925
	minimum = 0.0865 (at node 5)
	maximum = 0.1115 (at node 11)
Accepted flit rate average= 0.0989063
	minimum = 0.0865 (at node 5)
	maximum = 0.111 (at node 13)
Injected packet length average = 1
Accepted packet length average = 1
Total in-flight flits = 54 (54 measured)
latency change    = 0.158701
throughput change = 0.00157978
Class 0:
Packet latency average = 42.6748
	minimum = 7
	maximum = 370
Network latency average = 27.9407
	minimum = 7
	maximum = 221
Slowest packet = 121928
Flit latency average = 28.22
	minimum = 7
	maximum = 221
Slowest flit = 122058
Fragmentation average = 0
	minimum = 0
	maximum = 0
Injected packet rate average = 0.0987083
	minimum = 0.0856667 (at node 5)
	maximum = 0.107667 (at node 11)
Accepted packet rate average = 0.0988542
	minimum = 0.086 (at node 5)
	maximum = 0.108 (at node 13)
Injected flit rate average = 0.0987083
	minimum = 0.0856667 (at node 5)
	maximum = 0.107667 (at node 11)
Accepted flit rate average= 0.0988542
	minimum = 0.086 (at node 5)
	maximum = 0.108 (at node 13)
Injected packet length average = 1
Accepted packet length average = 1
Total in-flight flits = 34 (34 measured)
latency change    = 0.07268
throughput change = 0.00052687
Class 0:
Packet latency average = 37.9106
	minimum = 7
	maximum = 370
Network latency average = 26.7595
	minimum = 7
	maximum = 221
Slowest packet = 121928
Flit latency average = 26.9774
	minimum = 7
	maximum = 221
Slowest flit = 122058
Fragmentation average = 0
	minimum = 0
	maximum = 0
Injected packet rate average = 0.0989687
	minimum = 0.09225 (at node 5)
	maximum = 0.107 (at node 7)
Accepted packet rate average = 0.0987187
	minimum = 0.09175 (at node 3)
	maximum = 0.1065 (at node 13)
Injected flit rate average = 0.0989687
	minimum = 0.09225 (at node 5)
	maximum = 0.107 (at node 7)
Accepted flit rate average= 0.0987187
	minimum = 0.09175 (at node 3)
	maximum = 0.1065 (at node 13)
Injected packet length average = 1
Accepted packet length average = 1
Total in-flight flits = 57 (57 measured)
latency change    = 0.12567
throughput change = 0.00137174
Class 0:
Packet latency average = 36.1715
	minimum = 7
	maximum = 370
Network latency average = 26.8562
	minimum = 7
	maximum = 221
Slowest packet = 121928
Flit latency average = 27.0281
	minimum = 7
	maximum = 221
Slowest flit = 122058
Fragmentation average = 0
	minimum = 0
	maximum = 0
Injected packet rate average = 0.0997875
	minimum = 0.092 (at node 12)
	maximum = 0.1074 (at node 1)
Accepted packet rate average = 0.0998
	minimum = 0.0922 (at node 12)
	maximum = 0.1074 (at node 4)
Injected flit rate average = 0.0997875
	minimum = 0.092 (at node 12)
	maximum = 0.1074 (at node 1)
Accepted flit rate average= 0.0998
	minimum = 0.0922 (at node 12)
	maximum = 0.1074 (at node 4)
Injected packet length average = 1
Accepted packet length average = 1
Total in-flight flits = 42 (42 measured)
latency change    = 0.0480788
throughput change = 0.0108342
Class 0:
Packet latency average = 35.763
	minimum = 7
	maximum = 370
Network latency average = 27.1004
	minimum = 7
	maximum = 243
Slowest packet = 121928
Flit latency average = 27.2428
	minimum = 7
	maximum = 243
Slowest flit = 130551
Fragmentation average = 0
	minimum = 0
	maximum = 0
Injected packet rate average = 0.0995417
	minimum = 0.0893333 (at node 12)
	maximum = 0.106167 (at node 4)
Accepted packet rate average = 0.0995729
	minimum = 0.0896667 (at node 3)
	maximum = 0.106333 (at node 1)
Injected flit rate average = 0.0995417
	minimum = 0.0893333 (at node 12)
	maximum = 0.106167 (at node 4)
Accepted flit rate average= 0.0995729
	minimum = 0.0896667 (at node 3)
	maximum = 0.106333 (at node 1)
Injected packet length average = 1
Accepted packet length average = 1
Total in-flight flits = 40 (40 measured)
latency change    = 0.011422
throughput change = 0.00228057
Class 0:
Packet latency average = 38.1839
	minimum = 7
	maximum = 452
Network latency average = 27.2187
	minimum = 7
	maximum = 243
Slowest packet = 121928
Flit latency average = 27.3403
	minimum = 7
	maximum = 243
Slowest flit = 130551
Fragmentation average = 0
	minimum = 0
	maximum = 0
Injected packet rate average = 0.0997589
	minimum = 0.0907143 (at node 12)
	maximum = 0.107429 (at node 4)
Accepted packet rate average = 0.0996339
	minimum = 0.0907143 (at node 3)
	maximum = 0.107429 (at node 1)
Injected flit rate average = 0.0997589
	minimum = 0.0907143 (at node 12)
	maximum = 0.107429 (at node 4)
Accepted flit rate average= 0.0996339
	minimum = 0.0907143 (at node 3)
	maximum = 0.107429 (at node 1)
Injected packet length average = 1
Accepted packet length average = 1
Total in-flight flits = 57 (57 measured)
latency change    = 0.0633998
throughput change = 0.000612361
Draining all recorded packets ...
Draining remaining packets ...
Time taken is 10542 cycles
Class 0:
Packet latency average = 23.6878
	minimum = 7
	maximum = 140
Network latency average = 23.275
	minimum = 7
	maximum = 134
Slowest packet = 134149
Flit latency average = 23.275
	minimum = 7
	maximum = 134
Slowest flit = 134213
Fragmentation average = 0
	minimum = 0
	maximum = 0
Injected packet rate average = 0.0993125
	minimum = 0.079 (at node 2)
	maximum = 0.12 (at node 4)
Accepted packet rate average = 0.0975
	minimum = 0.079 (at node 8)
	maximum = 0.118 (at node 1)
Injected flit rate average = 0.0993125
	minimum = 0.079 (at node 2)
	maximum = 0.12 (at node 4)
Accepted flit rate average= 0.0975
	minimum = 0.079 (at node 8)
	maximum = 0.118 (at node 1)
Injected packet length average = 1
Accepted packet length average = 1
Total in-flight flits = 29 (0 measured)
latency change    = 1
throughput change = 1
Class 0:
Packet latency average = 22.96
	minimum = 7
	maximum = 140
Network latency average = 22.7509
	minimum = 7
	maximum = 134
Slowest packet = 134149
Flit latency average = 22.7509
	minimum = 7
	maximum = 134
Slowest flit = 134213
Fragmentation average = 0
	minimum = 0
	maximum = 0
Injected packet rate average = 0.100125
	minimum = 0.0875 (at node 2)
	maximum = 0.115 (at node 4)
Accepted packet rate average = 0.099125
	minimum = 0.0865 (at node 8)
	maximum = 0.115 (at node 1)
Injected flit rate average = 0.100125
	minimum = 0.0875 (at node 2)
	maximum = 0.115 (at node 4)
Accepted flit rate average= 0.099125
	minimum = 0.0865 (at node 8)
	maximum = 0.115 (at node 1)
Injected packet length average = 1
Accepted packet length average = 1
Total in-flight flits = 32 (0 measured)
latency change    = 0.0317012
throughput change = 0.0163934
Class 0:
Packet latency average = 26.8384
	minimum = 7
	maximum = 172
Network latency average = 25.6856
	minimum = 7
	maximum = 149
Slowest packet = 137929
Flit latency average = 25.6856
	minimum = 7
	maximum = 149
Slowest flit = 137929
Fragmentation average = 0
	minimum = 0
	maximum = 0
Injected packet rate average = 0.100437
	minimum = 0.078 (at node 5)
	maximum = 0.119 (at node 11)
Accepted packet rate average = 0.100187
	minimum = 0.079 (at node 5)
	maximum = 0.116 (at node 14)
Injected flit rate average = 0.100437
	minimum = 0.078 (at node 5)
	maximum = 0.119 (at node 11)
Accepted flit rate average= 0.100187
	minimum = 0.079 (at node 5)
	maximum = 0.116 (at node 14)
Injected packet length average = 1
Accepted packet length average = 1
Total in-flight flits = 36 (0 measured)
latency change    = 0.144512
throughput change = 0.0106051
Warmed up ...Time used is 3000 cycles
Class 0:
Packet latency average = 24.153
	minimum = 7
	maximum = 156
Network latency average = 24.0228
	minimum = 7
	maximum = 143
Slowest packet = 139236
Flit latency average = 24.2101
	minimum = 7
	maximum = 143
Slowest flit = 139236
Fragmentation average = 0
	minimum = 0
	maximum = 0
Injected packet rate average = 0.101875
	minimum = 0.075 (at node 7)
	maximum = 0.123 (at node 15)
Accepted packet rate average = 0.101125
	minimum = 0.074 (at node 13)
	maximum = 0.121 (at node 15)
Injected flit rate average = 0.101875
	minimum = 0.075 (at node 7)
	maximum = 0.123 (at node 15)
Accepted flit rate average= 0.101125
	minimum = 0.074 (at node 13)
	maximum = 0.121 (at node 15)
Injected packet length average = 1
Accepted packet length average = 1
Total in-flight flits = 49 (49 measured)
latency change    = 0.111185
throughput change = 0.0092707
Class 0:
Packet latency average = 31.8666
	minimum = 7
	maximum = 341
Network latency average = 26.6231
	minimum = 7
	maximum = 249
Slowest packet = 140247
Flit latency average = 26.69
	minimum = 7
	maximum = 249
Slowest flit = 140308
Fragmentation average = 0
	minimum = 0
	maximum = 0
Injected packet rate average = 0.0983125
	minimum = 0.0825 (at node 9)
	maximum = 0.111 (at node 15)
Accepted packet rate average = 0.097875
	minimum = 0.083 (at node 6)
	maximum = 0.11 (at node 15)
Injected flit rate average = 0.0983125
	minimum = 0.0825 (at node 9)
	maximum = 0.111 (at node 15)
Accepted flit rate average= 0.097875
	minimum = 0.083 (at node 6)
	maximum = 0.11 (at node 15)
Injected packet length average = 1
Accepted packet length average = 1
Total in-flight flits = 52 (52 measured)
latency change    = 0.24206
throughput change = 0.0332056
Class 0:
Packet latency average = 36.5227
	minimum = 7
	maximum = 377
Network latency average = 27.2751
	minimum = 7
	maximum = 249
Slowest packet = 140247
Flit latency average = 27.3144
	minimum = 7
	maximum = 249
Slowest flit = 140308
Fragmentation average = 0
	minimum = 0
	maximum = 0
Injected packet rate average = 0.0984583
	minimum = 0.0916667 (at node 7)
	maximum = 0.106667 (at node 6)
Accepted packet rate average = 0.0985208
	minimum = 0.091 (at node 13)
	maximum = 0.107333 (at node 9)
Injected flit rate average = 0.0984583
	minimum = 0.0916667 (at node 7)
	maximum = 0.106667 (at node 6)
Accepted flit rate average= 0.0985208
	minimum = 0.091 (at node 13)
	maximum = 0.107333 (at node 9)
Injected packet length average = 1
Accepted packet length average = 1
Total in-flight flits = 34 (34 measured)
latency change    = 0.127485
throughput change = 0.0065553
Class 0:
Packet latency average = 40.1242
	minimum = 7
	maximum = 405
Network latency average = 27.4678
	minimum = 7
	maximum = 249
Slowest packet = 140247
Flit latency average = 27.496
	minimum = 7
	maximum = 249
Slowest flit = 140308
Fragmentation average = 0
	minimum = 0
	maximum = 0
Injected packet rate average = 0.09925
	minimum = 0.0925 (at node 14)
	maximum = 0.10675 (at node 15)
Accepted packet rate average = 0.0991719
	minimum = 0.09225 (at node 11)
	maximum = 0.10675 (at node 9)
Injected flit rate average = 0.09925
	minimum = 0.0925 (at node 14)
	maximum = 0.10675 (at node 15)
Accepted flit rate average= 0.0991719
	minimum = 0.09225 (at node 11)
	maximum = 0.10675 (at node 9)
Injected packet length average = 1
Accepted packet length average = 1
Total in-flight flits = 43 (43 measured)
latency change    = 0.0897596
throughput change = 0.00656478
Class 0:
Packet latency average = 43.2577
	minimum = 7
	maximum = 483
Network latency average = 27.7055
	minimum = 7
	maximum = 249
Slowest packet = 140247
Flit latency average = 27.7271
	minimum = 7
	maximum = 249
Slowest flit = 140308
Fragmentation average = 0
	minimum = 0
	maximum = 0
Injected packet rate average = 0.0987375
	minimum = 0.092 (at node 1)
	maximum = 0.1076 (at node 6)
Accepted packet rate average = 0.0986125
	minimum = 0.092 (at node 4)
	maximum = 0.1078 (at node 9)
Injected flit rate average = 0.0987375
	minimum = 0.092 (at node 1)
	maximum = 0.1076 (at node 6)
Accepted flit rate average= 0.0986125
	minimum = 0.092 (at node 4)
	maximum = 0.1078 (at node 9)
Injected packet length average = 1
Accepted packet length average = 1
Total in-flight flits = 46 (46 measured)
latency change    = 0.0724381
throughput change = 0.00567246
Class 0:
Packet latency average = 45.475
	minimum = 7
	maximum = 486
Network latency average = 27.744
	minimum = 7
	maximum = 249
Slowest packet = 140247
Flit latency average = 27.7618
	minimum = 7
	maximum = 249
Slowest flit = 140308
Fragmentation average = 0
	minimum = 0
	maximum = 0
Injected packet rate average = 0.0991979
	minimum = 0.0935 (at node 1)
	maximum = 0.105833 (at node 6)
Accepted packet rate average = 0.0990833
	minimum = 0.0935 (at node 4)
	maximum = 0.105833 (at node 9)
Injected flit rate average = 0.0991979
	minimum = 0.0935 (at node 1)
	maximum = 0.105833 (at node 6)
Accepted flit rate average= 0.0990833
	minimum = 0.0935 (at node 4)
	maximum = 0.105833 (at node 9)
Injected packet length average = 1
Accepted packet length average = 1
Total in-flight flits = 48 (48 measured)
latency change    = 0.0487576
throughput change = 0.00475189
Class 0:
Packet latency average = 49.0361
	minimum = 7
	maximum = 706
Network latency average = 27.8966
	minimum = 7
	maximum = 249
Slowest packet = 140247
Flit latency average = 27.9114
	minimum = 7
	maximum = 249
Slowest flit = 140308
Fragmentation average = 0
	minimum = 0
	maximum = 0
Injected packet rate average = 0.0991875
	minimum = 0.0941429 (at node 1)
	maximum = 0.106571 (at node 6)
Accepted packet rate average = 0.0991161
	minimum = 0.0938571 (at node 4)
	maximum = 0.106286 (at node 9)
Injected flit rate average = 0.0991875
	minimum = 0.0941429 (at node 1)
	maximum = 0.106571 (at node 6)
Accepted flit rate average= 0.0991161
	minimum = 0.0938571 (at node 4)
	maximum = 0.106286 (at node 9)
Injected packet length average = 1
Accepted packet length average = 1
Total in-flight flits = 46 (46 measured)
latency change    = 0.0726215
throughput change = 0.000330301
Draining all recorded packets ...
Draining remaining packets ...
Time taken is 10615 cycles
Class 0:
Packet latency average = 36.254
	minimum = 7
	maximum = 299
Network latency average = 27.1787
	minimum = 7
	maximum = 205
Slowest packet = 150826
Flit latency average = 27.1787
	minimum = 7
	maximum = 205
Slowest flit = 150826
Fragmentation average = 0
	minimum = 0
	maximum = 0
Injected packet rate average = 0.104875
	minimum = 0.096 (at node 2)
	maximum = 0.119 (at node 12)
Accepted packet rate average = 0.102125
	minimum = 0.087 (at node 12)
	maximum = 0.117 (at node 3)
Injected flit rate average = 0.104875
	minimum = 0.096 (at node 2)
	maximum = 0.119 (at node 12)
Accepted flit rate average= 0.102125
	minimum = 0.087 (at node 12)
	maximum = 0.117 (at node 3)
Injected packet length average = 1
Accepted packet length average = 1
Total in-flight flits = 46 (0 measured)
latency change    = 1
throughput change = 1
Class 0:
Packet latency average = 34.4586
	minimum = 7
	maximum = 317
Network latency average = 27.4761
	minimum = 7
	maximum = 205
Slowest packet = 150826
Flit latency average = 27.4761
	minimum = 7
	maximum = 205
Slowest flit = 150826
Fragmentation average = 0
	minimum = 0
	maximum = 0
Injected packet rate average = 0.101187
	minimum = 0.0905 (at node 2)
	maximum = 0.1165 (at node 12)
[...]
	minimum = 0.0895 (at node 0)
	maximum = 0.10875 (at node 1)
Injected flit rate average = 0.0989687
	minimum = 0.08975 (at node 0)
	maximum = 0.1085 (at node 4)
Accepted flit rate average= 0.0990469
	minimum = 0.0895 (at node 0)
	maximum = 0.10875 (at node 1)
Injected packet length average = 1
Accepted packet length average = 1
Total in-flight flits = 34 (34 measured)
latency change    = 0.0115565
throughput change = 0.00583688
Class 0:
Packet latency average = 26.314
	minimum = 7
	maximum = 265
Network latency average = 25.1079
	minimum = 7
	maximum = 210
Slowest packet = 1469570
Flit latency average = 25.1804
	minimum = 7
	maximum = 210
Slowest flit = 1475061
Fragmentation average = 0
	minimum = 0
	maximum = 0
Injected packet rate average = 0.0993625
	minimum = 0.0914 (at node 0)
	maximum = 0.1074 (at node 4)
Accepted packet rate average = 0.0993375
	minimum = 0.0916 (at node 0)
	maximum = 0.1074 (at node 1)
Injected flit rate average = 0.0993625
	minimum = 0.0914 (at node 0)
	maximum = 0.1074 (at node 4)
Accepted flit rate average= 0.0993375
	minimum = 0.0916 (at node 0)
	maximum = 0.1074 (at node 1)
Injected packet length average = 1
Accepted packet length average = 1
Total in-flight flits = 43 (43 measured)
latency change    = 0.0229591
throughput change = 0.00292563
Draining all recorded packets ...
Draining remaining packets ...
Time taken is 8355 cycles
Class 0:
Packet latency average = 31.0352
	minimum = 7
	maximum = 277
Network latency average = 27.3533
	minimum = 7
	maximum = 211
Slowest packet = 1476434
Flit latency average = 27.3533
	minimum = 7
	maximum = 211
Slowest flit = 1476455
Fragmentation average = 0
	minimum = 0
	maximum = 0
Injected packet rate average = 0.0968125
	minimum = 0.084 (at node 11)
	maximum = 0.11 (at node 6)
Accepted packet rate average = 0.094125
	minimum = 0.083 (at node 14)
	maximum = 0.107 (at node 9)
Injected flit rate average = 0.0968125
	minimum = 0.084 (at node 11)
	maximum = 0.11 (at node 6)
Accepted flit rate average= 0.094125
	minimum = 0.083 (at node 14)
	maximum = 0.107 (at node 9)
Injected packet length average = 1
Accepted packet length average = 1
Total in-flight flits = 45 (0 measured)
latency change    = 1
throughput change = 1
Class 0:
Packet latency average = 26.9814
	minimum = 7
	maximum = 277
Network latency average = 24.7057
	minimum = 7
	maximum = 211
Slowest packet = 1476434
Flit latency average = 24.7057
	minimum = 7
	maximum = 211
Slowest flit = 1476455
Fragmentation average = 0
	minimum = 0
	maximum = 0
Injected packet rate average = 0.0968438
	minimum = 0.0865 (at node 11)
	maximum = 0.1075 (at node 15)
Accepted packet rate average = 0.0956875
	minimum = 0.086 (at node 14)
	maximum = 0.106 (at node 5)
Injected flit rate average = 0.0968438
	minimum = 0.0865 (at node 11)
	maximum = 0.1075 (at node 15)
Accepted flit rate average= 0.0956875
	minimum = 0.086 (at node 14)
	maximum = 0.106 (at node 5)
Injected packet length average = 1
Accepted packet length average = 1
Total in-flight flits = 37 (0 measured)
latency change    = 0.150245
throughput change = 0.0163292
Class 0:
Packet latency average = 22.6603
	minimum = 7
	maximum = 103
Network latency average = 22.5617
	minimum = 7
	maximum = 100
Slowest packet = 1479818
Flit latency average = 22.5617
	minimum = 7
	maximum = 100
Slowest flit = 1479818
Fragmentation average = 0
	minimum = 0
	maximum = 0
Injected packet rate average = 0.101062
	minimum = 0.089 (at node 8)
	maximum = 0.115 (at node 5)
Accepted packet rate average = 0.101375
	minimum = 0.088 (at node 2)
	maximum = 0.115 (at node 5)
Injected flit rate average = 0.101062
	minimum = 0.089 (at node 8)
	maximum = 0.115 (at node 5)
Accepted flit rate average= 0.101375
	minimum = 0.088 (at node 2)
	maximum = 0.115 (at node 5)
Injected packet length average = 1
Accepted packet length average = 1
Total in-flight flits = 32 (0 measured)
latency change    = 0.19069
throughput change = 0.0561036
Warmed up ...Time used is 3000 cycles
Class 0:
Packet latency average = 30.1303
	minimum = 7
	maximum = 286
Network latency average = 27.1506
	minimum = 7
	maximum = 246
Slowest packet = 1481503
Flit latency average = 27.4573
	minimum = 7
	maximum = 246
Slowest flit = 1481503
Fragmentation average = 0
	minimum = 0
	maximum = 0
Injected packet rate average = 0.0981875
	minimum = 0.082 (at node 14)
	maximum = 0.113 (at node 12)
Accepted packet rate average = 0.0974375
	minimum = 0.082 (at node 11)
	maximum = 0.115 (at node 3)
Injected flit rate average = 0.0981875
	minimum = 0.082 (at node 14)
	maximum = 0.113 (at node 12)
Accepted flit rate average= 0.0974375
	minimum = 0.082 (at node 11)
	maximum = 0.115 (at node 3)
Injected packet length average = 1
Accepted packet length average = 1
Total in-flight flits = 46 (46 measured)
latency change    = 0.247924
throughput change = 0.0404105
Class 0:
Packet latency average = 42.1797
	minimum = 7
	maximum = 494
Network latency average = 28.0915
	minimum = 7
	maximum = 246
Slowest packet = 1481503
Flit latency average = 28.2359
	minimum = 7
	maximum = 246
Slowest flit = 1481503
Fragmentation average = 0
	minimum = 0
	maximum = 0
Injected packet rate average = 0.097375
	minimum = 0.0835 (at node 9)
	maximum = 0.108 (at node 5)
Accepted packet rate average = 0.0969688
	minimum = 0.0835 (at node 6)
	maximum = 0.108 (at node 3)
Injected flit rate average = 0.097375
	minimum = 0.0835 (at node 9)
	maximum = 0.108 (at node 5)
Accepted flit rate average= 0.0969688
	minimum = 0.0835 (at node 6)
	maximum = 0.108 (at node 3)
Injected packet length average = 1
Accepted packet length average = 1
Total in-flight flits = 45 (45 measured)
latency change    = 0.285669
throughput change = 0.00483403
Class 0:
Packet latency average = 51.0426
	minimum = 7
	maximum = 627
Network latency average = 28.3278
	minimum = 7
	maximum = 246
Slowest packet = 1481503
Flit latency average = 28.4229
	minimum = 7
	maximum = 246
Slowest flit = 1481503
Fragmentation average = 0
	minimum = 0
	maximum = 0
Injected packet rate average = 0.0966667
	minimum = 0.086 (at node 9)
	maximum = 0.105667 (at node 6)
Accepted packet rate average = 0.0965
	minimum = 0.0856667 (at node 6)
	maximum = 0.105333 (at node 9)
Injected flit rate average = 0.0966667
	minimum = 0.086 (at node 9)
	maximum = 0.105667 (at node 6)
Accepted flit rate average= 0.0965
	minimum = 0.0856667 (at node 6)
	maximum = 0.105333 (at node 9)
Injected packet length average = 1
Accepted packet length average = 1
Total in-flight flits = 42 (42 measured)
latency change    = 0.173637
throughput change = 0.00485751
Class 0:
Packet latency average = 55.0171
	minimum = 7
	maximum = 686
Network latency average = 28.6552
	minimum = 7
	maximum = 246
Slowest packet = 1481503
Flit latency average = 28.7242
	minimum = 7
	maximum = 246
Slowest flit = 1481503
Fragmentation average = 0
	minimum = 0
	maximum = 0
Injected packet rate average = 0.0975625
	minimum = 0.08875 (at node 9)
	maximum = 0.108 (at node 6)
Accepted packet rate average = 0.0973281
	minimum = 0.08875 (at node 6)
	maximum = 0.1085 (at node 9)
Injected flit rate average = 0.0975625
	minimum = 0.08875 (at node 9)
	maximum = 0.108 (at node 6)
Accepted flit rate average= 0.0973281
	minimum = 0.08875 (at node 6)
	maximum = 0.1085 (at node 9)
Injected packet length average = 1
Accepted packet length average = 1
Total in-flight flits = 49 (49 measured)
latency change    = 0.0722411
throughput change = 0.00850859
Class 0:
Packet latency average = 60.7617
	minimum = 7
	maximum = 832
Network latency average = 28.5753
	minimum = 7
	maximum = 246
Slowest packet = 1481503
Flit latency average = 28.6305
	minimum = 7
	maximum = 246
Slowest flit = 1481503
Fragmentation average = 0
	minimum = 0
	maximum = 0
Injected packet rate average = 0.0981375
	minimum = 0.0898 (at node 9)
	maximum = 0.1082 (at node 6)
Accepted packet rate average = 0.0979125
	minimum = 0.0898 (at node 6)
	maximum = 0.1084 (at node 9)
Injected flit rate average = 0.0981375
	minimum = 0.0898 (at node 9)
	maximum = 0.1082 (at node 6)
Accepted flit rate average= 0.0979125
	minimum = 0.0898 (at node 6)
	maximum = 0.1084 (at node 9)
Injected packet length average = 1
Accepted packet length average = 1
Total in-flight flits = 51 (51 measured)
latency change    = 0.094543
throughput change = 0.00596834
Class 0:
Packet latency average = 64.5785
	minimum = 7
	maximum = 832
Network latency average = 28.4209
	minimum = 7
	maximum = 246
Slowest packet = 1481503
Flit latency average = 28.4674
	minimum = 7
	maximum = 246
Slowest flit = 1481503
Fragmentation average = 0
	minimum = 0
	maximum = 0
Injected packet rate average = 0.0983542
	minimum = 0.0915 (at node 9)
	maximum = 0.1065 (at node 6)
Accepted packet rate average = 0.0981146
	minimum = 0.0911667 (at node 6)
	maximum = 0.1065 (at node 9)
Injected flit rate average = 0.0983542
	minimum = 0.0915 (at node 9)
	maximum = 0.1065 (at node 6)
Accepted flit rate average= 0.0981146
	minimum = 0.0911667 (at node 6)
	maximum = 0.1065 (at node 9)
Injected packet length average = 1
Accepted packet length average = 1
Total in-flight flits = 56 (56 measured)
latency change    = 0.0591027
throughput change = 0.00205967
Class 0:
Packet latency average = 67.0022
	minimum = 7
	maximum = 832
Network latency average = 28.4021
	minimum = 7
	maximum = 246
Slowest packet = 1481503
Flit latency average = 28.4419
	minimum = 7
	maximum = 246
Slowest flit = 1481503
Fragmentation average = 0
	minimum = 0
	maximum = 0
Injected packet rate average = 0.0983839
	minimum = 0.0927143 (at node 9)
	maximum = 0.104571 (at node 6)
Accepted packet rate average = 0.0982321
	minimum = 0.0922857 (at node 6)
	maximum = 0.104714 (at node 9)
Injected flit rate average = 0.0983839
	minimum = 0.0927143 (at node 9)
	maximum = 0.104571 (at node 6)
Accepted flit rate average= 0.0982321
	minimum = 0.0922857 (at node 6)
	maximum = 0.104714 (at node 9)
Injected packet length average = 1
Accepted packet length average = 1
Total in-flight flits = 51 (51 measured)
latency change    = 0.0361739
throughput change = 0.00119675
Draining all recorded packets ...
Draining remaining packets ...
Time taken is 10556 cycles
Class 0:
Packet latency average = 21.4121
	minimum = 7
	maximum = 73
Network latency average = 21.4102
	minimum = 7
	maximum = 73
Slowest packet = 1493406
Flit latency average = 21.4102
	minimum = 7
	maximum = 73
Slowest flit = 1493406
Fragmentation average = 0
	minimum = 0
	maximum = 0
Injected packet rate average = 0.1005
	minimum = 0.084 (at node 0)
	maximum = 0.113 (at node 4)
Accepted packet rate average = 0.098125
	minimum = 0.081 (at node 12)
	maximum = 0.111 (at node 1)
Injected flit rate average = 0.1005
	minimum = 0.084 (at node 0)
	maximum = 0.113 (at node 4)
Accepted flit rate average= 0.098125
	minimum = 0.081 (at node 12)
	maximum = 0.111 (at node 1)
Injected packet length average = 1
Accepted packet length average = 1
Total in-flight flits = 38 (0 measured)
latency change    = 1
throughput change = 1
Class 0:
Packet latency average = 26.0852
	minimum = 7
	maximum = 254
Network latency average = 24.0019
	minimum = 7
	maximum = 193
Slowest packet = 1494923
Flit latency average = 24.0019
	minimum = 7
	maximum = 193
Slowest flit = 1494923
Fragmentation average = 0
	minimum = 0
	maximum = 0
Injected packet rate average = 0.09825
	minimum = 0.085 (at node 0)
	maximum = 0.107 (at node 2)
Accepted packet rate average = 0.0967812
	minimum = 0.0845 (at node 0)
	maximum = 0.1045 (at node 15)
Injected flit rate average = 0.09825
	minimum = 0.085 (at node 0)
	maximum = 0.107 (at node 2)
Accepted flit rate average= 0.0967812
	minimum = 0.0845 (at node 0)
	maximum = 0.1045 (at node 15)
Injected packet length average = 1
Accepted packet length average = 1
Total in-flight flits = 49 (0 measured)
latency change    = 0.179149
throughput change = 0.0138844
Class 0:
Packet latency average = 50.9359
	minimum = 7
	maximum = 401
Network latency average = 28.5488
	minimum = 7
	maximum = 221
Slowest packet = 1495588
Flit latency average = 28.5488
	minimum = 7
	maximum = 221
Slowest flit = 1495531
Fragmentation average = 0
	minimum = 0
	maximum = 0
Injected packet rate average = 0.100062
	minimum = 0.082 (at node 8)
	maximum = 0.133 (at node 13)
Accepted packet rate average = 0.100437
	minimum = 0.082 (at node 2)
	maximum = 0.131 (at node 7)
Injected flit rate average = 0.100062
	minimum = 0.082 (at node 8)
	maximum = 0.133 (at node 13)
Accepted flit rate average= 0.100437
	minimum = 0.082 (at node 2)
	maximum = 0.131 (at node 7)
Injected packet length average = 1
Accepted packet length average = 1
Total in-flight flits = 43 (0 measured)
latency change    = 0.487881
throughput change = 0.0364032
Warmed up ...Time used is 3000 cycles
Class 0:
Packet latency average = 40.5898
	minimum = 7
	maximum = 334
Network latency average = 28.0665
	minimum = 7
	maximum = 201
Slowest packet = 1497401
Flit latency average = 29.1546
	minimum = 7
	maximum = 231
Slowest flit = 1497342
Fragmentation average = 0
	minimum = 0
	maximum = 0
Injected packet rate average = 0.099625
	minimum = 0.087 (at node 0)
	maximum = 0.114 (at node 12)
Accepted packet rate average = 0.0994375
	minimum = 0.086 (at node 15)
	maximum = 0.112 (at node 3)
Injected flit rate average = 0.099625
	minimum = 0.087 (at node 0)
	maximum = 0.114 (at node 12)
Accepted flit rate average= 0.0994375
	minimum = 0.086 (at node 15)
	maximum = 0.112 (at node 3)
Injected packet length average = 1
Accepted packet length average = 1
Total in-flight flits = 46 (46 measured)
latency change    = 0.254894
throughput change = 0.0100566
Class 0:
Packet latency average = 38.7968
	minimum = 7
	maximum = 334
Network latency average = 28.1174
	minimum = 7
	maximum = 201
Slowest packet = 1497401
Flit latency average = 28.6675
	minimum = 7
	maximum = 231
Slowest flit = 1497342
Fragmentation average = 0
	minimum = 0
	maximum = 0
Injected packet rate average = 0.0983437
	minimum = 0.0885 (at node 10)
	maximum = 0.108 (at node 5)
Accepted packet rate average = 0.0982187
	minimum = 0.0885 (at node 10)
	maximum = 0.107 (at node 5)
Injected flit rate average = 0.0983437
	minimum = 0.0885 (at node 10)
	maximum = 0.108 (at node 5)
Accepted flit rate average= 0.0982187
	minimum = 0.0885 (at node 10)
	maximum = 0.107 (at node 5)
Injected packet length average = 1
Accepted packet length average = 1
Total in-flight flits = 46 (46 measured)
latency change    = 0.0462157
throughput change = 0.0124085
Class 0:
Packet latency average = 37.9482
	minimum = 7
	maximum = 334
Network latency average = 28.0996
	minimum = 7
	maximum = 201
Slowest packet = 1497401
Flit latency average = 28.4635
	minimum = 7
	maximum = 231
Slowest flit = 1497342
Fragmentation average = 0
	minimum = 0
	maximum = 0
Injected packet rate average = 0.0991458
	minimum = 0.0913333 (at node 10)
	maximum = 0.106 (at node 13)
Accepted packet rate average = 0.0990208
	minimum = 0.0913333 (at node 10)
	maximum = 0.105333 (at node 5)
Injected flit rate average = 0.0991458
	minimum = 0.0913333 (at node 10)
	maximum = 0.106 (at node 13)
Accepted flit rate average= 0.0990208
	minimum = 0.0913333 (at node 10)
	maximum = 0.105333 (at node 5)
Injected packet length average = 1
Accepted packet length average = 1
Total in-flight flits = 49 (49 measured)
latency change    = 0.0223615
throughput change = 0.00810015
Class 0:
Packet latency average = 41.9822
	minimum = 7
	maximum = 433
Network latency average = 28.4489
	minimum = 7
	maximum = 233
Slowest packet = 1497401
Flit latency average = 28.7199
	minimum = 7
	maximum = 233
Slowest flit = 1501998
Fragmentation average = 0
	minimum = 0
	maximum = 0
Injected packet rate average = 0.0988906
	minimum = 0.092 (at node 10)
	maximum = 0.1075 (at node 2)
Accepted packet rate average = 0.0988594
	minimum = 0.092 (at node 10)
	maximum = 0.10675 (at node 8)
Injected flit rate average = 0.0988906
	minimum = 0.092 (at node 10)
	maximum = 0.1075 (at node 2)
Accepted flit rate average= 0.0988594
	minimum = 0.092 (at node 10)
	maximum = 0.10675 (at node 8)
Injected packet length average = 1
Accepted packet length average = 1
Total in-flight flits = 45 (45 measured)
latency change    = 0.096088
throughput change = 0.00163321
Class 0:
Packet latency average = 42.8695
	minimum = 7
	maximum = 457
Network latency average = 28.3861
	minimum = 7
	maximum = 233
Slowest packet = 1497401
Flit latency average = 28.6016
	minimum = 7
	maximum = 233
Slowest flit = 1501998
Fragmentation average = 0
	minimum = 0
	maximum = 0
Injected packet rate average = 0.0996
	minimum = 0.095 (at node 3)
	maximum = 0.1048 (at node 2)
Accepted packet rate average = 0.0996125
	minimum = 0.095 (at node 12)
	maximum = 0.1056 (at node 8)
Injected flit rate average = 0.0996
	minimum = 0.095 (at node 3)
	maximum = 0.1048 (at node 2)
Accepted flit rate average= 0.0996125
	minimum = 0.095 (at node 12)
	maximum = 0.1056 (at node 8)
Injected packet length average = 1
Accepted packet length average = 1
Total in-flight flits = 41 (41 measured)
latency change    = 0.0206992
throughput change = 0.00756055
Class 0:
Packet latency average = 42.0922
	minimum = 7
	maximum = 457
Network latency average = 28.1871
	minimum = 7
	maximum = 233
Slowest packet = 1497401
Flit latency average = 28.367
	minimum = 7
	maximum = 233
Slowest flit = 1501998
Fragmentation average = 0
	minimum = 0
	maximum = 0
Injected packet rate average = 0.0999896
	minimum = 0.0958333 (at node 7)
	maximum = 0.104167 (at node 2)
Accepted packet rate average = 0.0998958
	minimum = 0.096 (at node 13)
	maximum = 0.104167 (at node 8)
Injected flit rate average = 0.0999896
	minimum = 0.0958333 (at node 7)
	maximum = 0.104167 (at node 2)
Accepted flit rate average= 0.0998958
	minimum = 0.096 (at node 13)
	maximum = 0.104167 (at node 8)
Injected packet length average = 1
Accepted packet length average = 1
Total in-flight flits = 51 (51 measured)
latency change    = 0.0184682
throughput change = 0.00283629
Class 0:
Packet latency average = 40.4111
	minimum = 7
	maximum = 457
Network latency average = 27.9081
	minimum = 7
	maximum = 245
Slowest packet = 1497401
Flit latency average = 28.0627
	minimum = 7
	maximum = 245
Slowest flit = 1507163
Fragmentation average = 0
	minimum = 0
	maximum = 0
Injected packet rate average = 0.100223
	minimum = 0.0955714 (at node 7)
	maximum = 0.104429 (at node 14)
Accepted packet rate average = 0.100339
	minimum = 0.0957143 (at node 13)
	maximum = 0.104286 (at node 11)
Injected flit rate average = 0.100223
	minimum = 0.0955714 (at node 7)
	maximum = 0.104429 (at node 14)
Accepted flit rate average= 0.100339
	minimum = 0.0957143 (at node 13)
	maximum = 0.104286 (at node 11)
Injected packet length average = 1
Accepted packet length average = 1
Total in-flight flits = 28 (28 measured)
latency change    = 0.0416
throughput change = 0.00441953
Draining all recorded packets ...
Draining remaining packets ...
Time taken is 10097 cycles
====== Overall Traffic Statistics ======
====== Traffic class 0 ======
Packet latency average = 46.5344 (100 samples)
	minimum = 7 (100 samples)
	maximum = 556.37 (100 samples)
Network latency average = 27.5952 (100 samples)
	minimum = 7 (100 samples)
	maximum = 249.32 (100 samples)
Flit latency average = 27.4629 (100 samples)
	minimum = 7 (100 samples)
	maximum = 250.44 (100 samples)
Fragmentation average = 0 (100 samples)
	minimum = 0 (100 samples)
	maximum = 0 (100 samples)
Injected packet rate average = 0.0998809 (100 samples)
	minimum = 0.0930417 (100 samples)
	maximum = 0.106452 (100 samples)
Accepted packet rate average = 0.0998862 (100 samples)
	minimum = 0.0930263 (100 samples)
	maximum = 0.106462 (100 samples)
Injected flit rate average = 0.0998809 (100 samples)
	minimum = 0.0930417 (100 samples)
	maximum = 0.106452 (100 samples)
Accepted flit rate average = 0.0998862 (100 samples)
	minimum = 0.0930263 (100 samples)
	maximum = 0.106462 (100 samples)
Injected packet size average = 1 (100 samples)
Accepted packet size average = 1 (100 samples)
Hops average = 3.50065 (100 samples)
Total run time 18.1412
