BEGIN Configuration File: /tmp/tmpjznsylh2.cfg
topology = mesh;
k = 8; n = 2;
routing_function = dor;
num_vcs = 4; vc_buf_size = 4;
wait_for_tail_credit = 1;
vc_allocator = islip; sw_allocator = islip;
alloc_iters = 1;
credit_delay = 2; routing_delay = 1;
vc_alloc_delay = 1; sw_alloc_delay = 1;
input_speedup = 2; output_speedup = 1; internal_speedup = 1.0;
traffic = transpose;
packet_size = 1; sim_type = latency;
injection_rate = 0.01;
warmup_periods = 3; sample_period = 1000; sim_count = 100;
seed = 4;

END Configuration File: /tmp/tmpjznsylh2.cfg
Class 0:
Packet latency average = 34.2395
	minimum = 7
	maximum = 78
Network latency average = 34.2395
	minimum = 7
	maximum = 78
Slowest packet = 448
Flit latency average = 34.2395
	minimum = 7
	maximum = 78
Slowest flit = 448
Fragmentation average = 0
	minimum = 0
	maximum = 0
Injected packet rate average = 0.00971875
	minimum = 0.004 (at node 8)
	maximum = 0.018 (at node 34)
Accepted packet rate average = 0.00932812
	minimum = 0.003 (at node 1)
	maximum = 0.018 (at node 20)
Injected flit rate average = 0.00971875
	minimum = 0.004 (at node 8)
	maximum = 0.018 (at node 34)
Accepted flit rate average= 0.00932812
	minimum = 0.003 (at node 1)
	maximum = 0.018 (at node 20)
Injected packet length average = 1
Accepted packet length average = 1
Total in-flight flits = 25 (0 measured)
latency change    = 1
throughput change = 1
Class 0:
Packet latency average = 33.7855
	minimum = 7
	maximum = 79
Network latency average = 33.7855
	minimum = 7
	maximum = 79
Slowest packet = 789
Flit latency average = 33.7855
	minimum = 7
	maximum = 79
Slowest flit = 789
Fragmentation average = 0
	minimum = 0
	maximum = 0
Injected packet rate average = 0.0102344
	minimum = 0.0055 (at node 41)
	maximum = 0.019 (at node 61)
Accepted packet rate average = 0.0100547
	minimum = 0.0055 (at node 13)
	maximum = 0.019 (at node 47)
Injected flit rate average = 0.0102344
	minimum = 0.0055 (at node 41)
	maximum = 0.019 (at node 61)
Accepted flit rate average= 0.0100547
	minimum = 0.0055 (at node 13)
	maximum = 0.019 (at node 47)
Injected packet length average = 1
Accepted packet length average = 1
Total in-flight flits = 23 (0 measured)
latency change    = 0.0134372
throughput change = 0.0722611
Class 0:
Packet latency average = 33.7591
	minimum = 7
	maximum = 77
Network latency average = 33.7591
	minimum = 7
	maximum = 77
Slowest packet = 1302
Flit latency average = 33.7591
	minimum = 7
	maximum = 77
Slowest flit = 1302
Fragmentation average = 0
	minimum = 0
	maximum = 0
Injected packet rate average = 0.00935937
	minimum = 0.003 (at node 17)
	maximum = 0.017 (at node 21)
Accepted packet rate average = 0.00946875
	minimum = 0.003 (at node 10)
	maximum = 0.018 (at node 39)
Injected flit rate average = 0.00935937
	minimum = 0.003 (at node 17)
	maximum = 0.017 (at node 21)
Accepted flit rate average= 0.00946875
	minimum = 0.003 (at node 10)
	maximum = 0.018 (at node 39)
Injected packet length average = 1
Accepted packet length average = 1
Total in-flight flits = 16 (0 measured)
latency change    = 0.000784141
throughput change = 0.0618812
Warmed up ...Time used is 3000 cycles
Class 0:
Packet latency average = 33.686
	minimum = 7
	maximum = 77
Network latency average = 33.686
	minimum = 7
	maximum = 77
Slowest packet = 1910
Flit latency average = 33.8528
	minimum = 7
	maximum = 77
Slowest flit = 1876
Fragmentation average = 0
	minimum = 0
	maximum = 0
Injected packet rate average = 0.00976562
	minimum = 0.003 (at node 12)
	maximum = 0.019 (at node 15)
Accepted packet rate average = 0.00965625
	minimum = 0.002 (at node 33)
	maximum = 0.019 (at node 57)
Injected flit rate average = 0.00976562
	minimum = 0.003 (at node 12)
	maximum = 0.019 (at node 15)
Accepted flit rate average= 0.00965625
	minimum = 0.002 (at node 33)
	maximum = 0.019 (at node 57)
Injected packet length average = 1
Accepted packet length average = 1
Total in-flight flits = 23 (23 measured)
latency change    = 0.00216794
throughput change = 0.0194175
Class 0:
Packet latency average = 33.4504
	minimum = 7
	maximum = 77
Network latency average = 33.4504
	minimum = 7
	maximum = 77
Slowest packet = 1910
Flit latency average = 33.5328
	minimum = 7
	maximum = 77
Slowest flit = 1876
Fragmentation average = 0
	minimum = 0
	maximum = 0
Injected packet rate average = 0.0101797
	minimum = 0.006 (at node 13)
	maximum = 0.0165 (at node 15)
Accepted packet rate average = 0.0101328
	minimum = 0.006 (at node 23)
	maximum = 0.0165 (at node 38)
Injected flit rate average = 0.0101797
	minimum = 0.006 (at node 13)
	maximum = 0.0165 (at node 15)
Accepted flit rate average= 0.0101328
	minimum = 0.006 (at node 23)
	maximum = 0.0165 (at node 38)
Injected packet length average = 1
Accepted packet length average = 1
Total in-flight flits = 22 (22 measured)
latency change    = 0.00704377
throughput change = 0.0470316
Class 0:
Packet latency average = 33.1197
	minimum = 7
	maximum = 77
Network latency average = 33.1197
	minimum = 7
	maximum = 77
Slowest packet = 1910
Flit latency average = 33.1776
	minimum = 7
	maximum = 77
Slowest flit = 1876
Fragmentation average = 0
	minimum = 0
	maximum = 0
Injected packet rate average = 0.0101563
	minimum = 0.00666667 (at node 54)
	maximum = 0.0163333 (at node 15)
Accepted packet rate average = 0.0100885
	minimum = 0.00666667 (at node 54)
	maximum = 0.0156667 (at node 19)
Injected flit rate average = 0.0101563
	minimum = 0.00666667 (at node 54)
	maximum = 0.0163333 (at node 15)
Accepted flit rate average= 0.0100885
	minimum = 0.00666667 (at node 54)
	maximum = 0.0156667 (at node 19)
Injected packet length average = 1
Accepted packet length average = 1
Total in-flight flits = 29 (29 measured)
latency change    = 0.00998499
throughput change = 0.00438823
Draining all recorded packets ...
Draining remaining packets ...
Time taken is 6136 cycles
Class 0:
Packet latency average = 32.1622
	minimum = 7
	maximum = 78
Network latency average = 32.1622
	minimum = 7
	maximum = 78
Slowest packet = 4234
Flit latency average = 32.1622
	minimum = 7
	maximum = 78
Slowest flit = 4234
Fragmentation average = 0
	minimum = 0
	maximum = 0
Injected packet rate average = 0.0102188
	minimum = 0.003 (at node 3)
	maximum = 0.018 (at node 46)
Accepted packet rate average = 0.00992188
	minimum = 0.003 (at node 24)
	maximum = 0.017 (at node 25)
Injected flit rate average = 0.0102188
	minimum = 0.003 (at node 3)
	maximum = 0.018 (at node 46)
Accepted flit rate average= 0.00992188
	minimum = 0.003 (at node 24)
	maximum = 0.017 (at node 25)
Injected packet length average = 1
Accepted packet length average = 1
Total in-flight flits = 19 (0 measured)
latency change    = 1
throughput change = 1
Class 0:
Packet latency average = 32.3722
	minimum = 7
	maximum = 82
Network latency average = 32.3722
	minimum = 7
	maximum = 82
Slowest packet = 4739
Flit latency average = 32.3722
	minimum = 7
	maximum = 82
Slowest flit = 4739
Fragmentation average = 0
	minimum = 0
	maximum = 0
Injected packet rate average = 0.010125
	minimum = 0.006 (at node 3)
	maximum = 0.0155 (at node 39)
Accepted packet rate average = 0.00990625
	minimum = 0.0055 (at node 24)
	maximum = 0.015 (at node 60)
Injected flit rate average = 0.010125
	minimum = 0.006 (at node 3)
	maximum = 0.0155 (at node 39)
Accepted flit rate average= 0.00990625
	minimum = 0.0055 (at node 24)
	maximum = 0.015 (at node 60)
Injected packet length average = 1
Accepted packet length average = 1
Total in-flight flits = 28 (0 measured)
latency change    = 0.00648812
throughput change = 0.00157729
Class 0:
Packet latency average = 33.1338
	minimum = 7
	maximum = 77
Network latency average = 33.1338
	minimum = 7
	maximum = 77
Slowest packet = 5148
Flit latency average = 33.1338
	minimum = 7
	maximum = 77
Slowest flit = 5148
Fragmentation average = 0
	minimum = 0
	maximum = 0
Injected packet rate average = 0.0107812
	minimum = 0.001 (at node 37)
	maximum = 0.019 (at node 38)
Accepted packet rate average = 0.0108594
	minimum = 0.001 (at node 44)
	maximum = 0.02 (at node 52)
Injected flit rate average = 0.0107812
	minimum = 0.001 (at node 37)
	maximum = 0.019 (at node 38)
Accepted flit rate average= 0.0108594
	minimum = 0.001 (at node 44)
	maximum = 0.02 (at node 52)
Injected packet length average = 1
Accepted packet length average = 1
Total in-flight flits = 23 (0 measured)
latency change    = 0.0229848
throughput change = 0.0877698
Warmed up ...Time used is 3000 cycles
Class 0:
Packet latency average = 32.8029
	minimum = 7
	maximum = 77
Network latency average = 32.8029
	minimum = 7
	maximum = 77
Slowest packet = 5916
Flit latency average = 33.3696
	minimum = 7
	maximum = 77
Slowest flit = 5847
Fragmentation average = 0
	minimum = 0
	maximum = 0
Injected packet rate average = 0.0100313
	minimum = 0.002 (at node 17)
	maximum = 0.017 (at node 61)
Accepted packet rate average = 0.0101875
	minimum = 0.002 (at node 10)
	maximum = 0.016 (at node 25)
Injected flit rate average = 0.0100313
	minimum = 0.002 (at node 17)
	maximum = 0.017 (at node 61)
Accepted flit rate average= 0.0101875
	minimum = 0.002 (at node 10)
	maximum = 0.016 (at node 25)
Injected packet length average = 1
Accepted packet length average = 1
Total in-flight flits = 13 (13 measured)
latency change    = 0.0100891
throughput change = 0.0659509
Class 0:
Packet latency average = 33.4704
	minimum = 7
	maximum = 78
Network latency average = 33.4704
	minimum = 7
	maximum = 78
Slowest packet = 6955
Flit latency average = 33.7349
	minimum = 7
	maximum = 78
Slowest flit = 6955
Fragmentation average = 0
	minimum = 0
	maximum = 0
Injected packet rate average = 0.0104297
	minimum = 0.005 (at node 17)
	maximum = 0.015 (at node 41)
Accepted packet rate average = 0.0104609
	minimum = 0.005 (at node 10)
	maximum = 0.016 (at node 13)
Injected flit rate average = 0.0104297
	minimum = 0.005 (at node 17)
	maximum = 0.015 (at node 41)
Accepted flit rate average= 0.0104609
	minimum = 0.005 (at node 10)
	maximum = 0.016 (at node 13)
Injected packet length average = 1
Accepted packet length average = 1
Total in-flight flits = 19 (19 measured)
latency change    = 0.0199431
throughput change = 0.0261389
Class 0:
Packet latency average = 33.5635
	minimum = 7
	maximum = 78
Network latency average = 33.5635
	minimum = 7
	maximum = 78
Slowest packet = 6955
Flit latency average = 33.7447
	minimum = 7
	maximum = 78
Slowest flit = 6955
Fragmentation average = 0
	minimum = 0
	maximum = 0
Injected packet rate average = 0.0100625
	minimum = 0.00566667 (at node 54)
	maximum = 0.014 (at node 13)
Accepted packet rate average = 0.0101198
	minimum = 0.00566667 (at node 54)
	maximum = 0.014 (at node 13)
Injected flit rate average = 0.0100625
	minimum = 0.00566667 (at node 54)
	maximum = 0.014 (at node 13)
Accepted flit rate average= 0.0101198
	minimum = 0.00566667 (at node 54)
	maximum = 0.014 (at node 13)
Injected packet length average = 1
Accepted packet length average = 1
Total in-flight flits = 12 (12 measured)
latency change    = 0.00277614
throughput change = 0.0337108
Class 0:
Packet latency average = 33.3324
	minimum = 7
	maximum = 78
Network latency average = 33.3324
	minimum = 7
	maximum = 78
Slowest packet = 6955
Flit latency average = 33.4703
	minimum = 7
	maximum = 78
Slowest flit = 6955
Fragmentation average = 0
	minimum = 0
	maximum = 0
Injected packet rate average = 0.0101133
	minimum = 0.00575 (at node 54)
	maximum = 0.0135 (at node 61)
Accepted packet rate average = 0.010125
	minimum = 0.00575 (at node 54)
	maximum = 0.0135 (at node 47)
Injected flit rate average = 0.0101133
	minimum = 0.00575 (at node 54)
	maximum = 0.0135 (at node 61)
Accepted flit rate average= 0.010125
	minimum = 0.00575 (at node 54)
	maximum = 0.0135 (at node 47)
Injected packet length average = 1
Accepted packet length average = 1
Total in-flight flits = 20 (20 measured)
latency change    = 0.00693369
throughput change = 0.000514403
Draining all recorded packets ...
Draining remaining packets ...
Time taken is 7107 cycles
Class 0:
Packet latency average = 32.7509
	minimum = 7
	maximum = 78
Network latency average = 32.7509
	minimum = 7
	maximum = 78
Slowest packet = 8829
Flit latency average = 32.7509
	minimum = 7
	maximum = 78
Slowest flit = 8829
Fragmentation average = 0
	minimum = 0
	maximum = 0
Injected packet rate average = 0.00915625
	minimum = 0.003 (at node 32)
	maximum = 0.017 (at node 12)
Accepted packet rate average = 0.00878125
	minimum = 0.002 (at node 4)
	maximum = 0.017 (at node 46)
Injected flit rate average = 0.00915625
	minimum = 0.003 (at node 32)
	maximum = 0.017 (at node 12)
Accepted flit rate average= 0.00878125
	minimum = 0.002 (at node 4)
	maximum = 0.017 (at node 46)
Injected packet length average = 1
Accepted packet length average = 1
Total in-flight flits = 24 (0 measured)
latency change    = 1
throughput change = 1
Class 0:
Packet latency average = 33.4117
	minimum = 7
	maximum = 78
Network latency average = 33.4117
	minimum = 7
	maximum = 78
Slowest packet = 8829
Flit latency average = 33.4117
	minimum = 7
	maximum = 78
Slowest flit = 8829
Fragmentation average = 0
	minimum = 0
	maximum = 0
Injected packet rate average = 0.00932812
	minimum = 0.0035 (at node 32)
	maximum = 0.0155 (at node 53)
Accepted packet rate average = 0.00920312
	minimum = 0.0035 (at node 4)
	maximum = 0.0155 (at node 46)
Injected flit rate average = 0.00932812
	minimum = 0.0035 (at node 32)
	maximum = 0.0155 (at node 53)
Accepted flit rate average= 0.00920312
	minimum = 0.0035 (at node 4)
	maximum = 0.0155 (at node 46)
Injected packet length average = 1
Accepted packet length average = 1
Total in-flight flits = 16 (0 measured)
latency change    = 0.0197782
throughput change = 0.0458404
Class 0:
Packet latency average = 33.0581
	minimum = 7
	maximum = 78
Network latency average = 33.0581
	minimum = 7
	maximum = 78
Slowest packet = 9714
Flit latency average = 33.0581
	minimum = 7
	maximum = 78
Slowest flit = 9714
Fragmentation average = 0
	minimum = 0
	maximum = 0
Injected packet rate average = 0.0105
	minimum = 0.005 (at node 6)
	maximum = 0.02 (at node 22)
Accepted packet rate average = 0.0104844
	minimum = 0.005 (at node 9)
	maximum = 0.021 (at node 50)
Injected flit rate average = 0.0105
	minimum = 0.005 (at node 6)
	maximum = 0.02 (at node 22)
Accepted flit rate average= 0.0104844
	minimum = 0.005 (at node 9)
	maximum = 0.021 (at node 50)
Injected packet length average = 1
Accepted packet length average = 1
Total in-flight flits = 17 (0 measured)
latency change    = 0.0106961
throughput change = 0.122206
Warmed up ...Time used is 3000 cycles
Class 0:
Packet latency average = 32.4506
	minimum = 7
	maximum = 78
Network latency average = 32.4506
	minimum = 7
	maximum = 78
Slowest packet = 10649
Flit latency average = 32.8565
	minimum = 7
	maximum = 78
Slowest flit = 10649
Fragmentation average = 0
	minimum = 0
	maximum = 0
Injected packet rate average = 0.00995313
	minimum = 0.003 (at node 60)
	maximum = 0.019 (at node 39)
Accepted packet rate average = 0.00990625
	minimum = 0.003 (at node 39)
	maximum = 0.019 (at node 60)
Injected flit rate average = 0.00995313
	minimum = 0.003 (at node 60)
	maximum = 0.019 (at node 39)
Accepted flit rate average= 0.00990625
	minimum = 0.003 (at node 39)
	maximum = 0.019 (at node 60)
Injected packet length average = 1
Accepted packet length average = 1
Total in-flight flits = 20 (20 measured)
latency change    = 0.0187225
throughput change = 0.0583596
Class 0:
Packet latency average = 32.9081
	minimum = 7
	maximum = 78
Network latency average = 32.9081
	minimum = 7
	maximum = 78
Slowest packet = 10649
Flit latency average = 33.1066
	minimum = 7
	maximum = 78
Slowest flit = 10649
Fragmentation average = 0
	minimum = 0
	maximum = 0
Injected packet rate average = 0.00985938
	minimum = 0.0035 (at node 60)
	maximum = 0.0145 (at node 39)
Accepted packet rate average = 0.00982031
	minimum = 0.004 (at node 39)
	maximum = 0.0145 (at node 60)
Injected flit rate average = 0.00985938
	minimum = 0.0035 (at node 60)
	maximum = 0.0145 (at node 39)
Accepted flit rate average= 0.00982031
	minimum = 0.004 (at node 39)
	maximum = 0.0145 (at node 60)
Injected packet length average = 1
Accepted packet length average = 1
Total in-flight flits = 22 (22 measured)
latency change    = 0.0139023
throughput change = 0.00875099
Class 0:
Packet latency average = 33.1505
	minimum = 7
	maximum = 78
Network latency average = 33.1505
	minimum = 7
	maximum = 78
Slowest packet = 10649
Flit latency average = 33.2803
	minimum = 7
	maximum = 78
Slowest flit = 10649
Fragmentation average = 0
	minimum = 0
	maximum = 0
Injected packet rate average = 0.00988542
	minimum = 0.00666667 (at node 32)
	maximum = 0.0136667 (at node 33)
Accepted packet rate average = 0.00984896
	minimum = 0.00666667 (at node 4)
	maximum = 0.0133333 (at node 12)
Injected flit rate average = 0.00988542
	minimum = 0.00666667 (at node 32)
	maximum = 0.0136667 (at node 33)
Accepted flit rate average= 0.00984896
	minimum = 0.00666667 (at node 4)
	maximum = 0.0133333 (at node 12)
Injected packet length average = 1
Accepted packet length average = 1
Total in-flight flits = 24 (24 measured)
latency change    = 0.00731259
throughput change = 0.00290851
Class 0:
Packet latency average = 32.9263
	minimum = 7
	maximum = 78
Network latency average = 32.9263
	minimum = 7
	maximum = 78
Slowest packet = 10649
Flit latency average = 33.0244
	minimum = 7
	maximum = 78
Slowest flit = 10649
Fragmentation average = 0
	minimum = 0
	maximum = 0
Injected packet rate average = 0.00991016
	minimum = 0.007 (at node 38)
	maximum = 0.0135 (at node 39)
Accepted packet rate average = 0.00992188
	minimum = 0.007 (at node 45)
	maximum = 0.01325 (at node 60)
Injected flit rate average = 0.00991016
	minimum = 0.007 (at node 38)
	maximum = 0.0135 (at node 39)
Accepted flit rate average= 0.00992188
	minimum = 0.007 (at node 45)
	maximum = 0.01325 (at node 60)
Injected packet length average = 1
Accepted packet length average = 1
Total in-flight flits = 14 (14 measured)
latency change    = 0.00680921
throughput change = 0.00734908
Draining all recorded packets ...
Draining remaining packets ...
Time taken is 7122 cycles
Class 0:
Packet latency average = 33.7592
	minimum = 7
	maximum = 80
Network latency average = 33.7592
	minimum = 7
	maximum = 80
Slowest packet = 13437
Flit latency average = 33.7592
	minimum = 7
	maximum = 80
Slowest flit = 13437
Fragmentation average = 0
	minimum = 0
	maximum = 0
Injected packet rate average = 0.0100156
	minimum = 0.004 (at node 52)
	maximum = 0.015 (at node 16)
Accepted packet rate average = 0.00973437
	minimum = 0.004 (at node 6)
	maximum = 0.015 (at node 2)
Injected flit rate average = 0.0100156
	minimum = 0.004 (at node 52)
	maximum = 0.015 (at node 16)
Accepted flit rate average= 0.00973437
	minimum = 0.004 (at node 6)
	maximum = 0.015 (at node 2)
Injected packet length average = 1
Accepted packet length average = 1
Total in-flight flits = 18 (0 measured)
latency change    = 1
throughput change = 1
Class 0:
Packet latency average = 33.7634
	minimum = 7
	maximum = 80
Network latency average = 33.7634
	minimum = 7
	maximum = 80
Slowest packet = 13437
Flit latency average = 33.7634
	minimum = 7
	maximum = 80
Slowest flit = 13437
Fragmentation average = 0
	minimum = 0
	maximum = 0
Injected packet rate average = 0.0103047
	minimum = 0.0055 (at node 22)
	maximum = 0.0155 (at node 51)
Accepted packet rate average = 0.0101719
	minimum = 0.0055 (at node 44)
	maximum = 0.0155 (at node 30)
Injected flit rate average = 0.0103047
	minimum = 0.0055 (at node 22)
	maximum = 0.0155 (at node 51)
Accepted flit rate average= 0.0101719
	minimum = 0.0055 (at node 44)
	maximum = 0.0155 (at node 30)
Injected packet length average = 1
Accepted packet length average = 1
Total in-flight flits = 17 (0 measured)
latency change    = 0.00012473
throughput change = 0.0430108
Class 0:
Packet latency average = 31.3354
	minimum = 7
	maximum = 77
Network latency average = 31.3354
	minimum = 7
	maximum = 77
Slowest packet = 14238
Flit latency average = 31.3354
	minimum = 7
	maximum = 77
Slowest flit = 14238
Fragmentation average = 0
	minimum = 0
	maximum = 0
Injected packet rate average = 0.0100938
	minimum = 0.004 (at node 13)
	maximum = 0.017 (at node 20)
Accepted packet rate average = 0.00992188
	minimum = 0.003 (at node 41)
	maximum = 0.018 (at node 63)
Injected flit rate average = 0.0100938
	minimum = 0.004 (at node 13)
	maximum = 0.017 (at node 20)
Accepted flit rate average= 0.00992188
	minimum = 0.003 (at node 41)
	maximum = 0.018 (at node 63)
Injected packet length average = 1
Accepted packet length average = 1
Total in-flight flits = 28 (0 measured)
latency change    = 0.0774844
throughput change = 0.0251969
Warmed up ...Time used is 3000 cycles
Class 0:
Packet latency average = 32.693
	minimum = 7
	maximum = 77
Network latency average = 32.693
	minimum = 7
	maximum = 77
Slowest packet = 14941
Flit latency average = 33.2901
	minimum = 7
	maximum = 79
Slowest flit = 14882
Fragmentation average = 0
	minimum = 0
	maximum = 0
Injected packet rate average = 0.009625
	minimum = 0.004 (at node 28)
	maximum = 0.016 (at node 5)
Accepted packet rate average = 0.00975
	minimum = 0.004 (at node 12)
	maximum = 0.016 (at node 19)
Injected flit rate average = 0.009625
	minimum = 0.004 (at node 28)
	maximum = 0.016 (at node 5)
Accepted flit rate average= 0.00975
	minimum = 0.004 (at node 12)
	maximum = 0.016 (at node 19)
Injected packet length average = 1
Accepted packet length average = 1
Total in-flight flits = 20 (20 measured)
latency change    = 0.0415233
throughput change = 0.0176282
Class 0:
Packet latency average = 32.8474
	minimum = 7
	maximum = 78
Network latency average = 32.8474
	minimum = 7
	maximum = 78
Slowest packet = 15881
Flit latency average = 33.1427
	minimum = 7
	maximum = 79
Slowest flit = 14882
Fragmentation average = 0
	minimum = 0
	maximum = 0
Injected packet rate average = 0.0096875
	minimum = 0.0055 (at node 25)
	maximum = 0.014 (at node 32)
Accepted packet rate average = 0.00974219
	minimum = 0.0055 (at node 11)
	maximum = 0.014 (at node 4)
Injected flit rate average = 0.0096875
	minimum = 0.0055 (at node 25)
	maximum = 0.014 (at node 32)
Accepted flit rate average= 0.00974219
	minimum = 0.0055 (at node 11)
	maximum = 0.014 (at node 4)
Injected packet length average = 1
Accepted packet length average = 1
Total in-flight flits = 21 (21 measured)
latency change    = 0.00470244
throughput change = 0.000801925
Class 0:
Packet latency average = 32.9406
	minimum = 7
	maximum = 78
Network latency average = 32.9406
	minimum = 7
	maximum = 78
Slowest packet = 15881
Flit latency average = 33.1352
	minimum = 7
	maximum = 79
Slowest flit = 14882
Fragmentation average = 0
	minimum = 0
	maximum = 0
Injected packet rate average = 0.00971875
	minimum = 0.00533333 (at node 25)
	maximum = 0.0143333 (at node 32)
Accepted packet rate average = 0.00978646
	minimum = 0.00533333 (at node 11)
	maximum = 0.0143333 (at node 4)
Injected flit rate average = 0.00971875
	minimum = 0.00533333 (at node 25)
	maximum = 0.0143333 (at node 32)
Accepted flit rate average= 0.00978646
	minimum = 0.00533333 (at node 11)
	maximum = 0.0143333 (at node 4)
Injected packet length average = 1
Accepted packet length average = 1
Total in-flight flits = 15 (15 measured)
latency change    = 0.00282802
throughput change = 0.00452368
Draining all recorded packets ...
Draining remaining packets ...
Time taken is 6118 cycles
Class 0:
Packet latency average = 34.8447
	minimum = 7
	maximum = 78
Network latency average = 34.8447
	minimum = 7
	maximum = 78
Slowest packet = 16867
Flit latency average = 34.8447
	minimum = 7
	maximum = 78
Slowest flit = 16867
Fragmentation average = 0
	minimum = 0
	maximum = 0
Injected packet rate average = 0.0100156
	minimum = 0.005 (at node 2)
	maximum = 0.017 (at node 44)
Accepted packet rate average = 0.00965625
	minimum = 0.005 (at node 2)
	maximum = 0.016 (at node 28)
Injected flit rate average = 0.0100156
	minimum = 0.005 (at node 2)
	maximum = 0.017 (at node 44)
Accepted flit rate average= 0.00965625
	minimum = 0.005 (at node 2)
	maximum = 0.016 (at node 28)
Injected packet length average = 1
Accepted packet length average = 1
Total in-flight flits = 23 (0 measured)
latency change    = 1
throughput change = 1
Class 0:
Packet latency average = 34.1202
	minimum = 7
	maximum = 78
Network latency average = 34.1202
	minimum = 7
	maximum = 78
Slowest packet = 16867
Flit latency average = 34.1202
	minimum = 7
	maximum = 78
Slowest flit = 16867
Fragmentation average = 0
	minimum = 0
	maximum = 0
Injected packet rate average = 0.009875
	minimum = 0.0035 (at node 36)
	maximum = 0.015 (at node 44)
Accepted packet rate average = 0.0096875
	minimum = 0.0035 (at node 36)
	maximum = 0.015 (at node 37)
Injected flit rate average = 0.009875
	minimum = 0.0035 (at node 36)
	maximum = 0.015 (at node 44)
Accepted flit rate average= 0.0096875
	minimum = 0.0035 (at node 36)
	maximum = 0.015 (at node 37)
Injected packet length average = 1
Accepted packet length average = 1
Total in-flight flits = 24 (0 measured)
latency change    = 0.0212337
throughput change = 0.00322581
Class 0:
Packet latency average = 32.6074
	minimum = 7
	maximum = 78
Network latency average = 32.6074
	minimum = 7
	maximum = 78
Slowest packet = 18495
Flit latency average = 32.6074
	minimum = 7
	maximum = 78
Slowest flit = 18495
Fragmentation average = 0
	minimum = 0
	maximum = 0
Injected packet rate average = 0.0105938
	minimum = 0.003 (at node 47)
	maximum = 0.017 (at node 59)
Accepted packet rate average = 0.010625
	minimum = 0.003 (at node 6)
	maximum = 0.017 (at node 44)
Injected flit rate average = 0.0105938
	minimum = 0.003 (at node 47)
	maximum = 0.017 (at node 59)
Accepted flit rate average= 0.010625
	minimum = 0.003 (at node 6)
	maximum = 0.017 (at node 44)
Injected packet length average = 1
Accepted packet length average = 1
Total in-flight flits = 22 (0 measured)
latency change    = 0.0463947
throughput change = 0.0882353
Warmed up ...Time used is 3000 cycles
Class 0:
Packet latency average = 33.7882
	minimum = 7
	maximum = 78
Network latency average = 33.7882
	minimum = 7
	maximum = 78
Slowest packet = 19088
Flit latency average = 34.2259
	minimum = 7
	maximum = 78
Slowest flit = 19088
Fragmentation average = 0
	minimum = 0
	maximum = 0
Injected packet rate average = 0.0103125
	minimum = 0.004 (at node 36)
	maximum = 0.016 (at node 2)
Accepted packet rate average = 0.010375
	minimum = 0.004 (at node 36)
	maximum = 0.016 (at node 11)
Injected flit rate average = 0.0103125
	minimum = 0.004 (at node 36)
	maximum = 0.016 (at node 2)
Accepted flit rate average= 0.010375
	minimum = 0.004 (at node 36)
	maximum = 0.016 (at node 11)
Injected packet length average = 1
Accepted packet length average = 1
Total in-flight flits = 18 (18 measured)
latency change    = 0.0349474
throughput change = 0.0240964
Class 0:
Packet latency average = 33.9298
	minimum = 7
	maximum = 78
Network latency average = 33.9298
	minimum = 7
	maximum = 78
Slowest packet = 19088
Flit latency average = 34.1552
	minimum = 7
	maximum = 78
Slowest flit = 19088
Fragmentation average = 0
	minimum = 0
	maximum = 0
Injected packet rate average = 0.00992188
	minimum = 0.005 (at node 4)
	maximum = 0.015 (at node 2)
Accepted packet rate average = 0.00996875
	minimum = 0.005 (at node 32)
	maximum = 0.015 (at node 16)
Injected flit rate average = 0.00992188
	minimum = 0.005 (at node 4)
	maximum = 0.015 (at node 2)
Accepted flit rate average= 0.00996875
	minimum = 0.005 (at node 32)
	maximum = 0.015 (at node 16)
Injected packet length average = 1
Accepted packet length average = 1
Total in-flight flits = 16 (16 measured)
latency change    = 0.00417516
throughput change = 0.0407524
Class 0:
Packet latency average = 33.7767
	minimum = 7
	maximum = 78
Network latency average = 33.7767
	minimum = 7
	maximum = 78
Slowest packet = 19088
Flit latency average = 33.9292
	minimum = 7
	maximum = 78
Slowest flit = 19088
Fragmentation average = 0
	minimum = 0
	maximum = 0
Injected packet rate average = 0.00991667
	minimum = 0.00566667 (at node 4)
	maximum = 0.0146667 (at node 62)
Accepted packet rate average = 0.00993229
	minimum = 0.00566667 (at node 26)
	maximum = 0.0146667 (at node 55)
Injected flit rate average = 0.00991667
	minimum = 0.00566667 (at node 4)
	maximum = 0.0146667 (at node 62)
Accepted flit rate average= 0.00993229
	minimum = 0.00566667 (at node 26)
	maximum = 0.0146667 (at node 55)
Injected packet length average = 1
Accepted packet length average = 1
Total in-flight flits = 19 (19 measured)
latency change    = 0.00453469
throughput change = 0.00367069
Draining all recorded packets ...
Draining remaining packets ...
Time taken is 6114 cycles
Class 0:
Packet latency average = 32.53
	minimum = 7
	maximum = 77
Network latency average = 32.53
	minimum = 7
	maximum = 77
Slowest packet = 20746
Flit latency average = 32.53
	minimum = 7
	maximum = 77
Slowest flit = 20746
Fragmentation average = 0
	minimum = 0
	maximum = 0
Injected packet rate average = 0.00945312
	minimum = 0.003 (at node 59)
	maximum = 0.017 (at node 4)
Accepted packet rate average = 0.00910937
	minimum = 0.002 (at node 31)
	maximum = 0.016 (at node 32)
Injected flit rate average = 0.00945312
	minimum = 0.003 (at node 59)
	maximum = 0.017 (at node 4)
Accepted flit rate average= 0.00910937
	minimum = 0.002 (at node 31)
	maximum = 0.016 (at node 32)
Injected packet length average = 1
Accepted packet length average = 1
Total in-flight flits = 22 (0 measured)
latency change    = 1
throughput change = 1
Class 0:
Packet latency average = 32.9335
	minimum = 7
	maximum = 78
Network latency average = 32.9335
	minimum = 7
	maximum = 78
Slowest packet = 21490
Flit latency average = 32.9335
	minimum = 7
	maximum = 78
Slowest flit = 21490
Fragmentation average = 0
	minimum = 0
	maximum = 0
Injected packet rate average = 0.00964062
	minimum = 0.005 (at node 49)
	maximum = 0.0135 (at node 10)
Accepted packet rate average = 0.00951562
	minimum = 0.005 (at node 14)
	maximum = 0.0135 (at node 17)
Injected flit rate average = 0.00964062
	minimum = 0.005 (at node 49)
	maximum = 0.0135 (at node 10)
Accepted flit rate average= 0.00951562
	minimum = 0.005 (at node 14)
	maximum = 0.0135 (at node 17)
Injected packet length average = 1
Accepted packet length average = 1
Total in-flight flits = 16 (0 measured)
latency change    = 0.0122514
throughput change = 0.0426929
Class 0:
Packet latency average = 34.2664
	minimum = 7
	maximum = 77
Network latency average = 34.2664
	minimum = 7
	maximum = 77
Slowest packet = 21900
Flit latency average = 34.2664
	minimum = 7
	maximum = 77
Slowest flit = 21900
Fragmentation average = 0
	minimum = 0
	maximum = 0
Injected packet rate average = 0.010375
	minimum = 0.005 (at node 9)
	maximum = 0.02 (at node 3)
Accepted packet rate average = 0.0102656
	minimum = 0.005 (at node 9)
	maximum = 0.02 (at node 24)
Injected flit rate average = 0.010375
	minimum = 0.005 (at node 9)
	maximum = 0.02 (at node 3)
Accepted flit rate average= 0.0102656
	minimum = 0.005 (at node 9)
	maximum = 0.02 (at node 24)
Injected packet length average = 1
Accepted packet length average = 1
Total in-flight flits = 23 (0 measured)
latency change    = 0.0388972
throughput change = 0.0730594
Warmed up ...Time used is 3000 cycles
Class 0:
Packet latency average = 33.5847
	minimum = 7
	maximum = 78
Network latency average = 33.5847
	minimum = 7
	maximum = 78
Slowest packet = 22851
Flit latency average = 34.168
	minimum = 7
	maximum = 78
Slowest flit = 22851
Fragmentation average = 0
	minimum = 0
	maximum = 0
Injected packet rate average = 0.0100781
	minimum = 0.005 (at node 9)
	maximum = 0.016 (at node 34)
Accepted packet rate average = 0.0101406
	minimum = 0.005 (at node 9)
	maximum = 0.018 (at node 7)
Injected flit rate average = 0.0100781
	minimum = 0.005 (at node 9)
	maximum = 0.016 (at node 34)
Accepted flit rate average= 0.0101406
	minimum = 0.005 (at node 9)
	maximum = 0.018 (at node 7)
Injected packet length average = 1
Accepted packet length average = 1
Total in-flight flits = 19 (19 measured)
latency change    = 0.0202979
throughput change = 0.0123267
Class 0:
Packet latency average = 33.1522
	minimum = 7
	maximum = 78
Network latency average = 33.1522
	minimum = 7
	maximum = 78
Slowest packet = 22851
Flit latency average = 33.4485
	minimum = 7
	maximum = 78
Slowest flit = 22851
Fragmentation average = 0
	minimum = 0
	maximum = 0
Injected packet rate average = 0.0102109
	minimum = 0.0065 (at node 9)
	maximum = 0.0145 (at node 18)
Accepted packet rate average = 0.0102422
	minimum = 0.006 (at node 22)
	maximum = 0.0145 (at node 18)
Injected flit rate average = 0.0102109
	minimum = 0.0065 (at node 9)
	maximum = 0.0145 (at node 18)
Accepted flit rate average= 0.0102422
	minimum = 0.006 (at node 22)
	maximum = 0.0145 (at node 18)
Injected packet length average = 1
Accepted packet length average = 1
Total in-flight flits = 19 (19 measured)
latency change    = 0.0130456
throughput change = 0.00991609
Class 0:
Packet latency average = 32.8815
	minimum = 7
	maximum = 78
Network latency average = 32.8815
	minimum = 7
	maximum = 78
Slowest packet = 22851
Flit latency average = 33.0808
	minimum = 7
	maximum = 78
Slowest flit = 22851
Fragmentation average = 0
	minimum = 0
	maximum = 0
Injected packet rate average = 0.0102813
	minimum = 0.007 (at node 25)
	maximum = 0.0156667 (at node 18)
Accepted packet rate average = 0.0103125
	minimum = 0.00666667 (at node 11)
	maximum = 0.0156667 (at node 18)
Injected flit rate average = 0.0102813
	minimum = 0.007 (at node 25)
	maximum = 0.0156667 (at node 18)
Accepted flit rate average= 0.0103125
	minimum = 0.00666667 (at node 11)
	maximum = 0.0156667 (at node 18)
Injected packet length average = 1
Accepted packet length average = 1
Total in-flight flits = 17 (17 measured)
latency change    = 0.0082333
throughput change = 0.00681818
Draining all recorded packets ...
Draining remaining packets ...
Time taken is 6132 cycles
Class 0:
Packet latency average = 33.5266
	minimum = 7
	maximum = 77
Network latency average = 33.5266
	minimum = 7
	maximum = 77
Slowest packet = 24658
Flit latency average = 33.5266
	minimum = 7
	maximum = 77
Slowest flit = 24658
Fragmentation average = 0
	minimum = 0
	maximum = 0
Injected packet rate average = 0.0100313
	minimum = 0.002 (at node 45)
	maximum = 0.021 (at node 58)
Accepted packet rate average = 0.00970312
	minimum = 0.002 (at node 45)
	maximum = 0.02 (at node 23)
Injected flit rate average = 0.0100313
	minimum = 0.002 (at node 45)
	maximum = 0.021 (at node 58)
Accepted flit rate average= 0.00970312
	minimum = 0.002 (at node 45)
	maximum = 0.02 (at node 23)
Injected packet length average = 1
Accepted packet length average = 1
Total in-flight flits = 21 (0 measured)
latency change    = 1
throughput change = 1
Class 0:
Packet latency average = 33.5392
	minimum = 7
	maximum = 78
Network latency average = 33.5392
	minimum = 7
	maximum = 78
Slowest packet = 25390
Flit latency average = 33.5392
	minimum = 7
	maximum = 78
Slowest flit = 25390
Fragmentation average = 0
	minimum = 0
	maximum = 0
Injected packet rate average = 0.0102031
	minimum = 0.0035 (at node 45)
	maximum = 0.0165 (at node 58)
Accepted packet rate average = 0.00996875
	minimum = 0.0035 (at node 45)
	maximum = 0.0165 (at node 23)
Injected flit rate average = 0.0102031
	minimum = 0.0035 (at node 45)
	maximum = 0.0165 (at node 58)
Accepted flit rate average= 0.00996875
	minimum = 0.0035 (at node 45)
	maximum = 0.0165 (at node 23)
Injected packet length average = 1
Accepted packet length average = 1
Total in-flight flits = 30 (0 measured)
latency change    = 0.000376124
throughput change = 0.0266458
Class 0:
Packet latency average = 34.5952
	minimum = 7
	maximum = 79
Network latency average = 34.5952
	minimum = 7
	maximum = 79
Slowest packet = 25983
Flit latency average = 34.5952
	minimum = 7
	maximum = 79
Slowest flit = 25983
Fragmentation average = 0
	minimum = 0
	maximum = 0
Injected packet rate average = 0.0104219
	minimum = 0.003 (at node 42)
	maximum = 0.022 (at node 59)
Accepted packet rate average = 0.0104219
	minimum = 0.004 (at node 21)
	maximum = 0.024 (at node 31)
Injected flit rate average = 0.0104219
	minimum = 0.003 (at node 42)
	maximum = 0.022 (at node 59)
Accepted flit rate average= 0.0104219
	minimum = 0.004 (at node 21)
	maximum = 0.024 (at node 31)
Injected packet length average = 1
Accepted packet length average = 1
Total in-flight flits = 30 (0 measured)
latency change    = 0.030525
throughput change = 0.0434783
Warmed up ...Time used is 3000 cycles
Class 0:
Packet latency average = 33.1111
	minimum = 7
	maximum = 77
Network latency average = 33.1111
	minimum = 7
	maximum = 77
Slowest packet = 26616
Flit latency average = 33.321
	minimum = 7
	maximum = 77
Slowest flit = 26579
Fragmentation average = 0
	minimum = 0
	maximum = 0
Injected packet rate average = 0.00996875
	minimum = 0.005 (at node 0)
	maximum = 0.017 (at node 2)
Accepted packet rate average = 0.0101719
	minimum = 0.004 (at node 30)
	maximum = 0.02 (at node 16)
Injected flit rate average = 0.00996875
	minimum = 0.005 (at node 0)
	maximum = 0.017 (at node 2)
Accepted flit rate average= 0.0101719
	minimum = 0.004 (at node 30)
	maximum = 0.02 (at node 16)
Injected packet length average = 1
Accepted packet length average = 1
Total in-flight flits = 17 (17 measured)
latency change    = 0.0448215
throughput change = 0.0245776
Class 0:
Packet latency average = 33.345
	minimum = 7
	maximum = 77
Network latency average = 33.345
	minimum = 7
	maximum = 77
Slowest packet = 26616
Flit latency average = 33.4454
	minimum = 7
	maximum = 77
Slowest flit = 26579
Fragmentation average = 0
	minimum = 0
	maximum = 0
Injected packet rate average = 0.0100391
	minimum = 0.0055 (at node 59)
	maximum = 0.016 (at node 19)
Accepted packet rate average = 0.0100859
	minimum = 0.0055 (at node 55)
	maximum = 0.0165 (at node 26)
Injected flit rate average = 0.0100391
	minimum = 0.0055 (at node 59)
	maximum = 0.016 (at node 19)
Accepted flit rate average= 0.0100859
	minimum = 0.0055 (at node 55)
	maximum = 0.0165 (at node 26)
Injected packet length average = 1
Accepted packet length average = 1
Total in-flight flits = 24 (24 measured)
latency change    = 0.00701315
throughput change = 0.00852053
Class 0:
Packet latency average = 33.5462
	minimum = 7
	maximum = 78
Network latency average = 33.5462
	minimum = 7
	maximum = 78
Slowest packet = 27936
Flit latency average = 33.6094
	minimum = 7
	maximum = 78
Slowest flit = 27936
Fragmentation average = 0
	minimum = 0
	maximum = 0
Injected packet rate average = 0.0101094
	minimum = 0.00633333 (at node 0)
	maximum = 0.0143333 (at node 2)
Accepted packet rate average = 0.0101875
	minimum = 0.00666667 (at node 0)
	maximum = 0.0153333 (at node 16)
Injected flit rate average = 0.0101094
	minimum = 0.00633333 (at node 0)
	maximum = 0.0143333 (at node 2)
Accepted flit rate average= 0.0101875
	minimum = 0.00666667 (at node 0)
	maximum = 0.0153333 (at node 16)
Injected packet length average = 1
Accepted packet length average = 1
Total in-flight flits = 15 (15 measured)
latency change    = 0.00599905
throughput change = 0.00996933
Draining all recorded packets ...
Draining remaining packets ...
Time taken is 6138 cycles
Class 0:
Packet latency average = 32.6204
	minimum = 7
	maximum = 79
Network latency average = 32.6204
	minimum = 7
	maximum = 79
Slowest packet = 29058
Flit latency average = 32.6204
	minimum = 7
	maximum = 79
Slowest flit = 29058
Fragmentation average = 0
	minimum = 0
	maximum = 0
Injected packet rate average = 0.0101406
	minimum = 0.005 (at node 14)
	maximum = 0.02 (at node 10)
Accepted packet rate average = 0.00979688
	minimum = 0.004 (at node 2)
	maximum = 0.019 (at node 17)
Injected flit rate average = 0.0101406
	minimum = 0.005 (at node 14)
	maximum = 0.02 (at node 10)
Accepted flit rate average= 0.00979688
	minimum = 0.004 (at node 2)
	maximum = 0.019 (at node 17)
Injected packet length average = 1
Accepted packet length average = 1
Total in-flight flits = 22 (0 measured)
latency change    = 1
throughput change = 1
Class 0:
Packet latency average = 32.8831
	minimum = 7
	maximum = 79
Network latency average = 32.8831
	minimum = 7
	maximum = 79
Slowest packet = 29058
Flit latency average = 32.8831
	minimum = 7
	maximum = 79
Slowest flit = 29058
Fragmentation average = 0
	minimum = 0
	maximum = 0
Injected packet rate average = 0.00998438
	minimum = 0.006 (at node 29)
	maximum = 0.016 (at node 10)
Accepted packet rate average = 0.00982813
	minimum = 0.006 (at node 37)
	maximum = 0.016 (at node 17)
Injected flit rate average = 0.00998438
	minimum = 0.006 (at node 29)
	maximum = 0.016 (at node 10)
Accepted flit rate average= 0.00982813
	minimum = 0.006 (at node 37)
	maximum = 0.016 (at node 17)
Injected packet length average = 1
Accepted packet length average = 1
Total in-flight flits = 20 (0 measured)
latency change    = 0.0079899
throughput change = 0.00317965
Class 0:
Packet latency average = 32.006
	minimum = 7
	maximum = 78
Network latency average = 32.006
	minimum = 7
	maximum = 78
Slowest packet = 30242
Flit latency average = 32.006
	minimum = 7
	maximum = 78
Slowest flit = 30242
Fragmentation average = 0
	minimum = 0
	maximum = 0
Injected packet rate average = 0.0105625
	minimum = 0.005 (at node 28)
	maximum = 0.022 (at node 25)
Accepted packet rate average = 0.0104688
	minimum = 0.005 (at node 23)
	maximum = 0.023 (at node 11)
Injected flit rate average = 0.0105625
	minimum = 0.005 (at node 28)
	maximum = 0.022 (at node 25)
Accepted flit rate average= 0.0104688
	minimum = 0.005 (at node 23)
	maximum = 0.023 (at node 11)
Injected packet length average = 1
Accepted packet length average = 1
Total in-flight flits = 26 (0 measured)
latency change    = 0.0274067
throughput change = 0.061194
Warmed up ...Time used is 3000 cycles
Class 0:
Packet latency average = 34.2528
	minimum = 7
	maximum = 78
Network latency average = 34.2528
	minimum = 7
	maximum = 78
Slowest packet = 30617
Flit latency average = 34.6366
	minimum = 7
	maximum = 78
Slowest flit = 30617
Fragmentation average = 0
	minimum = 0
	maximum = 0
Injected packet rate average = 0.0102656
	minimum = 0.003 (at node 47)
	maximum = 0.019 (at node 31)
Accepted packet rate average = 0.0102344
	minimum = 0.003 (at node 17)
	maximum = 0.017 (at node 59)
Injected flit rate average = 0.0102656
	minimum = 0.003 (at node 47)
	maximum = 0.019 (at node 31)
Accepted flit rate average= 0.0102344
	minimum = 0.003 (at node 17)
	maximum = 0.017 (at node 59)
Injected packet length average = 1
Accepted packet length average = 1
Total in-flight flits = 28 (28 measured)
latency change    = 0.065595
throughput change = 0.0229008
Class 0:
Packet latency average = 33.962
	minimum = 7
	maximum = 78
Network latency average = 33.962
	minimum = 7
	maximum = 78
Slowest packet = 30617
Flit latency average = 34.1588
	minimum = 7
	maximum = 78
Slowest flit = 30617
Fragmentation average = 0
	minimum = 0
	maximum = 0
Injected packet rate average = 0.0102188
	minimum = 0.0045 (at node 47)
	maximum = 0.0155 (at node 33)
Accepted packet rate average = 0.0102813
	minimum = 0.0045 (at node 61)
	maximum = 0.016 (at node 12)
Injected flit rate average = 0.0102188
	minimum = 0.0045 (at node 47)
	maximum = 0.0155 (at node 33)
Accepted flit rate average= 0.0102813
	minimum = 0.0045 (at node 61)
	maximum = 0.016 (at node 12)
Injected packet length average = 1
Accepted packet length average = 1
Total in-flight flits = 18 (18 measured)
latency change    = 0.00856153
throughput change = 0.00455927
Class 0:
Packet latency average = 33.4855
	minimum = 7
	maximum = 78
Network latency average = 33.4855
	minimum = 7
	maximum = 78
Slowest packet = 30617
Flit latency average = 33.6218
	minimum = 7
	maximum = 78
Slowest flit = 30617
Fragmentation average = 0
	minimum = 0
	maximum = 0
Injected packet rate average = 0.0103281
	minimum = 0.006 (at node 47)
	maximum = 0.015 (at node 31)
Accepted packet rate average = 0.0103698
	minimum = 0.006 (at node 61)
	maximum = 0.0146667 (at node 59)
Injected flit rate average = 0.0103281
	minimum = 0.006 (at node 47)
	maximum = 0.015 (at node 31)
Accepted flit rate average= 0.0103698
	minimum = 0.006 (at node 61)
	maximum = 0.0146667 (at node 59)
Injected packet length average = 1
Accepted packet length average = 1
Total in-flight flits = 18 (18 measured)
latency change    = 0.0142306
throughput change = 0.00853842
Class 0:
Packet latency average = 33.3696
	minimum = 7
	maximum = 78
Network latency average = 33.3696
	minimum = 7
	maximum = 78
Slowest packet = 30617
Flit latency average = 33.4749
	minimum = 7
	maximum = 78
Slowest flit = 30617
Fragmentation average = 0
	minimum = 0
	maximum = 0
Injected packet rate average = 0.0101328
	minimum = 0.007 (at node 35)
	maximum = 0.0135 (at node 18)
Accepted packet rate average = 0.0101836
	minimum = 0.007 (at node 28)
	maximum = 0.0135 (at node 18)
Injected flit rate average = 0.0101328
	minimum = 0.007 (at node 35)
	maximum = 0.0135 (at node 18)
Accepted flit rate average= 0.0101836
	minimum = 0.007 (at node 28)
	maximum = 0.0135 (at node 18)
Injected packet length average = 1
Accepted packet length average = 1
Total in-flight flits = 13 (13 measured)
latency change    = 0.00347238
throughput change = 0.0182841
Draining all recorded packets ...
Draining remaining packets ...
Time taken is 7128 cycles
Class 0:
Packet latency average = 33.1349
	minimum = 7
	maximum = 77
Network latency average = 33.1349
	minimum = 7
	maximum = 77
Slowest packet = 33184
Flit latency average = 33.1349
	minimum = 7
	maximum = 77
Slowest flit = 33184
Fragmentation average = 0
	minimum = 0
	maximum = 0
Injected packet rate average = 0.010125
	minimum = 0.002 (at node 3)
	maximum = 0.019 (at node 54)
Accepted packet rate average = 0.00984375
	minimum = 0.002 (at node 24)
	maximum = 0.019 (at node 54)
Injected flit rate average = 0.010125
	minimum = 0.002 (at node 3)
	maximum = 0.019 (at node 54)
Accepted flit rate average= 0.00984375
	minimum = 0.002 (at node 24)
	maximum = 0.019 (at node 54)
Injected packet length average = 1
Accepted packet length average = 1
Total in-flight flits = 18 (0 measured)
latency change    = 1
throughput change = 1
Class 0:
Packet latency average = 33.1851
	minimum = 7
	maximum = 78
Network latency average = 33.1851
	minimum = 7
	maximum = 78
Slowest packet = 34333
Flit latency average = 33.1851
	minimum = 7
	maximum = 78
Slowest flit = 34333
Fragmentation average = 0
	minimum = 0
	maximum = 0
Injected packet rate average = 0.0100234
	minimum = 0.005 (at node 62)
	maximum = 0.015 (at node 5)
Accepted packet rate average = 0.009875
	minimum = 0.005 (at node 55)
	maximum = 0.015 (at node 40)
Injected flit rate average = 0.0100234
	minimum = 0.005 (at node 62)
	maximum = 0.015 (at node 5)
Accepted flit rate average= 0.009875
	minimum = 0.005 (at node 55)
	maximum = 0.015 (at node 40)
Injected packet length average = 1
Accepted packet length average = 1
Total in-flight flits = 19 (0 measured)
latency change    = 0.00151291
throughput change = 0.00316456
Class 0:
Packet latency average = 32.6922
	minimum = 7
	maximum = 77
Network latency average = 32.6922
	minimum = 7
	maximum = 77
Slowest packet = 34405
Flit latency average = 32.6922
	minimum = 7
	maximum = 77
Slowest flit = 34405
Fragmentation average = 0
	minimum = 0
	maximum = 0
Injected packet rate average = 0.0100781
	minimum = 0.004 (at node 51)
	maximum = 0.018 (at node 2)
Accepted packet rate average = 0.01
	minimum = 0.004 (at node 30)
	maximum = 0.017 (at node 46)
Injected flit rate average = 0.0100781
	minimum = 0.004 (at node 51)
	maximum = 0.018 (at node 2)
Accepted flit rate average= 0.01
	minimum = 0.004 (at node 30)
	maximum = 0.017 (at node 46)
Injected packet length average = 1
Accepted packet length average = 1
Total in-flight flits = 24 (0 measured)
latency change    = 0.0150782
throughput change = 0.0125
Warmed up ...Time used is 3000 cycles
Class 0:
Packet latency average = 31.9198
	minimum = 7
	maximum = 77
Network latency average = 31.9198
	minimum = 7
	maximum = 77
Slowest packet = 35127
Flit latency average = 32.311
	minimum = 7
	maximum = 78
Slowest flit = 35092
Fragmentation average = 0
	minimum = 0
	maximum = 0
Injected packet rate average = 0.010375
	minimum = 0.004 (at node 17)
	maximum = 0.018 (at node 58)
Accepted packet rate average = 0.0105
	minimum = 0.004 (at node 45)
	maximum = 0.019 (at node 23)
Injected flit rate average = 0.010375
	minimum = 0.004 (at node 17)
	maximum = 0.018 (at node 58)
Accepted flit rate average= 0.0105
	minimum = 0.004 (at node 45)
	maximum = 0.019 (at node 23)
Injected packet length average = 1
Accepted packet length average = 1
Total in-flight flits = 16 (16 measured)
latency change    = 0.0241993
throughput change = 0.047619
Class 0:
Packet latency average = 32.6121
	minimum = 7
	maximum = 77
Network latency average = 32.6121
	minimum = 7
	maximum = 77
Slowest packet = 35127
Flit latency average = 32.7971
	minimum = 7
	maximum = 78
Slowest flit = 35092
Fragmentation average = 0
	minimum = 0
	maximum = 0
Injected packet rate average = 0.0104141
	minimum = 0.005 (at node 45)
	maximum = 0.016 (at node 47)
Accepted packet rate average = 0.0103984
	minimum = 0.005 (at node 45)
	maximum = 0.016 (at node 61)
Injected flit rate average = 0.0104141
	minimum = 0.005 (at node 45)
	maximum = 0.016 (at node 47)
Accepted flit rate average= 0.0103984
	minimum = 0.005 (at node 45)
	maximum = 0.016 (at node 61)
Injected packet length average = 1
Accepted packet length average = 1
Total in-flight flits = 26 (26 measured)
latency change    = 0.0212294
throughput change = 0.00976709
Class 0:
Packet latency average = 32.7904
	minimum = 7
	maximum = 78
Network latency average = 32.7904
	minimum = 7
	maximum = 78
Slowest packet = 36658
Flit latency average = 32.9129
	minimum = 7
	maximum = 78
Slowest flit = 35092
Fragmentation average = 0
	minimum = 0
	maximum = 0
Injected packet rate average = 0.0102656
	minimum = 0.007 (at node 33)
	maximum = 0.0163333 (at node 21)
Accepted packet rate average = 0.0102865
	minimum = 0.00666667 (at node 12)
	maximum = 0.0163333 (at node 42)
Injected flit rate average = 0.0102656
	minimum = 0.007 (at node 33)
	maximum = 0.0163333 (at node 21)
Accepted flit rate average= 0.0102865
	minimum = 0.00666667 (at node 12)
	maximum = 0.0163333 (at node 42)
Injected packet length average = 1
Accepted packet length average = 1
Total in-flight flits = 20 (20 measured)
latency change    = 0.00543682
throughput change = 0.0108861
Draining all recorded packets ...
Draining remaining packets ...
Time taken is 6148 cycles
Class 0:
Packet latency average = 33.9662
	minimum = 7
	maximum = 81
Network latency average = 33.9662
	minimum = 7
	maximum = 81
Slowest packet = 37482
Flit latency average = 33.9662
	minimum = 7
	maximum = 81
Slowest flit = 37482
Fragmentation average = 0
	minimum = 0
	maximum = 0
Injected packet rate average = 0.00959375
	minimum = 0.002 (at node 25)
	maximum = 0.02 (at node 39)
Accepted packet rate average = 0.00923437
	minimum = 0.002 (at node 11)
	maximum = 0.02 (at node 60)
Injected flit rate average = 0.00959375
	minimum = 0.002 (at node 25)
	maximum = 0.02 (at node 39)
Accepted flit rate average= 0.00923437
	minimum = 0.002 (at node 11)
	maximum = 0.02 (at node 60)
Injected packet length average = 1
Accepted packet length average = 1
Total in-flight flits = 23 (0 measured)
latency change    = 1
throughput change = 1
Class 0:
Packet latency average = 33.0928
	minimum = 7
	maximum = 81
Network latency average = 33.0928
	minimum = 7
	maximum = 81
Slowest packet = 37482
Flit latency average = 33.0928
	minimum = 7
	maximum = 81
Slowest flit = 37482
Fragmentation average = 0
	minimum = 0
	maximum = 0
Injected packet rate average = 0.00969531
	minimum = 0.005 (at node 25)
	maximum = 0.0155 (at node 59)
Accepted packet rate average = 0.00960156
	minimum = 0.005 (at node 11)
	maximum = 0.0155 (at node 31)
Injected flit rate average = 0.00969531
	minimum = 0.005 (at node 25)
	maximum = 0.0155 (at node 59)
Accepted flit rate average= 0.00960156
	minimum = 0.005 (at node 11)
	maximum = 0.0155 (at node 31)
Injected packet length average = 1
Accepted packet length average = 1
Total in-flight flits = 12 (0 measured)
latency change    = 0.0263925
throughput change = 0.0382425
Class 0:
Packet latency average = 32.4672
	minimum = 7
	maximum = 77
Network latency average = 32.4672
	minimum = 7
	maximum = 77
Slowest packet = 38331
Flit latency average = 32.4672
	minimum = 7
	maximum = 77
Slowest flit = 38331
Fragmentation average = 0
	minimum = 0
	maximum = 0
Injected packet rate average = 0.009875
	minimum = 0.005 (at node 26)
	maximum = 0.018 (at node 2)
Accepted packet rate average = 0.00976562
	minimum = 0.004 (at node 13)
	maximum = 0.018 (at node 16)
Injected flit rate average = 0.009875
	minimum = 0.005 (at node 26)
	maximum = 0.018 (at node 2)
Accepted flit rate average= 0.00976562
	minimum = 0.004 (at node 13)
	maximum = 0.018 (at node 16)
Injected packet length average = 1
Accepted packet length average = 1
Total in-flight flits = 19 (0 measured)
latency change    = 0.0192674
throughput change = 0.0168
Warmed up ...Time used is 3000 cycles
Class 0:
Packet latency average = 33.136
	minimum = 7
	maximum = 77
Network latency average = 33.136
	minimum = 7
	maximum = 77
Slowest packet = 38991
Flit latency average = 33.2379
	minimum = 7
	maximum = 77
Slowest flit = 38991
Fragmentation average = 0
	minimum = 0
	maximum = 0
Injected packet rate average = 0.00971875
	minimum = 0.002 (at node 36)
	maximum = 0.017 (at node 51)
Accepted packet rate average = 0.00971875
	minimum = 0.002 (at node 36)
	maximum = 0.017 (at node 22)
Injected flit rate average = 0.00971875
	minimum = 0.002 (at node 36)
	maximum = 0.017 (at node 51)
Accepted flit rate average= 0.00971875
	minimum = 0.002 (at node 36)
	maximum = 0.017 (at node 22)
Injected packet length average = 1
Accepted packet length average = 1
Total in-flight flits = 19 (19 measured)
latency change    = 0.0201831
throughput change = 0.00482315
Class 0:
Packet latency average = 34.1178
	minimum = 7
	maximum = 77
Network latency average = 34.1178
	minimum = 7
	maximum = 77
Slowest packet = 38991
Flit latency average = 34.1541
	minimum = 7
	maximum = 77
Slowest flit = 38991
Fragmentation average = 0
	minimum = 0
	maximum = 0
Injected packet rate average = 0.00958594
	minimum = 0.0055 (at node 28)
	maximum = 0.014 (at node 27)
Accepted packet rate average = 0.00963281
	minimum = 0.0055 (at node 53)
	maximum = 0.0135 (at node 27)
Injected flit rate average = 0.00958594
	minimum = 0.0055 (at node 28)
	maximum = 0.014 (at node 27)
Accepted flit rate average= 0.00963281
	minimum = 0.0055 (at node 53)
	maximum = 0.0135 (at node 27)
Injected packet length average = 1
Accepted packet length average = 1
Total in-flight flits = 13 (13 measured)
latency change    = 0.0287769
throughput change = 0.00892133
Class 0:
Packet latency average = 33.0781
	minimum = 7
	maximum = 78
Network latency average = 33.0781
	minimum = 7
	maximum = 78
Slowest packet = 40526
Flit latency average = 33.1122
	minimum = 7
	maximum = 78
Slowest flit = 40526
Fragmentation average = 0
	minimum = 0
	maximum = 0
Injected packet rate average = 0.00985938
	minimum = 0.006 (at node 40)
	maximum = 0.0146667 (at node 27)
Accepted packet rate average = 0.00983854
	minimum = 0.006 (at node 5)
	maximum = 0.0146667 (at node 27)
Injected flit rate average = 0.00985938
	minimum = 0.006 (at node 40)
	maximum = 0.0146667 (at node 27)
Accepted flit rate average= 0.00983854
	minimum = 0.006 (at node 5)
	maximum = 0.0146667 (at node 27)
Injected packet length average = 1
Accepted packet length average = 1
Total in-flight flits = 23 (23 measured)
latency change    = 0.0314322
throughput change = 0.0209105
Draining all recorded packets ...
Draining remaining packets ...
Time taken is 6145 cycles
Class 0:
Packet latency average = 32.4812
	minimum = 7
	maximum = 83
Network latency average = 32.4812
	minimum = 7
	maximum = 83
Slowest packet = 41307
Flit latency average = 32.4812
	minimum = 7
	maximum = 83
Slowest flit = 41307
Fragmentation average = 0
	minimum = 0
	maximum = 0
Injected packet rate average = 0.00995313
	minimum = 0.004 (at node 41)
	maximum = 0.017 (at node 5)
Accepted packet rate average = 0.00957812
	minimum = 0.004 (at node 13)
	maximum = 0.016 (at node 40)
Injected flit rate average = 0.00995313
	minimum = 0.004 (at node 41)
	maximum = 0.017 (at node 5)
Accepted flit rate average= 0.00957812
	minimum = 0.004 (at node 13)
	maximum = 0.016 (at node 40)
Injected packet length average = 1
Accepted packet length average = 1
Total in-flight flits = 24 (0 measured)
latency change    = 1
throughput change = 1
Class 0:
Packet latency average = 32.5531
	minimum = 7
	maximum = 83
Network latency average = 32.5531
	minimum = 7
	maximum = 83
Slowest packet = 41307
Flit latency average = 32.5531
	minimum = 7
	maximum = 83
Slowest flit = 41307
Fragmentation average = 0
	minimum = 0
	maximum = 0
Injected packet rate average = 0.0101641
	minimum = 0.0065 (at node 10)
	maximum = 0.015 (at node 31)
Accepted packet rate average = 0.01
	minimum = 0.0065 (at node 17)
	maximum = 0.015 (at node 53)
Injected flit rate average = 0.0101641
	minimum = 0.0065 (at node 10)
	maximum = 0.015 (at node 31)
Accepted flit rate average= 0.01
	minimum = 0.0065 (at node 17)
	maximum = 0.015 (at node 53)
Injected packet length average = 1
Accepted packet length average = 1
Total in-flight flits = 21 (0 measured)
latency change    = 0.00220824
throughput change = 0.0421875
Class 0:
Packet latency average = 33.656
	minimum = 7
	maximum = 78
Network latency average = 33.656
	minimum = 7
	maximum = 78
Slowest packet = 42294
Flit latency average = 33.656
	minimum = 7
	maximum = 78
Slowest flit = 42294
Fragmentation average = 0
	minimum = 0
	maximum = 0
Injected packet rate average = 0.0102188
	minimum = 0.005 (at node 58)
	maximum = 0.019 (at node 0)
Accepted packet rate average = 0.0102656
	minimum = 0.005 (at node 23)
	maximum = 0.02 (at node 0)
Injected flit rate average = 0.0102188
	minimum = 0.005 (at node 58)
	maximum = 0.019 (at node 0)
Accepted flit rate average= 0.0102656
	minimum = 0.005 (at node 23)
	maximum = 0.02 (at node 0)
Injected packet length average = 1
Accepted packet length average = 1
Total in-flight flits = 18 (0 measured)
latency change    = 0.0327694
throughput change = 0.0258752
Warmed up ...Time used is 3000 cycles
Class 0:
Packet latency average = 32.2618
	minimum = 7
	maximum = 77
Network latency average = 32.2618
	minimum = 7
	maximum = 77
Slowest packet = 42902
Flit latency average = 32.4738
	minimum = 7
	maximum = 77
Slowest flit = 42902
Fragmentation average = 0
	minimum = 0
	maximum = 0
Injected packet rate average = 0.00926562
	minimum = 0.004 (at node 8)
	maximum = 0.017 (at node 39)
Accepted packet rate average = 0.00923437
	minimum = 0.004 (at node 6)
	maximum = 0.017 (at node 17)
Injected flit rate average = 0.00926562
	minimum = 0.004 (at node 8)
	maximum = 0.017 (at node 39)
Accepted flit rate average= 0.00923437
	minimum = 0.004 (at node 6)
	maximum = 0.017 (at node 17)
Injected packet length average = 1
Accepted packet length average = 1
Total in-flight flits = 20 (20 measured)
latency change    = 0.0432162
throughput change = 0.111675
Class 0:
Packet latency average = 32.3479
	minimum = 7
	maximum = 77
Network latency average = 32.3479
	minimum = 7
	maximum = 77
Slowest packet = 42902
Flit latency average = 32.4468
	minimum = 7
	maximum = 77
Slowest flit = 42902
Fragmentation average = 0
	minimum = 0
	maximum = 0
Injected packet rate average = 0.00984375
	minimum = 0.0055 (at node 48)
	maximum = 0.016 (at node 39)
Accepted packet rate average = 0.00977344
	minimum = 0.0055 (at node 6)
	maximum = 0.016 (at node 60)
Injected flit rate average = 0.00984375
	minimum = 0.0055 (at node 48)
	maximum = 0.016 (at node 39)
Accepted flit rate average= 0.00977344
	minimum = 0.0055 (at node 6)
	maximum = 0.016 (at node 60)
Injected packet length average = 1
Accepted packet length average = 1
Total in-flight flits = 27 (27 measured)
latency change    = 0.00266329
throughput change = 0.0551559
Class 0:
Packet latency average = 32.6346
	minimum = 7
	maximum = 78
Network latency average = 32.6346
	minimum = 7
	maximum = 78
Slowest packet = 44114
Flit latency average = 32.6978
	minimum = 7
	maximum = 78
Slowest flit = 44114
Fragmentation average = 0
	minimum = 0
	maximum = 0
Injected packet rate average = 0.00979688
	minimum = 0.00633333 (at node 5)
	maximum = 0.0136667 (at node 9)
Accepted packet rate average = 0.00977083
	minimum = 0.00666667 (at node 6)
	maximum = 0.0136667 (at node 9)
Injected flit rate average = 0.00979688
	minimum = 0.00633333 (at node 5)
	maximum = 0.0136667 (at node 9)
Accepted flit rate average= 0.00977083
	minimum = 0.00666667 (at node 6)
	maximum = 0.0136667 (at node 9)
Injected packet length average = 1
Accepted packet length average = 1
Total in-flight flits = 23 (23 measured)
latency change    = 0.00878276
throughput change = 0.000266525
Class 0:
Packet latency average = 32.7372
	minimum = 7
	maximum = 78
Network latency average = 32.7372
	minimum = 7
	maximum = 78
Slowest packet = 44114
Flit latency average = 32.7835
	minimum = 7
	maximum = 78
Slowest flit = 44114
Fragmentation average = 0
	minimum = 0
	maximum = 0
Injected packet rate average = 0.00987891
	minimum = 0.0075 (at node 5)
	maximum = 0.0135 (at node 10)
Accepted packet rate average = 0.00986719
	minimum = 0.00725 (at node 19)
	maximum = 0.01375 (at node 17)
Injected flit rate average = 0.00987891
	minimum = 0.0075 (at node 5)
	maximum = 0.0135 (at node 10)
Accepted flit rate average= 0.00986719
	minimum = 0.00725 (at node 19)
	maximum = 0.01375 (at node 17)
Injected packet length average = 1
Accepted packet length average = 1
Total in-flight flits = 21 (21 measured)
latency change    = 0.00313672
throughput change = 0.00976511
Class 0:
Packet latency average = 32.8352
	minimum = 7
	maximum = 78
Network latency average = 32.8352
	minimum = 7
	maximum = 78
Slowest packet = 44114
Flit latency average = 32.871
	minimum = 7
	maximum = 78
Slowest flit = 44114
Fragmentation average = 0
	minimum = 0
	maximum = 0
Injected packet rate average = 0.0100313
	minimum = 0.0076 (at node 42)
	maximum = 0.0136 (at node 10)
Accepted packet rate average = 0.0100281
	minimum = 0.0076 (at node 21)
	maximum = 0.0138 (at node 17)
Injected flit rate average = 0.0100313
	minimum = 0.0076 (at node 42)
	maximum = 0.0136 (at node 10)
Accepted flit rate average= 0.0100281
	minimum = 0.0076 (at node 21)
	maximum = 0.0138 (at node 17)
Injected packet length average = 1
Accepted packet length average = 1
Total in-flight flits = 19 (19 measured)
latency change    = 0.00298219
throughput change = 0.0160486
Draining all recorded packets ...
Draining remaining packets ...
Time taken is 8145 cycles
Class 0:
Packet latency average = 32.2914
	minimum = 7
	maximum = 77
Network latency average = 32.2914
	minimum = 7
	maximum = 77
Slowest packet = 46248
Flit latency average = 32.2914
	minimum = 7
	maximum = 77
Slowest flit = 46248
Fragmentation average = 0
	minimum = 0
	maximum = 0
Injected packet rate average = 0.0101719
	minimum = 0.004 (at node 33)
	maximum = 0.023 (at node 10)
Accepted packet rate average = 0.0098125
	minimum = 0.004 (at node 12)
	maximum = 0.023 (at node 17)
Injected flit rate average = 0.0101719
	minimum = 0.004 (at node 33)
	maximum = 0.023 (at node 10)
Accepted flit rate average= 0.0098125
	minimum = 0.004 (at node 12)
	maximum = 0.023 (at node 17)
Injected packet length average = 1
Accepted packet length average = 1
Total in-flight flits = 23 (0 measured)
latency change    = 1
throughput change = 1
Class 0:
Packet latency average = 32.9254
	minimum = 7
	maximum = 78
Network latency average = 32.9254
	minimum = 7
	maximum = 78
Slowest packet = 46775
Flit latency average = 32.9254
	minimum = 7
	maximum = 78
Slowest flit = 46775
Fragmentation average = 0
	minimum = 0
	maximum = 0
Injected packet rate average = 0.00989844
	minimum = 0.0035 (at node 8)
	maximum = 0.0175 (at node 10)
Accepted packet rate average = 0.00974219
	minimum = 0.0035 (at node 1)
	maximum = 0.0175 (at node 17)
Injected flit rate average = 0.00989844
	minimum = 0.0035 (at node 8)
	maximum = 0.0175 (at node 10)
Accepted flit rate average= 0.00974219
	minimum = 0.0035 (at node 1)
	maximum = 0.0175 (at node 17)
Injected packet length average = 1
Accepted packet length average = 1
Total in-flight flits = 20 (0 measured)
latency change    = 0.0192562
throughput change = 0.00721732
Class 0:
Packet latency average = 33.7801
	minimum = 7
	maximum = 78
Network latency average = 33.7801
	minimum = 7
	maximum = 78
Slowest packet = 47864
Flit latency average = 33.7801
	minimum = 7
	maximum = 78
Slowest flit = 47864
Fragmentation average = 0
	minimum = 0
	maximum = 0
Injected packet rate average = 0.00976562
	minimum = 0.001 (at node 34)
	maximum = 0.022 (at node 14)
Accepted packet rate average = 0.00973437
	minimum = 0 (at node 20)
	maximum = 0.02 (at node 49)
Injected flit rate average = 0.00976562
	minimum = 0.001 (at node 34)
	maximum = 0.022 (at node 14)
Accepted flit rate average= 0.00973437
	minimum = 0 (at node 20)
	maximum = 0.02 (at node 49)
Injected packet length average = 1
Accepted packet length average = 1
Total in-flight flits = 22 (0 measured)
latency change    = 0.0253012
throughput change = 0.000802568
Warmed up ...Time used is 3000 cycles
Class 0:
Packet latency average = 33.9497
	minimum = 7
	maximum = 78
Network latency average = 33.9497
	minimum = 7
	maximum = 78
Slowest packet = 48560
Flit latency average = 34.3267
	minimum = 7
	maximum = 78
Slowest flit = 48560
Fragmentation average = 0
	minimum = 0
	maximum = 0
Injected packet rate average = 0.0102188
	minimum = 0.004 (at node 37)
	maximum = 0.02 (at node 4)
Accepted packet rate average = 0.0102813
	minimum = 0.004 (at node 44)
	maximum = 0.019 (at node 32)
Injected flit rate average = 0.0102188
	minimum = 0.004 (at node 37)
	maximum = 0.02 (at node 4)
Accepted flit rate average= 0.0102813
	minimum = 0.004 (at node 44)
	maximum = 0.019 (at node 32)
Injected packet length average = 1
Accepted packet length average = 1
Total in-flight flits = 18 (18 measured)
latency change    = 0.00499531
throughput change = 0.0531915
Class 0:
Packet latency average = 32.904
	minimum = 7
	maximum = 78
Network latency average = 32.904
	minimum = 7
	maximum = 78
Slowest packet = 48560
Flit latency average = 33.1056
	minimum = 7
	maximum = 78
Slowest flit = 48560
Fragmentation average = 0
	minimum = 0
	maximum = 0
Injected packet rate average = 0.0104453
	minimum = 0.005 (at node 37)
	maximum = 0.015 (at node 40)
Accepted packet rate average = 0.0105078
	minimum = 0.005 (at node 44)
	maximum = 0.0145 (at node 5)
Injected flit rate average = 0.0104453
	minimum = 0.005 (at node 37)
	maximum = 0.015 (at node 40)
Accepted flit rate average= 0.0105078
	minimum = 0.005 (at node 44)
	maximum = 0.0145 (at node 5)
Injected packet length average = 1
Accepted packet length average = 1
Total in-flight flits = 14 (14 measured)
latency change    = 0.0317797
throughput change = 0.0215613
Class 0:
Packet latency average = 33.1814
	minimum = 7
	maximum = 78
Network latency average = 33.1814
	minimum = 7
	maximum = 78
Slowest packet = 48560
Flit latency average = 33.315
	minimum = 7
	maximum = 78
Slowest flit = 48560
Fragmentation average = 0
	minimum = 0
	maximum = 0
Injected packet rate average = 0.0102969
	minimum = 0.00666667 (at node 37)
	maximum = 0.0156667 (at node 19)
Accepted packet rate average = 0.0103333
	minimum = 0.00666667 (at node 44)
	maximum = 0.0156667 (at node 26)
Injected flit rate average = 0.0102969
	minimum = 0.00666667 (at node 37)
	maximum = 0.0156667 (at node 19)
Accepted flit rate average= 0.0103333
	minimum = 0.00666667 (at node 44)
	maximum = 0.0156667 (at node 26)
Injected packet length average = 1
Accepted packet length average = 1
Total in-flight flits = 15 (15 measured)
latency change    = 0.00836134
throughput change = 0.0168851
Class 0:
Packet latency average = 33.4485
	minimum = 7
	maximum = 78
Network latency average = 33.4485
	minimum = 7
	maximum = 78
Slowest packet = 48560
Flit latency average = 33.5469
	minimum = 7
	maximum = 78
Slowest flit = 48560
Fragmentation average = 0
	minimum = 0
	maximum = 0
Injected packet rate average = 0.0102695
	minimum = 0.007 (at node 37)
	maximum = 0.01475 (at node 40)
Accepted packet rate average = 0.0102852
	minimum = 0.007 (at node 44)
	maximum = 0.01475 (at node 5)
Injected flit rate average = 0.0102695
	minimum = 0.007 (at node 37)
	maximum = 0.01475 (at node 40)
Accepted flit rate average= 0.0102852
	minimum = 0.007 (at node 44)
	maximum = 0.01475 (at node 5)
Injected packet length average = 1
Accepted packet length average = 1
Total in-flight flits = 18 (18 measured)
latency change    = 0.00798361
throughput change = 0.00468414
Draining all recorded packets ...
Draining remaining packets ...
Time taken is 7148 cycles
Class 0:
Packet latency average = 32.7018
	minimum = 7
	maximum = 78
Network latency average = 32.7018
	minimum = 7
	maximum = 78
Slowest packet = 51203
Flit latency average = 32.7018
	minimum = 7
	maximum = 78
Slowest flit = 51203
Fragmentation average = 0
	minimum = 0
	maximum = 0
Injected packet rate average = 0.01
	minimum = 0.003 (at node 56)
	maximum = 0.019 (at node 1)
Accepted packet rate average = 0.00964062
	minimum = 0.003 (at node 7)
	maximum = 0.019 (at node 8)
Injected flit rate average = 0.01
	minimum = 0.003 (at node 56)
	maximum = 0.019 (at node 1)
Accepted flit rate average= 0.00964062
	minimum = 0.003 (at node 7)
	maximum = 0.019 (at node 8)
Injected packet length average = 1
Accepted packet length average = 1
Total in-flight flits = 23 (0 measured)
latency change    = 1
throughput change = 1
Class 0:
Packet latency average = 33.1837
	minimum = 7
	maximum = 78
Network latency average = 33.1837
	minimum = 7
	maximum = 78
Slowest packet = 51203
Flit latency average = 33.1837
	minimum = 7
	maximum = 78
Slowest flit = 51203
Fragmentation average = 0
	minimum = 0
	maximum = 0
Injected packet rate average = 0.0102422
	minimum = 0.006 (at node 47)
	maximum = 0.015 (at node 7)
Accepted packet rate average = 0.00999219
	minimum = 0.006 (at node 49)
	maximum = 0.014 (at node 8)
Injected flit rate average = 0.0102422
	minimum = 0.006 (at node 47)
	maximum = 0.015 (at node 7)
Accepted flit rate average= 0.00999219
	minimum = 0.006 (at node 49)
	maximum = 0.014 (at node 8)
Injected packet length average = 1
Accepted packet length average = 1
Total in-flight flits = 32 (0 measured)
latency change    = 0.0145238
throughput change = 0.0351837
Class 0:
Packet latency average = 34.5504
	minimum = 7
	maximum = 78
Network latency average = 34.5504
	minimum = 7
	maximum = 78
Slowest packet = 52279
Flit latency average = 34.5504
	minimum = 7
	maximum = 78
Slowest flit = 52279
Fragmentation average = 0
	minimum = 0
	maximum = 0
Injected packet rate average = 0.0102031
	minimum = 0.005 (at node 25)
	maximum = 0.016 (at node 48)
Accepted packet rate average = 0.0103906
	minimum = 0.005 (at node 11)
	maximum = 0.016 (at node 6)
Injected flit rate average = 0.0102031
	minimum = 0.005 (at node 25)
	maximum = 0.016 (at node 48)
Accepted flit rate average= 0.0103906
	minimum = 0.005 (at node 11)
	maximum = 0.016 (at node 6)
Injected packet length average = 1
Accepted packet length average = 1
Total in-flight flits = 20 (0 measured)
latency change    = 0.039555
throughput change = 0.0383459
Warmed up ...Time used is 3000 cycles
Class 0:
Packet latency average = 32.476
	minimum = 7
	maximum = 77
Network latency average = 32.476
	minimum = 7
	maximum = 77
Slowest packet = 52680
Flit latency average = 33.0232
	minimum = 7
	maximum = 77
Slowest flit = 52680
Fragmentation average = 0
	minimum = 0
	maximum = 0
Injected packet rate average = 0.00935937
	minimum = 0.004 (at node 14)
	maximum = 0.015 (at node 18)
Accepted packet rate average = 0.0094375
	minimum = 0.002 (at node 49)
	maximum = 0.015 (at node 18)
Injected flit rate average = 0.00935937
	minimum = 0.004 (at node 14)
	maximum = 0.015 (at node 18)
Accepted flit rate average= 0.0094375
	minimum = 0.002 (at node 49)
	maximum = 0.015 (at node 18)
Injected packet length average = 1
Accepted packet length average = 1
Total in-flight flits = 15 (15 measured)
latency change    = 0.0638732
throughput change = 0.100993
Class 0:
Packet latency average = 33.3611
	minimum = 7
	maximum = 77
Network latency average = 33.3611
	minimum = 7
	maximum = 77
Slowest packet = 52680
Flit latency average = 33.6104
	minimum = 7
	maximum = 77
Slowest flit = 52680
Fragmentation average = 0
	minimum = 0
	maximum = 0
Injected packet rate average = 0.00982813
	minimum = 0.0055 (at node 45)
	maximum = 0.016 (at node 48)
Accepted packet rate average = 0.00980469
	minimum = 0.005 (at node 45)
	maximum = 0.015 (at node 6)
Injected flit rate average = 0.00982813
	minimum = 0.0055 (at node 45)
	maximum = 0.016 (at node 48)
Accepted flit rate average= 0.00980469
	minimum = 0.005 (at node 45)
	maximum = 0.015 (at node 6)
Injected packet length average = 1
Accepted packet length average = 1
Total in-flight flits = 23 (23 measured)
latency change    = 0.0265311
throughput change = 0.0374502
Class 0:
Packet latency average = 33.6048
	minimum = 7
	maximum = 78
Network latency average = 33.6048
	minimum = 7
	maximum = 78
Slowest packet = 54210
Flit latency average = 33.7664
	minimum = 7
	maximum = 78
Slowest flit = 54210
Fragmentation average = 0
	minimum = 0
	maximum = 0
Injected packet rate average = 0.00998958
	minimum = 0.00566667 (at node 24)
	maximum = 0.0133333 (at node 56)
Accepted packet rate average = 0.00992188
	minimum = 0.006 (at node 3)
	maximum = 0.0133333 (at node 7)
Injected flit rate average = 0.00998958
	minimum = 0.00566667 (at node 24)
	maximum = 0.0133333 (at node 56)
Accepted flit rate average= 0.00992188
	minimum = 0.006 (at node 3)
	maximum = 0.0133333 (at node 7)
Injected packet length average = 1
Accepted packet length average = 1
Total in-flight flits = 33 (33 measured)
latency change    = 0.00725019
throughput change = 0.011811
Class 0:
Packet latency average = 33.3424
	minimum = 7
	maximum = 78
Network latency average = 33.3424
	minimum = 7
	maximum = 78
Slowest packet = 54210
Flit latency average = 33.4648
	minimum = 7
	maximum = 78
Slowest flit = 54210
Fragmentation average = 0
	minimum = 0
	maximum = 0
Injected packet rate average = 0.00998047
	minimum = 0.00675 (at node 24)
	maximum = 0.0125 (at node 60)
Accepted packet rate average = 0.00999219
	minimum = 0.00675 (at node 3)
	maximum = 0.0125 (at node 39)
Injected flit rate average = 0.00998047
	minimum = 0.00675 (at node 24)
	maximum = 0.0125 (at node 60)
Accepted flit rate average= 0.00999219
	minimum = 0.00675 (at node 3)
	maximum = 0.0125 (at node 39)
Injected packet length average = 1
Accepted packet length average = 1
Total in-flight flits = 17 (17 measured)
latency change    = 0.00786923
throughput change = 0.00703675
Draining all recorded packets ...
Draining remaining packets ...
Time taken is 7118 cycles
Class 0:
Packet latency average = 33.4793
	minimum = 7
	maximum = 77
Network latency average = 33.4793
	minimum = 7
	maximum = 77
Slowest packet = 55320
Flit latency average = 33.4793
	minimum = 7
	maximum = 77
Slowest flit = 55320
Fragmentation average = 0
	minimum = 0
	maximum = 0
Injected packet rate average = 0.00979688
	minimum = 0.004 (at node 33)
	maximum = 0.022 (at node 21)
Accepted packet rate average = 0.00942187
	minimum = 0.004 (at node 6)
	maximum = 0.02 (at node 42)
Injected flit rate average = 0.00979688
	minimum = 0.004 (at node 33)
	maximum = 0.022 (at node 21)
Accepted flit rate average= 0.00942187
	minimum = 0.004 (at node 6)
	maximum = 0.02 (at node 42)
Injected packet length average = 1
Accepted packet length average = 1
Total in-flight flits = 24 (0 measured)
latency change    = 1
throughput change = 1
Class 0:
Packet latency average = 33.898
	minimum = 7
	maximum = 77
Network latency average = 33.898
	minimum = 7
	maximum = 77
Slowest packet = 55320
Flit latency average = 33.898
	minimum = 7
	maximum = 77
Slowest flit = 55320
Fragmentation average = 0
	minimum = 0
	maximum = 0
Injected packet rate average = 0.0100234
	minimum = 0.004 (at node 25)
	maximum = 0.016 (at node 21)
Accepted packet rate average = 0.00988281
	minimum = 0.004 (at node 11)
	maximum = 0.016 (at node 42)
Injected flit rate average = 0.0100234
	minimum = 0.004 (at node 25)
	maximum = 0.016 (at node 21)
Accepted flit rate average= 0.00988281
	minimum = 0.004 (at node 11)
	maximum = 0.016 (at node 42)
Injected packet length average = 1
Accepted packet length average = 1
Total in-flight flits = 18 (0 measured)
latency change    = 0.0123533
throughput change = 0.0466403
Class 0:
Packet latency average = 32.8283
	minimum = 7
	maximum = 80
Network latency average = 32.8283
	minimum = 7
	maximum = 80
Slowest packet = 56787
Flit latency average = 32.8283
	minimum = 7
	maximum = 80
Slowest flit = 56787
Fragmentation average = 0
	minimum = 0
	maximum = 0
Injected packet rate average = 0.00998438
	minimum = 0.003 (at node 57)
	maximum = 0.02 (at node 36)
Accepted packet rate average = 0.00992188
	minimum = 0.002 (at node 15)
	maximum = 0.02 (at node 36)
Injected flit rate average = 0.00998438
	minimum = 0.003 (at node 57)
	maximum = 0.02 (at node 36)
Accepted flit rate average= 0.00992188
	minimum = 0.002 (at node 15)
	maximum = 0.02 (at node 36)
Injected packet length average = 1
Accepted packet length average = 1
Total in-flight flits = 22 (0 measured)
latency change    = 0.032584
throughput change = 0.00393701
Warmed up ...Time used is 3000 cycles
Class 0:
Packet latency average = 34.1017
	minimum = 7
	maximum = 78
Network latency average = 34.1017
	minimum = 7
	maximum = 78
Slowest packet = 57649
Flit latency average = 34.5345
	minimum = 7
	maximum = 78
Slowest flit = 57649
Fragmentation average = 0
	minimum = 0
	maximum = 0
Injected packet rate average = 0.010625
	minimum = 0.004 (at node 45)
	maximum = 0.02 (at node 32)
Accepted packet rate average = 0.0106406
	minimum = 0.004 (at node 7)
	maximum = 0.02 (at node 4)
Injected flit rate average = 0.010625
	minimum = 0.004 (at node 45)
	maximum = 0.02 (at node 32)
Accepted flit rate average= 0.0106406
	minimum = 0.004 (at node 7)
	maximum = 0.02 (at node 4)
Injected packet length average = 1
Accepted packet length average = 1
Total in-flight flits = 21 (21 measured)
latency change    = 0.037339
throughput change = 0.0675477
Class 0:
Packet latency average = 33.2857
	minimum = 7
	maximum = 78
Network latency average = 33.2857
	minimum = 7
	maximum = 78
Slowest packet = 57649
Flit latency average = 33.5232
	minimum = 7
	maximum = 78
Slowest flit = 57649
Fragmentation average = 0
	minimum = 0
	maximum = 0
Injected packet rate average = 0.0102813
	minimum = 0.0055 (at node 45)
	maximum = 0.015 (at node 32)
Accepted packet rate average = 0.0102891
	minimum = 0.0055 (at node 7)
	maximum = 0.015 (at node 4)
Injected flit rate average = 0.0102813
	minimum = 0.0055 (at node 45)
	maximum = 0.015 (at node 32)
Accepted flit rate average= 0.0102891
	minimum = 0.0055 (at node 7)
	maximum = 0.015 (at node 4)
Injected packet length average = 1
Accepted packet length average = 1
Total in-flight flits = 21 (21 measured)
latency change    = 0.0245137
throughput change = 0.0341686
Class 0:
Packet latency average = 33.5807
	minimum = 7
	maximum = 78
Network latency average = 33.5807
	minimum = 7
	maximum = 78
Slowest packet = 57649
Flit latency average = 33.7397
	minimum = 7
	maximum = 78
Slowest flit = 57649
Fragmentation average = 0
	minimum = 0
	maximum = 0
Injected packet rate average = 0.0100313
	minimum = 0.006 (at node 45)
	maximum = 0.0156667 (at node 16)
Accepted packet rate average = 0.010026
	minimum = 0.006 (at node 45)
	maximum = 0.0153333 (at node 2)
Injected flit rate average = 0.0100313
	minimum = 0.006 (at node 45)
	maximum = 0.0156667 (at node 16)
Accepted flit rate average= 0.010026
	minimum = 0.006 (at node 45)
	maximum = 0.0153333 (at node 2)
[...]
	maximum = 0.015 (at node 13)
Accepted flit rate average= 0.00979688
	minimum = 0.0055 (at node 11)
	maximum = 0.015 (at node 41)
Injected packet length average = 1
Accepted packet length average = 1
Total in-flight flits = 24 (24 measured)
latency change    = 0.00797039
throughput change = 0.0494418
Class 0:
Packet latency average = 33.6734
	minimum = 7
	maximum = 78
Network latency average = 33.6734
	minimum = 7
	maximum = 78
Slowest packet = 408786
Flit latency average = 33.7526
	minimum = 7
	maximum = 78
Slowest flit = 408786
Fragmentation average = 0
	minimum = 0
	maximum = 0
Injected packet rate average = 0.00985938
	minimum = 0.00633333 (at node 9)
	maximum = 0.0143333 (at node 52)
Accepted packet rate average = 0.00985417
	minimum = 0.00633333 (at node 9)
	maximum = 0.0143333 (at node 38)
Injected flit rate average = 0.00985938
	minimum = 0.00633333 (at node 9)
	maximum = 0.0143333 (at node 52)
Accepted flit rate average= 0.00985417
	minimum = 0.00633333 (at node 9)
	maximum = 0.0143333 (at node 38)
Injected packet length average = 1
Accepted packet length average = 1
Total in-flight flits = 22 (22 measured)
latency change    = 0.00319496
throughput change = 0.00581395
Draining all recorded packets ...
Draining remaining packets ...
Time taken is 6116 cycles
Class 0:
Packet latency average = 33.6632
	minimum = 7
	maximum = 77
Network latency average = 33.6632
	minimum = 7
	maximum = 77
Slowest packet = 410491
Flit latency average = 33.6632
	minimum = 7
	maximum = 77
Slowest flit = 410491
Fragmentation average = 0
	minimum = 0
	maximum = 0
Injected packet rate average = 0.009375
	minimum = 0.003 (at node 9)
	maximum = 0.022 (at node 50)
Accepted packet rate average = 0.00904687
	minimum = 0.003 (at node 9)
	maximum = 0.022 (at node 22)
Injected flit rate average = 0.009375
	minimum = 0.003 (at node 9)
	maximum = 0.022 (at node 50)
Accepted flit rate average= 0.00904687
	minimum = 0.003 (at node 9)
	maximum = 0.022 (at node 22)
Injected packet length average = 1
Accepted packet length average = 1
Total in-flight flits = 21 (0 measured)
latency change    = 1
throughput change = 1
Class 0:
Packet latency average = 33.3239
	minimum = 7
	maximum = 77
Network latency average = 33.3239
	minimum = 7
	maximum = 77
Slowest packet = 410491
Flit latency average = 33.3239
	minimum = 7
	maximum = 77
Slowest flit = 410491
Fragmentation average = 0
	minimum = 0
	maximum = 0
Injected packet rate average = 0.00953906
	minimum = 0.004 (at node 0)
	maximum = 0.0155 (at node 50)
Accepted packet rate average = 0.00940625
	minimum = 0.004 (at node 0)
	maximum = 0.015 (at node 22)
Injected flit rate average = 0.00953906
	minimum = 0.004 (at node 0)
	maximum = 0.0155 (at node 50)
Accepted flit rate average= 0.00940625
	minimum = 0.004 (at node 0)
	maximum = 0.015 (at node 22)
Injected packet length average = 1
Accepted packet length average = 1
Total in-flight flits = 17 (0 measured)
latency change    = 0.0101816
throughput change = 0.038206
Class 0:
Packet latency average = 33.8471
	minimum = 7
	maximum = 78
Network latency average = 33.8471
	minimum = 7
	maximum = 78
Slowest packet = 411802
Flit latency average = 33.8471
	minimum = 7
	maximum = 78
Slowest flit = 411802
Fragmentation average = 0
	minimum = 0
	maximum = 0
Injected packet rate average = 0.0105
	minimum = 0.005 (at node 2)
	maximum = 0.018 (at node 10)
Accepted packet rate average = 0.0104219
	minimum = 0.005 (at node 4)
	maximum = 0.018 (at node 49)
Injected flit rate average = 0.0105
	minimum = 0.005 (at node 2)
	maximum = 0.018 (at node 10)
Accepted flit rate average= 0.0104219
	minimum = 0.005 (at node 4)
	maximum = 0.018 (at node 49)
Injected packet length average = 1
Accepted packet length average = 1
Total in-flight flits = 22 (0 measured)
latency change    = 0.0154565
throughput change = 0.0974513
Warmed up ...Time used is 3000 cycles
Class 0:
Packet latency average = 33.297
	minimum = 7
	maximum = 77
Network latency average = 33.297
	minimum = 7
	maximum = 77
Slowest packet = 412439
Flit latency average = 33.586
	minimum = 7
	maximum = 77
Slowest flit = 412349
Fragmentation average = 0
	minimum = 0
	maximum = 0
Injected packet rate average = 0.00976562
	minimum = 0.004 (at node 4)
	maximum = 0.017 (at node 3)
Accepted packet rate average = 0.0098125
	minimum = 0.004 (at node 61)
	maximum = 0.017 (at node 24)
Injected flit rate average = 0.00976562
	minimum = 0.004 (at node 4)
	maximum = 0.017 (at node 3)
Accepted flit rate average= 0.0098125
	minimum = 0.004 (at node 61)
	maximum = 0.017 (at node 24)
Injected packet length average = 1
Accepted packet length average = 1
Total in-flight flits = 19 (19 measured)
latency change    = 0.0165194
throughput change = 0.0621019
Class 0:
Packet latency average = 33.0635
	minimum = 7
	maximum = 78
Network latency average = 33.0635
	minimum = 7
	maximum = 78
Slowest packet = 413558
Flit latency average = 33.209
	minimum = 7
	maximum = 78
Slowest flit = 413558
Fragmentation average = 0
	minimum = 0
	maximum = 0
Injected packet rate average = 0.00995313
	minimum = 0.006 (at node 33)
	maximum = 0.0165 (at node 3)
Accepted packet rate average = 0.0100156
	minimum = 0.006 (at node 12)
	maximum = 0.0165 (at node 24)
Injected flit rate average = 0.00995313
	minimum = 0.006 (at node 33)
	maximum = 0.0165 (at node 3)
Accepted flit rate average= 0.0100156
	minimum = 0.006 (at node 12)
	maximum = 0.0165 (at node 24)
Injected packet length average = 1
Accepted packet length average = 1
Total in-flight flits = 14 (14 measured)
latency change    = 0.00706331
throughput change = 0.0202808
Class 0:
Packet latency average = 33.0353
	minimum = 7
	maximum = 78
Network latency average = 33.0353
	minimum = 7
	maximum = 78
Slowest packet = 413558
Flit latency average = 33.1342
	minimum = 7
	maximum = 78
Slowest flit = 413558
Fragmentation average = 0
	minimum = 0
	maximum = 0
Injected packet rate average = 0.00983333
	minimum = 0.00566667 (at node 33)
	maximum = 0.0143333 (at node 10)
Accepted packet rate average = 0.00985417
	minimum = 0.00566667 (at node 12)
	maximum = 0.0146667 (at node 17)
Injected flit rate average = 0.00983333
	minimum = 0.00566667 (at node 33)
	maximum = 0.0143333 (at node 10)
Accepted flit rate average= 0.00985417
	minimum = 0.00566667 (at node 12)
	maximum = 0.0146667 (at node 17)
Injected packet length average = 1
Accepted packet length average = 1
Total in-flight flits = 18 (18 measured)
latency change    = 0.00085357
throughput change = 0.0163848
Class 0:
Packet latency average = 32.956
	minimum = 7
	maximum = 78
Network latency average = 32.956
	minimum = 7
	maximum = 78
Slowest packet = 413558
Flit latency average = 33.0316
	minimum = 7
	maximum = 78
Slowest flit = 413558
Fragmentation average = 0
	minimum = 0
	maximum = 0
Injected packet rate average = 0.00977734
	minimum = 0.00675 (at node 47)
	maximum = 0.01375 (at node 10)
Accepted packet rate average = 0.00975781
	minimum = 0.00675 (at node 61)
	maximum = 0.01375 (at node 17)
Injected flit rate average = 0.00977734
	minimum = 0.00675 (at node 47)
	maximum = 0.01375 (at node 10)
Accepted flit rate average= 0.00975781
	minimum = 0.00675 (at node 61)
	maximum = 0.01375 (at node 17)
Injected packet length average = 1
Accepted packet length average = 1
Total in-flight flits = 27 (27 measured)
latency change    = 0.00240675
throughput change = 0.00987457
Draining all recorded packets ...
Draining remaining packets ...
Time taken is 7140 cycles
Class 0:
Packet latency average = 33.1381
	minimum = 7
	maximum = 78
Network latency average = 33.1381
	minimum = 7
	maximum = 78
Slowest packet = 415013
Flit latency average = 33.1381
	minimum = 7
	maximum = 78
Slowest flit = 415013
Fragmentation average = 0
	minimum = 0
	maximum = 0
Injected packet rate average = 0.01025
	minimum = 0.003 (at node 13)
	maximum = 0.022 (at node 55)
Accepted packet rate average = 0.00995313
	minimum = 0.003 (at node 41)
	maximum = 0.022 (at node 62)
Injected flit rate average = 0.01025
	minimum = 0.003 (at node 13)
	maximum = 0.022 (at node 55)
Accepted flit rate average= 0.00995313
	minimum = 0.003 (at node 41)
	maximum = 0.022 (at node 62)
Injected packet length average = 1
Accepted packet length average = 1
Total in-flight flits = 19 (0 measured)
latency change    = 1
throughput change = 1
Class 0:
Packet latency average = 33.2648
	minimum = 7
	maximum = 78
Network latency average = 33.2648
	minimum = 7
	maximum = 78
Slowest packet = 415013
Flit latency average = 33.2648
	minimum = 7
	maximum = 78
Slowest flit = 415013
Fragmentation average = 0
	minimum = 0
	maximum = 0
Injected packet rate average = 0.0098125
	minimum = 0.0045 (at node 29)
	maximum = 0.017 (at node 55)
Accepted packet rate average = 0.00964844
	minimum = 0.0045 (at node 41)
	maximum = 0.017 (at node 62)
Injected flit rate average = 0.0098125
	minimum = 0.0045 (at node 29)
	maximum = 0.017 (at node 55)
Accepted flit rate average= 0.00964844
	minimum = 0.0045 (at node 41)
	maximum = 0.017 (at node 62)
Injected packet length average = 1
Accepted packet length average = 1
Total in-flight flits = 21 (0 measured)
latency change    = 0.00380672
throughput change = 0.0315789
Class 0:
Packet latency average = 33.357
	minimum = 7
	maximum = 77
Network latency average = 33.357
	minimum = 7
	maximum = 77
Slowest packet = 416172
Flit latency average = 33.357
	minimum = 7
	maximum = 77
Slowest flit = 416172
Fragmentation average = 0
	minimum = 0
	maximum = 0
Injected packet rate average = 0.0105
	minimum = 0.003 (at node 0)
	maximum = 0.018 (at node 46)
Accepted packet rate average = 0.0103281
	minimum = 0.003 (at node 0)
	maximum = 0.018 (at node 53)
Injected flit rate average = 0.0105
	minimum = 0.003 (at node 0)
	maximum = 0.018 (at node 46)
Accepted flit rate average= 0.0103281
	minimum = 0.003 (at node 0)
	maximum = 0.018 (at node 53)
Injected packet length average = 1
Accepted packet length average = 1
Total in-flight flits = 32 (0 measured)
latency change    = 0.00276576
throughput change = 0.0658094
Warmed up ...Time used is 3000 cycles
Class 0:
Packet latency average = 32.2895
	minimum = 7
	maximum = 77
Network latency average = 32.2895
	minimum = 7
	maximum = 77
Slowest packet = 416876
Flit latency average = 32.8805
	minimum = 7
	maximum = 77
Slowest flit = 416853
Fragmentation average = 0
	minimum = 0
	maximum = 0
Injected packet rate average = 0.0103438
	minimum = 0.004 (at node 58)
	maximum = 0.023 (at node 27)
Accepted packet rate average = 0.0105938
	minimum = 0.005 (at node 8)
	maximum = 0.023 (at node 27)
Injected flit rate average = 0.0103438
	minimum = 0.004 (at node 58)
	maximum = 0.023 (at node 27)
Accepted flit rate average= 0.0105938
	minimum = 0.005 (at node 8)
	maximum = 0.023 (at node 27)
Injected packet length average = 1
Accepted packet length average = 1
Total in-flight flits = 16 (16 measured)
latency change    = 0.0330622
throughput change = 0.0250737
Class 0:
Packet latency average = 32.7127
	minimum = 7
	maximum = 78
Network latency average = 32.7127
	minimum = 7
	maximum = 78
Slowest packet = 417763
Flit latency average = 33.0007
	minimum = 7
	maximum = 78
Slowest flit = 417763
Fragmentation average = 0
	minimum = 0
	maximum = 0
Injected packet rate average = 0.010375
	minimum = 0.0065 (at node 21)
	maximum = 0.017 (at node 27)
Accepted packet rate average = 0.0105
	minimum = 0.007 (at node 4)
	maximum = 0.017 (at node 35)
Injected flit rate average = 0.010375
	minimum = 0.0065 (at node 21)
	maximum = 0.017 (at node 27)
Accepted flit rate average= 0.0105
	minimum = 0.007 (at node 4)
	maximum = 0.017 (at node 35)
Injected packet length average = 1
Accepted packet length average = 1
Total in-flight flits = 16 (16 measured)
latency change    = 0.0129362
throughput change = 0.00892857
Class 0:
Packet latency average = 33.3083
	minimum = 7
	maximum = 78
Network latency average = 33.3083
	minimum = 7
	maximum = 78
Slowest packet = 417763
Flit latency average = 33.4957
	minimum = 7
	maximum = 78
Slowest flit = 417763
Fragmentation average = 0
	minimum = 0
	maximum = 0
Injected packet rate average = 0.0101823
	minimum = 0.00666667 (at node 8)
	maximum = 0.0146667 (at node 27)
Accepted packet rate average = 0.0102344
	minimum = 0.00666667 (at node 1)
	maximum = 0.0146667 (at node 27)
Injected flit rate average = 0.0101823
	minimum = 0.00666667 (at node 8)
	maximum = 0.0146667 (at node 27)
Accepted flit rate average= 0.0102344
	minimum = 0.00666667 (at node 1)
	maximum = 0.0146667 (at node 27)
Injected packet length average = 1
Accepted packet length average = 1
Total in-flight flits = 22 (22 measured)
latency change    = 0.0178837
throughput change = 0.0259542
Draining all recorded packets ...
Draining remaining packets ...
Time taken is 6123 cycles
Class 0:
Packet latency average = 34.6738
	minimum = 7
	maximum = 78
Network latency average = 34.6738
	minimum = 7
	maximum = 78
Slowest packet = 419387
Flit latency average = 34.6738
	minimum = 7
	maximum = 78
Slowest flit = 419387
Fragmentation average = 0
	minimum = 0
	maximum = 0
Injected packet rate average = 0.00984375
	minimum = 0.004 (at node 20)
	maximum = 0.018 (at node 7)
Accepted packet rate average = 0.00953125
	minimum = 0.004 (at node 34)
	maximum = 0.018 (at node 11)
Injected flit rate average = 0.00984375
	minimum = 0.004 (at node 20)
	maximum = 0.018 (at node 7)
Accepted flit rate average= 0.00953125
	minimum = 0.004 (at node 34)
	maximum = 0.018 (at node 11)
Injected packet length average = 1
Accepted packet length average = 1
Total in-flight flits = 20 (0 measured)
latency change    = 1
throughput change = 1
Class 0:
Packet latency average = 34.2648
	minimum = 7
	maximum = 78
Network latency average = 34.2648
	minimum = 7
	maximum = 78
Slowest packet = 419387
Flit latency average = 34.2648
	minimum = 7
	maximum = 78
Slowest flit = 419387
Fragmentation average = 0
	minimum = 0
	maximum = 0
Injected packet rate average = 0.0100156
	minimum = 0.0045 (at node 20)
	maximum = 0.0145 (at node 38)
Accepted packet rate average = 0.00979688
	minimum = 0.004 (at node 34)
	maximum = 0.0145 (at node 52)
Injected flit rate average = 0.0100156
	minimum = 0.0045 (at node 20)
	maximum = 0.0145 (at node 38)
Accepted flit rate average= 0.00979688
	minimum = 0.004 (at node 34)
	maximum = 0.0145 (at node 52)
Injected packet length average = 1
Accepted packet length average = 1
Total in-flight flits = 28 (0 measured)
latency change    = 0.011937
throughput change = 0.0271132
Class 0:
Packet latency average = 33.3643
	minimum = 7
	maximum = 77
Network latency average = 33.3643
	minimum = 7
	maximum = 77
Slowest packet = 420112
Flit latency average = 33.3643
	minimum = 7
	maximum = 77
Slowest flit = 420112
Fragmentation average = 0
	minimum = 0
	maximum = 0
Injected packet rate average = 0.0101719
	minimum = 0.003 (at node 39)
	maximum = 0.018 (at node 47)
Accepted packet rate average = 0.01025
	minimum = 0.003 (at node 60)
	maximum = 0.019 (at node 61)
Injected flit rate average = 0.0101719
	minimum = 0.003 (at node 39)
	maximum = 0.018 (at node 47)
Accepted flit rate average= 0.01025
	minimum = 0.003 (at node 60)
	maximum = 0.019 (at node 61)
Injected packet length average = 1
Accepted packet length average = 1
Total in-flight flits = 23 (0 measured)
latency change    = 0.0269876
throughput change = 0.0442073
Warmed up ...Time used is 3000 cycles
Class 0:
Packet latency average = 33.2914
	minimum = 7
	maximum = 78
Network latency average = 33.2914
	minimum = 7
	maximum = 78
Slowest packet = 421154
Flit latency average = 33.9547
	minimum = 7
	maximum = 78
Slowest flit = 421154
Fragmentation average = 0
	minimum = 0
	maximum = 0
Injected packet rate average = 0.00935937
	minimum = 0.004 (at node 13)
	maximum = 0.015 (at node 48)
Accepted packet rate average = 0.0093125
	minimum = 0.004 (at node 41)
	maximum = 0.017 (at node 6)
Injected flit rate average = 0.00935937
	minimum = 0.004 (at node 13)
	maximum = 0.015 (at node 48)
Accepted flit rate average= 0.0093125
	minimum = 0.004 (at node 41)
	maximum = 0.017 (at node 6)
Injected packet length average = 1
Accepted packet length average = 1
Total in-flight flits = 26 (26 measured)
latency change    = 0.00218917
throughput change = 0.100671
Class 0:
Packet latency average = 34.0341
	minimum = 7
	maximum = 78
Network latency average = 34.0341
	minimum = 7
	maximum = 78
Slowest packet = 421154
Flit latency average = 34.3431
	minimum = 7
	maximum = 78
Slowest flit = 421154
Fragmentation average = 0
	minimum = 0
	maximum = 0
Injected packet rate average = 0.00953125
	minimum = 0.0045 (at node 31)
	maximum = 0.0145 (at node 48)
Accepted packet rate average = 0.0095625
	minimum = 0.005 (at node 59)
	maximum = 0.0155 (at node 6)
Injected flit rate average = 0.00953125
	minimum = 0.0045 (at node 31)
	maximum = 0.0145 (at node 48)
Accepted flit rate average= 0.0095625
	minimum = 0.005 (at node 59)
	maximum = 0.0155 (at node 6)
Injected packet length average = 1
Accepted packet length average = 1
Total in-flight flits = 19 (19 measured)
latency change    = 0.0218219
throughput change = 0.0261438
Class 0:
Packet latency average = 33.5595
	minimum = 7
	maximum = 78
Network latency average = 33.5595
	minimum = 7
	maximum = 78
Slowest packet = 421154
Flit latency average = 33.7645
	minimum = 7
	maximum = 78
Slowest flit = 421154
Fragmentation average = 0
	minimum = 0
	maximum = 0
Injected packet rate average = 0.00988021
	minimum = 0.00566667 (at node 14)
	maximum = 0.0133333 (at node 49)
Accepted packet rate average = 0.00988542
	minimum = 0.00666667 (at node 49)
	maximum = 0.0136667 (at node 6)
Injected flit rate average = 0.00988021
	minimum = 0.00566667 (at node 14)
	maximum = 0.0133333 (at node 49)
Accepted flit rate average= 0.00988542
	minimum = 0.00666667 (at node 49)
	maximum = 0.0136667 (at node 6)
Injected packet length average = 1
Accepted packet length average = 1
Total in-flight flits = 22 (22 measured)
latency change    = 0.0141442
throughput change = 0.032666
Class 0:
Packet latency average = 33.2639
	minimum = 7
	maximum = 78
Network latency average = 33.2639
	minimum = 7
	maximum = 78
Slowest packet = 421154
Flit latency average = 33.4217
	minimum = 7
	maximum = 78
Slowest flit = 421154
Fragmentation average = 0
	minimum = 0
	maximum = 0
Injected packet rate average = 0.00980469
	minimum = 0.00625 (at node 14)
	maximum = 0.0125 (at node 62)
Accepted packet rate average = 0.00980078
	minimum = 0.007 (at node 63)
	maximum = 0.013 (at node 6)
Injected flit rate average = 0.00980469
	minimum = 0.00625 (at node 14)
	maximum = 0.0125 (at node 62)
Accepted flit rate average= 0.00980078
	minimum = 0.007 (at node 63)
	maximum = 0.013 (at node 6)
Injected packet length average = 1
Accepted packet length average = 1
Total in-flight flits = 24 (24 measured)
latency change    = 0.00888618
throughput change = 0.00863558
Draining all recorded packets ...
Draining remaining packets ...
Time taken is 7114 cycles
====== Overall Traffic Statistics ======
====== Traffic class 0 ======
Packet latency average = 33.244 (100 samples)
	minimum = 7 (100 samples)
	maximum = 78.62 (100 samples)
Network latency average = 33.244 (100 samples)
	minimum = 7 (100 samples)
	maximum = 78.62 (100 samples)
Flit latency average = 33.342 (100 samples)
	minimum = 7 (100 samples)
	maximum = 78.64 (100 samples)
Fragmentation average = 0 (100 samples)
	minimum = 0 (100 samples)
	maximum = 0 (100 samples)
Injected packet rate average = 0.00997996 (100 samples)
	minimum = 0.00631933 (100 samples)
	maximum = 0.0141588 (100 samples)
Accepted packet rate average = 0.0099792 (100 samples)
	minimum = 0.00633067 (100 samples)
	maximum = 0.0141503 (100 samples)
Injected flit rate average = 0.00997996 (100 samples)
	minimum = 0.00631933 (100 samples)
	maximum = 0.0141588 (100 samples)
Accepted flit rate average = 0.0099792 (100 samples)
	minimum = 0.00633067 (100 samples)
	maximum = 0.0141503 (100 samples)
Injected packet size average = 1 (100 samples)
Accepted packet size average = 1 (100 samples)
Hops average = 6.24427 (100 samples)
Total run time 23.504
