BEGIN Configuration File: /tmp/bs_1137237_12293.cfg
topology = mesh;
k = 4;
n = 2;
routing_function = gnn_ppo_route_4x4;
num_vcs = 4;
vc_buf_size = 4;
wait_for_tail_credit = 1;
vc_allocator = islip;
sw_allocator = islip;
alloc_iters = 1;
credit_delay = 2;
routing_delay = 1;
vc_alloc_delay = 1;
sw_alloc_delay = 1;
input_speedup = 2;
output_speedup = 1;
internal_speedup = 1.0;
traffic = hotspot;
packet_size = 1;
sim_type = latency;
injection_rate = 0.02;
warmup_periods = 3;
sample_period = 1000;
sim_count = 100;
seed = 0;

END Configuration File: /tmp/bs_1137237_12293.cfg
Class 0:
Packet latency average = 20.8182
	minimum = 7
	maximum = 43
Network latency average = 20.8182
	minimum = 7
	maximum = 43
Slowest packet = 147
Flit latency average = 20.8182
	minimum = 7
	maximum = 43
Slowest flit = 147
Fragmentation average = 0
	minimum = 0
	maximum = 0
Injected packet rate average = 0.0203125
	minimum = 0.015 (at node 2)
	maximum = 0.029 (at node 12)
Accepted packet rate average = 0.0199375
	minimum = 0 (at node 0)
	maximum = 0.319 (at node 11)
Injected flit rate average = 0.0203125
	minimum = 0.015 (at node 2)
	maximum = 0.029 (at node 12)
Accepted flit rate average= 0.0199375
	minimum = 0 (at node 0)
	maximum = 0.319 (at node 11)
Injected packet length average = 1
Accepted packet length average = 1
Total in-flight flits = 6 (0 measured)
latency change    = 1
throughput change = 1
Class 0:
Packet latency average = 20.9069
	minimum = 7
	maximum = 48
Network latency average = 20.9069
	minimum = 7
	maximum = 48
Slowest packet = 478
Flit latency average = 20.9069
	minimum = 7
	maximum = 48
Slowest flit = 478
Fragmentation average = 0
	minimum = 0
	maximum = 0
Injected packet rate average = 0.0195938
	minimum = 0.015 (at node 5)
	maximum = 0.0255 (at node 3)
Accepted packet rate average = 0.0194687
	minimum = 0 (at node 0)
	maximum = 0.3115 (at node 11)
Injected flit rate average = 0.0195938
	minimum = 0.015 (at node 5)
	maximum = 0.0255 (at node 3)
Accepted flit rate average= 0.0194687
	minimum = 0 (at node 0)
	maximum = 0.3115 (at node 11)
Injected packet length average = 1
Accepted packet length average = 1
Total in-flight flits = 4 (0 measured)
latency change    = 0.00424359
throughput change = 0.024077
Class 0:
Packet latency average = 20.9496
	minimum = 7
	maximum = 45
Network latency average = 20.9496
	minimum = 7
	maximum = 45
Slowest packet = 841
Flit latency average = 20.9496
	minimum = 7
	maximum = 45
Slowest flit = 841
Fragmentation average = 0
	minimum = 0
	maximum = 0
Injected packet rate average = 0.0225
	minimum = 0.016 (at node 0)
	maximum = 0.031 (at node 11)
Accepted packet rate average = 0.0223125
	minimum = 0 (at node 0)
	maximum = 0.357 (at node 11)
Injected flit rate average = 0.0225
	minimum = 0.016 (at node 0)
	maximum = 0.031 (at node 11)
Accepted flit rate average= 0.0223125
	minimum = 0 (at node 0)
	maximum = 0.357 (at node 11)
Injected packet length average = 1
Accepted packet length average = 1
Total in-flight flits = 7 (0 measured)
latency change    = 0.00203716
throughput change = 0.127451
Warmed up ...Time used is 3000 cycles
Class 0:
Packet latency average = 20.6167
	minimum = 7
	maximum = 46
Network latency average = 20.6167
	minimum = 7
	maximum = 46
Slowest packet = 1083
Flit latency average = 20.658
	minimum = 7
	maximum = 46
Slowest flit = 1083
Fragmentation average = 0
	minimum = 0
	maximum = 0
Injected packet rate average = 0.019375
	minimum = 0.011 (at node 1)
	maximum = 0.029 (at node 10)
Accepted packet rate average = 0.0191875
	minimum = 0 (at node 0)
	maximum = 0.307 (at node 11)
Injected flit rate average = 0.019375
	minimum = 0.011 (at node 1)
	maximum = 0.029 (at node 10)
Accepted flit rate average= 0.0191875
	minimum = 0 (at node 0)
	maximum = 0.307 (at node 11)
Injected packet length average = 1
Accepted packet length average = 1
Total in-flight flits = 10 (10 measured)
latency change    = 0.0161478
throughput change = 0.162866
Class 0:
Packet latency average = 20.5509
	minimum = 7
	maximum = 46
Network latency average = 20.5509
	minimum = 7
	maximum = 46
Slowest packet = 1083
Flit latency average = 20.5719
	minimum = 7
	maximum = 46
Slowest flit = 1083
Fragmentation average = 0
	minimum = 0
	maximum = 0
Injected packet rate average = 0.0194062
	minimum = 0.014 (at node 14)
	maximum = 0.026 (at node 10)
Accepted packet rate average = 0.0195625
	minimum = 0 (at node 0)
	maximum = 0.313 (at node 11)
Injected flit rate average = 0.0194062
	minimum = 0.014 (at node 14)
	maximum = 0.026 (at node 10)
Accepted flit rate average= 0.0195625
	minimum = 0 (at node 0)
	maximum = 0.313 (at node 11)
Injected packet length average = 1
Accepted packet length average = 1
Total in-flight flits = 2 (2 measured)
latency change    = 0.00320074
throughput change = 0.0191693
Class 0:
Packet latency average = 20.4768
	minimum = 7
	maximum = 46
Network latency average = 20.4768
	minimum = 7
	maximum = 46
Slowest packet = 1083
Flit latency average = 20.4914
	minimum = 7
	maximum = 46
Slowest flit = 1083
Fragmentation average = 0
	minimum = 0
	maximum = 0
Injected packet rate average = 0.0194375
	minimum = 0.0143333 (at node 14)
	maximum = 0.0263333 (at node 15)
Accepted packet rate average = 0.0194167
	minimum = 0 (at node 0)
	maximum = 0.310667 (at node 11)
Injected flit rate average = 0.0194375
	minimum = 0.0143333 (at node 14)
	maximum = 0.0263333 (at node 15)
Accepted flit rate average= 0.0194167
	minimum = 0 (at node 0)
	maximum = 0.310667 (at node 11)
Injected packet length average = 1
Accepted packet length average = 1
Total in-flight flits = 8 (8 measured)
latency change    = 0.00362029
throughput change = 0.00751073
Class 0:
Packet latency average = 20.5012
	minimum = 7
	maximum = 47
Network latency average = 20.5012
	minimum = 7
	maximum = 47
Slowest packet = 2101
Flit latency average = 20.512
	minimum = 7
	maximum = 47
Slowest flit = 2101
Fragmentation average = 0
	minimum = 0
	maximum = 0
Injected packet rate average = 0.0195312
	minimum = 0.0155 (at node 14)
	maximum = 0.0245 (at node 15)
Accepted packet rate average = 0.0195625
	minimum = 0 (at node 0)
	maximum = 0.313 (at node 11)
Injected flit rate average = 0.0195312
	minimum = 0.0155 (at node 14)
	maximum = 0.0245 (at node 15)
Accepted flit rate average= 0.0195625
	minimum = 0 (at node 0)
	maximum = 0.313 (at node 11)
Injected packet length average = 1
Accepted packet length average = 1
Total in-flight flits = 5 (5 measured)
latency change    = 0.00119252
throughput change = 0.00745474
Draining all recorded packets ...
Draining remaining packets ...
Time taken is 7048 cycles
Class 0:
Packet latency average = 19.8415
	minimum = 7
	maximum = 36
Network latency average = 19.8415
	minimum = 7
	maximum = 36
Slowest packet = 2369
Flit latency average = 19.8415
	minimum = 7
	maximum = 36
Slowest flit = 2369
Fragmentation average = 0
	minimum = 0
	maximum = 0
Injected packet rate average = 0.021
	minimum = 0.015 (at node 9)
	maximum = 0.03 (at node 1)
Accepted packet rate average = 0.0205
	minimum = 0 (at node 0)
	maximum = 0.328 (at node 11)
Injected flit rate average = 0.021
	minimum = 0.015 (at node 9)
	maximum = 0.03 (at node 1)
Accepted flit rate average= 0.0205
	minimum = 0 (at node 0)
	maximum = 0.328 (at node 11)
Injected packet length average = 1
Accepted packet length average = 1
Total in-flight flits = 8 (0 measured)
latency change    = 1
throughput change = 1
Class 0:
Packet latency average = 20.5015
	minimum = 7
	maximum = 48
Network latency average = 20.5015
	minimum = 7
	maximum = 48
Slowest packet = 2768
Flit latency average = 20.5015
	minimum = 7
	maximum = 48
Slowest flit = 2768
Fragmentation average = 0
	minimum = 0
	maximum = 0
Injected packet rate average = 0.0209375
	minimum = 0.0165 (at node 8)
	maximum = 0.03 (at node 1)
Accepted packet rate average = 0.0206875
	minimum = 0 (at node 0)
	maximum = 0.331 (at node 11)
Injected flit rate average = 0.0209375
	minimum = 0.0165 (at node 8)
	maximum = 0.03 (at node 1)
Accepted flit rate average= 0.0206875
	minimum = 0 (at node 0)
	maximum = 0.331 (at node 11)
Injected packet length average = 1
Accepted packet length average = 1
Total in-flight flits = 8 (0 measured)
latency change    = 0.0321951
throughput change = 0.00906344
Class 0:
Packet latency average = 20.3541
	minimum = 7
	maximum = 49
Network latency average = 20.3541
	minimum = 7
	maximum = 49
Slowest packet = 3001
Flit latency average = 20.3541
	minimum = 7
	maximum = 49
Slowest flit = 3001
Fragmentation average = 0
	minimum = 0
	maximum = 0
Injected packet rate average = 0.0189375
	minimum = 0.012 (at node 4)
	maximum = 0.028 (at node 10)
Accepted packet rate average = 0.0190625
	minimum = 0 (at node 0)
	maximum = 0.305 (at node 11)
Injected flit rate average = 0.0189375
	minimum = 0.012 (at node 4)
	maximum = 0.028 (at node 10)
Accepted flit rate average= 0.0190625
	minimum = 0 (at node 0)
	maximum = 0.305 (at node 11)
Injected packet length average = 1
Accepted packet length average = 1
Total in-flight flits = 6 (0 measured)
latency change    = 0.00724238
throughput change = 0.0852459
Warmed up ...Time used is 3000 cycles
Class 0:
Packet latency average = 20.5434
	minimum = 7
	maximum = 38
Network latency average = 20.5434
	minimum = 7
	maximum = 38
Slowest packet = 3281
Flit latency average = 20.5836
	minimum = 7
	maximum = 38
Slowest flit = 3281
Fragmentation average = 0
	minimum = 0
	maximum = 0
Injected packet rate average = 0.019625
	minimum = 0.012 (at node 2)
	maximum = 0.03 (at node 11)
Accepted packet rate average = 0.0198125
	minimum = 0 (at node 0)
	maximum = 0.317 (at node 11)
Injected flit rate average = 0.019625
	minimum = 0.012 (at node 2)
	maximum = 0.03 (at node 11)
Accepted flit rate average= 0.0198125
	minimum = 0 (at node 0)
	maximum = 0.317 (at node 11)
Injected packet length average = 1
Accepted packet length average = 1
Total in-flight flits = 3 (3 measured)
latency change    = 0.00921512
throughput change = 0.0378549
Class 0:
Packet latency average = 21.1606
	minimum = 7
	maximum = 69
Network latency average = 21.1606
	minimum = 7
	maximum = 69
Slowest packet = 3615
Flit latency average = 21.1747
	minimum = 7
	maximum = 69
Slowest flit = 3615
Fragmentation average = 0
	minimum = 0
	maximum = 0
Injected packet rate average = 0.02025
	minimum = 0.015 (at node 14)
	maximum = 0.0285 (at node 12)
Accepted packet rate average = 0.0200313
	minimum = 0 (at node 0)
	maximum = 0.3205 (at node 11)
Injected flit rate average = 0.02025
	minimum = 0.015 (at node 14)
	maximum = 0.0285 (at node 12)
Accepted flit rate average= 0.0200313
	minimum = 0 (at node 0)
	maximum = 0.3205 (at node 11)
Injected packet length average = 1
Accepted packet length average = 1
Total in-flight flits = 13 (13 measured)
latency change    = 0.0291684
throughput change = 0.0109204
Class 0:
Packet latency average = 21.2133
	minimum = 7
	maximum = 69
Network latency average = 21.2133
	minimum = 7
	maximum = 69
Slowest packet = 3615
Flit latency average = 21.2222
	minimum = 7
	maximum = 69
Slowest flit = 3615
Fragmentation average = 0
	minimum = 0
	maximum = 0
Injected packet rate average = 0.0203333
	minimum = 0.0146667 (at node 14)
	maximum = 0.0253333 (at node 11)
Accepted packet rate average = 0.02025
	minimum = 0 (at node 0)
	maximum = 0.324 (at node 11)
Injected flit rate average = 0.0203333
	minimum = 0.0146667 (at node 14)
	maximum = 0.0253333 (at node 11)
Accepted flit rate average= 0.02025
	minimum = 0 (at node 0)
	maximum = 0.324 (at node 11)
Injected packet length average = 1
Accepted packet length average = 1
Total in-flight flits = 10 (10 measured)
latency change    = 0.00248055
throughput change = 0.0108025
Draining all recorded packets ...
Draining remaining packets ...
Time taken is 6047 cycles
Class 0:
Packet latency average = 21.1879
	minimum = 7
	maximum = 48
Network latency average = 21.1879
	minimum = 7
	maximum = 48
Slowest packet = 4373
Flit latency average = 21.1879
	minimum = 7
	maximum = 48
Slowest flit = 4373
Fragmentation average = 0
	minimum = 0
	maximum = 0
Injected packet rate average = 0.021
	minimum = 0.013 (at node 4)
	maximum = 0.029 (at node 6)
Accepted packet rate average = 0.020625
	minimum = 0 (at node 0)
	maximum = 0.33 (at node 11)
Injected flit rate average = 0.021
	minimum = 0.013 (at node 4)
	maximum = 0.029 (at node 6)
Accepted flit rate average= 0.020625
	minimum = 0 (at node 0)
	maximum = 0.33 (at node 11)
Injected packet length average = 1
Accepted packet length average = 1
Total in-flight flits = 6 (0 measured)
latency change    = 1
throughput change = 1
Class 0:
Packet latency average = 20.7551
	minimum = 7
	maximum = 48
Network latency average = 20.7551
	minimum = 7
	maximum = 48
Slowest packet = 4373
Flit latency average = 20.7551
	minimum = 7
	maximum = 48
Slowest flit = 4373
Fragmentation average = 0
	minimum = 0
	maximum = 0
Injected packet rate average = 0.0201875
	minimum = 0.0155 (at node 8)
	maximum = 0.026 (at node 9)
Accepted packet rate average = 0.0200313
	minimum = 0 (at node 0)
	maximum = 0.3205 (at node 11)
Injected flit rate average = 0.0201875
	minimum = 0.0155 (at node 8)
	maximum = 0.026 (at node 9)
Accepted flit rate average= 0.0200313
	minimum = 0 (at node 0)
	maximum = 0.3205 (at node 11)
Injected packet length average = 1
Accepted packet length average = 1
Total in-flight flits = 5 (0 measured)
latency change    = 0.0208531
throughput change = 0.0296412
Class 0:
Packet latency average = 19.5538
	minimum = 7
	maximum = 37
Network latency average = 19.5538
	minimum = 7
	maximum = 37
Slowest packet = 4996
Flit latency average = 19.5538
	minimum = 7
	maximum = 37
Slowest flit = 4996
Fragmentation average = 0
	minimum = 0
	maximum = 0
Injected packet rate average = 0.0199375
	minimum = 0.011 (at node 0)
	maximum = 0.029 (at node 15)
Accepted packet rate average = 0.01975
	minimum = 0 (at node 0)
	maximum = 0.316 (at node 11)
Injected flit rate average = 0.0199375
	minimum = 0.011 (at node 0)
	maximum = 0.029 (at node 15)
Accepted flit rate average= 0.01975
	minimum = 0 (at node 0)
	maximum = 0.316 (at node 11)
Injected packet length average = 1
Accepted packet length average = 1
Total in-flight flits = 8 (0 measured)
latency change    = 0.0614342
throughput change = 0.0142405
Warmed up ...Time used is 3000 cycles
Class 0:
Packet latency average = 20.7606
	minimum = 7
	maximum = 39
Network latency average = 20.7606
	minimum = 7
	maximum = 39
Slowest packet = 5237
Flit latency average = 20.8322
	minimum = 7
	maximum = 39
Slowest flit = 5237
Fragmentation average = 0
	minimum = 0
	maximum = 0
Injected packet rate average = 0.018625
	minimum = 0.014 (at node 2)
	maximum = 0.024 (at node 5)
Accepted packet rate average = 0.01825
	minimum = 0 (at node 0)
	maximum = 0.292 (at node 11)
Injected flit rate average = 0.018625
	minimum = 0.014 (at node 2)
	maximum = 0.024 (at node 5)
Accepted flit rate average= 0.01825
	minimum = 0 (at node 0)
	maximum = 0.292 (at node 11)
Injected packet length average = 1
Accepted packet length average = 1
Total in-flight flits = 14 (14 measured)
latency change    = 0.0581278
throughput change = 0.0821918
Class 0:
Packet latency average = 20.3574
	minimum = 7
	maximum = 46
Network latency average = 20.3574
	minimum = 7
	maximum = 46
Slowest packet = 5465
Flit latency average = 20.3993
	minimum = 7
	maximum = 46
Slowest flit = 5465
Fragmentation average = 0
	minimum = 0
	maximum = 0
Injected packet rate average = 0.0179375
	minimum = 0.014 (at node 2)
	maximum = 0.0225 (at node 11)
Accepted packet rate average = 0.018
	minimum = 0 (at node 0)
	maximum = 0.288 (at node 11)
Injected flit rate average = 0.0179375
	minimum = 0.014 (at node 2)
	maximum = 0.0225 (at node 11)
Accepted flit rate average= 0.018
	minimum = 0 (at node 0)
	maximum = 0.288 (at node 11)
Injected packet length average = 1
Accepted packet length average = 1
Total in-flight flits = 6 (6 measured)
latency change    = 0.0198045
throughput change = 0.0138889
Class 0:
Packet latency average = 20.6283
	minimum = 7
	maximum = 46
Network latency average = 20.6283
	minimum = 7
	maximum = 46
Slowest packet = 5465
Flit latency average = 20.6527
	minimum = 7
	maximum = 46
Slowest flit = 5465
Fragmentation average = 0
	minimum = 0
	maximum = 0
Injected packet rate average = 0.0187292
	minimum = 0.0143333 (at node 2)
	maximum = 0.0236667 (at node 11)
Accepted packet rate average = 0.0188333
	minimum = 0 (at node 0)
	maximum = 0.301333 (at node 11)
Injected flit rate average = 0.0187292
	minimum = 0.0143333 (at node 2)
	maximum = 0.0236667 (at node 11)
Accepted flit rate average= 0.0188333
	minimum = 0 (at node 0)
	maximum = 0.301333 (at node 11)
Injected packet length average = 1
Accepted packet length average = 1
Total in-flight flits = 3 (3 measured)
latency change    = 0.013135
throughput change = 0.0442478
Class 0:
Packet latency average = 20.5579
	minimum = 7
	maximum = 46
Network latency average = 20.5579
	minimum = 7
	maximum = 46
Slowest packet = 5465
Flit latency average = 20.5762
	minimum = 7
	maximum = 46
Slowest flit = 5465
Fragmentation average = 0
	minimum = 0
	maximum = 0
Injected packet rate average = 0.0192812
	minimum = 0.01525 (at node 15)
	maximum = 0.0245 (at node 11)
Accepted packet rate average = 0.0192812
	minimum = 0 (at node 0)
	maximum = 0.3085 (at node 11)
Injected flit rate average = 0.0192812
	minimum = 0.01525 (at node 15)
	maximum = 0.0245 (at node 11)
Accepted flit rate average= 0.0192812
	minimum = 0 (at node 0)
	maximum = 0.3085 (at node 11)
Injected packet length average = 1
Accepted packet length average = 1
Total in-flight flits = 8 (8 measured)
latency change    = 0.00342624
throughput change = 0.0232307
Draining all recorded packets ...
Draining remaining packets ...
Time taken is 7050 cycles
Class 0:
Packet latency average = 20.2147
	minimum = 7
	maximum = 39
Network latency average = 20.2147
	minimum = 7
	maximum = 39
Slowest packet = 6434
Flit latency average = 20.2147
	minimum = 7
	maximum = 39
Slowest flit = 6434
Fragmentation average = 0
	minimum = 0
	maximum = 0
Injected packet rate average = 0.01975
	minimum = 0.016 (at node 2)
	maximum = 0.023 (at node 3)
Accepted packet rate average = 0.0195
	minimum = 0 (at node 0)
	maximum = 0.312 (at node 11)
Injected flit rate average = 0.01975
	minimum = 0.016 (at node 2)
	maximum = 0.023 (at node 3)
Accepted flit rate average= 0.0195
	minimum = 0 (at node 0)
	maximum = 0.312 (at node 11)
Injected packet length average = 1
Accepted packet length average = 1
Total in-flight flits = 4 (0 measured)
latency change    = 1
throughput change = 1
Class 0:
Packet latency average = 20.6656
	minimum = 7
	maximum = 45
Network latency average = 20.6656
	minimum = 7
	maximum = 45
Slowest packet = 6939
Flit latency average = 20.6656
	minimum = 7
	maximum = 45
Slowest flit = 6939
Fragmentation average = 0
	minimum = 0
	maximum = 0
Injected packet rate average = 0.0204688
	minimum = 0.017 (at node 6)
	maximum = 0.024 (at node 9)
Accepted packet rate average = 0.0202813
	minimum = 0 (at node 0)
	maximum = 0.3245 (at node 11)
Injected flit rate average = 0.0204688
	minimum = 0.017 (at node 6)
	maximum = 0.024 (at node 9)
Accepted flit rate average= 0.0202813
	minimum = 0 (at node 0)
	maximum = 0.3245 (at node 11)
Injected packet length average = 1
Accepted packet length average = 1
Total in-flight flits = 6 (0 measured)
latency change    = 0.0218186
throughput change = 0.0385208
Class 0:
Packet latency average = 20.4815
	minimum = 7
	maximum = 38
Network latency average = 20.4815
	minimum = 7
	maximum = 38
Slowest packet = 7180
Flit latency average = 20.4815
	minimum = 7
	maximum = 38
Slowest flit = 7180
Fragmentation average = 0
	minimum = 0
	maximum = 0
Injected packet rate average = 0.01875
	minimum = 0.014 (at node 2)
	maximum = 0.025 (at node 0)
Accepted packet rate average = 0.0185625
	minimum = 0 (at node 0)
	maximum = 0.297 (at node 11)
Injected flit rate average = 0.01875
	minimum = 0.014 (at node 2)
	maximum = 0.025 (at node 0)
Accepted flit rate average= 0.0185625
	minimum = 0 (at node 0)
	maximum = 0.297 (at node 11)
Injected packet length average = 1
Accepted packet length average = 1
Total in-flight flits = 9 (0 measured)
latency change    = 0.00899144
throughput change = 0.0925926
Warmed up ...Time used is 3000 cycles
Class 0:
Packet latency average = 19.1214
	minimum = 7
	maximum = 51
Network latency average = 19.1214
	minimum = 7
	maximum = 51
Slowest packet = 7382
Flit latency average = 19.2699
	minimum = 7
	maximum = 51
Slowest flit = 7382
Fragmentation average = 0
	minimum = 0
	maximum = 0
Injected packet rate average = 0.0178125
	minimum = 0.011 (at node 0)
	maximum = 0.031 (at node 10)
Accepted packet rate average = 0.0180625
	minimum = 0 (at node 0)
	maximum = 0.289 (at node 11)
Injected flit rate average = 0.0178125
	minimum = 0.011 (at node 0)
	maximum = 0.031 (at node 10)
Accepted flit rate average= 0.0180625
	minimum = 0 (at node 0)
	maximum = 0.289 (at node 11)
Injected packet length average = 1
Accepted packet length average = 1
Total in-flight flits = 5 (5 measured)
latency change    = 0.0711272
throughput change = 0.0276817
Class 0:
Packet latency average = 19.8907
	minimum = 7
	maximum = 51
Network latency average = 19.8907
	minimum = 7
	maximum = 51
Slowest packet = 7382
Flit latency average = 19.9494
	minimum = 7
	maximum = 51
Slowest flit = 7382
Fragmentation average = 0
	minimum = 0
	maximum = 0
Injected packet rate average = 0.019125
	minimum = 0.0135 (at node 0)
	maximum = 0.0255 (at node 11)
Accepted packet rate average = 0.0191562
	minimum = 0 (at node 0)
	maximum = 0.3065 (at node 11)
Injected flit rate average = 0.019125
	minimum = 0.0135 (at node 0)
	maximum = 0.0255 (at node 11)
Accepted flit rate average= 0.0191562
	minimum = 0 (at node 0)
	maximum = 0.3065 (at node 11)
Injected packet length average = 1
Accepted packet length average = 1
Total in-flight flits = 8 (8 measured)
latency change    = 0.0386763
throughput change = 0.0570962
Class 0:
Packet latency average = 19.9583
	minimum = 7
	maximum = 51
Network latency average = 19.9583
	minimum = 7
	maximum = 51
Slowest packet = 7382
Flit latency average = 19.9967
	minimum = 7
	maximum = 51
Slowest flit = 7382
Fragmentation average = 0
	minimum = 0
	maximum = 0
Injected packet rate average = 0.019125
	minimum = 0.0143333 (at node 15)
	maximum = 0.0256667 (at node 11)
Accepted packet rate average = 0.0191875
	minimum = 0 (at node 0)
	maximum = 0.307 (at node 11)
Injected flit rate average = 0.019125
	minimum = 0.0143333 (at node 15)
	maximum = 0.0256667 (at node 11)
Accepted flit rate average= 0.0191875
	minimum = 0 (at node 0)
	maximum = 0.307 (at node 11)
Injected packet length average = 1
Accepted packet length average = 1
Total in-flight flits = 6 (6 measured)
latency change    = 0.0033873
throughput change = 0.00162866
Class 0:
Packet latency average = 19.9824
	minimum = 7
	maximum = 51
Network latency average = 19.9824
	minimum = 7
	maximum = 51
Slowest packet = 7382
Flit latency average = 20.0116
	minimum = 7
	maximum = 51
Slowest flit = 7382
Fragmentation average = 0
	minimum = 0
	maximum = 0
Injected packet rate average = 0.0187812
	minimum = 0.016 (at node 15)
	maximum = 0.02275 (at node 11)
Accepted packet rate average = 0.0187969
	minimum = 0 (at node 0)
	maximum = 0.30075 (at node 11)
Injected flit rate average = 0.0187812
	minimum = 0.016 (at node 15)
	maximum = 0.02275 (at node 11)
Accepted flit rate average= 0.0187969
	minimum = 0 (at node 0)
	maximum = 0.30075 (at node 11)
Injected packet length average = 1
Accepted packet length average = 1
Total in-flight flits = 8 (8 measured)
latency change    = 0.001205
throughput change = 0.0207814
Class 0:
Packet latency average = 20.2421
	minimum = 7
	maximum = 51
Network latency average = 20.2421
	minimum = 7
	maximum = 51
Slowest packet = 7382
Flit latency average = 20.2632
	minimum = 7
	maximum = 51
Slowest flit = 7382
Fragmentation average = 0
	minimum = 0
	maximum = 0
Injected packet rate average = 0.0193875
	minimum = 0.016 (at node 15)
	maximum = 0.0234 (at node 10)
Accepted packet rate average = 0.019425
	minimum = 0 (at node 0)
	maximum = 0.3108 (at node 11)
Injected flit rate average = 0.0193875
	minimum = 0.016 (at node 15)
	maximum = 0.0234 (at node 10)
Accepted flit rate average= 0.019425
	minimum = 0 (at node 0)
	maximum = 0.3108 (at node 11)
Injected packet length average = 1
Accepted packet length average = 1
Total in-flight flits = 6 (6 measured)
latency change    = 0.0128277
throughput change = 0.0323359
Draining all recorded packets ...
Draining remaining packets ...
Time taken is 8033 cycles
Class 0:
Packet latency average = 20.2469
	minimum = 7
	maximum = 41
Network latency average = 20.2469
	minimum = 7
	maximum = 41
Slowest packet = 9176
Flit latency average = 20.2469
	minimum = 7
	maximum = 41
Slowest flit = 9176
Fragmentation average = 0
	minimum = 0
	maximum = 0
Injected packet rate average = 0.0205625
	minimum = 0.011 (at node 2)
	maximum = 0.033 (at node 10)
Accepted packet rate average = 0.02025
	minimum = 0 (at node 0)
	maximum = 0.324 (at node 11)
Injected flit rate average = 0.0205625
	minimum = 0.011 (at node 2)
	maximum = 0.033 (at node 10)
Accepted flit rate average= 0.02025
	minimum = 0 (at node 0)
	maximum = 0.324 (at node 11)
Injected packet length average = 1
Accepted packet length average = 1
Total in-flight flits = 5 (0 measured)
latency change    = 1
throughput change = 1
Class 0:
Packet latency average = 20.4394
	minimum = 7
	maximum = 41
Network latency average = 20.4394
	minimum = 7
	maximum = 41
Slowest packet = 9176
Flit latency average = 20.4394
	minimum = 7
	maximum = 41
Slowest flit = 9176
Fragmentation average = 0
	minimum = 0
	maximum = 0
Injected packet rate average = 0.02
	minimum = 0.015 (at node 2)
	maximum = 0.026 (at node 10)
Accepted packet rate average = 0.0198438
	minimum = 0 (at node 0)
	maximum = 0.3175 (at node 11)
Injected flit rate average = 0.02
	minimum = 0.015 (at node 2)
	maximum = 0.026 (at node 10)
Accepted flit rate average= 0.0198438
	minimum = 0 (at node 0)
	maximum = 0.3175 (at node 11)
Injected packet length average = 1
Accepted packet length average = 1
Total in-flight flits = 5 (0 measured)
latency change    = 0.00941597
throughput change = 0.0204724
Class 0:
Packet latency average = 21.5265
	minimum = 7
	maximum = 49
Network latency average = 21.5265
	minimum = 7
	maximum = 49
Slowest packet = 9826
Flit latency average = 21.5265
	minimum = 7
	maximum = 49
Slowest flit = 9826
Fragmentation average = 0
	minimum = 0
	maximum = 0
Injected packet rate average = 0.02025
	minimum = 0.008 (at node 9)
	maximum = 0.031 (at node 0)
Accepted packet rate average = 0.0200625
	minimum = 0 (at node 0)
	maximum = 0.321 (at node 11)
Injected flit rate average = 0.02025
	minimum = 0.008 (at node 9)
	maximum = 0.031 (at node 0)
Accepted flit rate average= 0.0200625
	minimum = 0 (at node 0)
	maximum = 0.321 (at node 11)
Injected packet length average = 1
Accepted packet length average = 1
Total in-flight flits = 8 (0 measured)
latency change    = 0.050501
throughput change = 0.0109034
Warmed up ...Time used is 3000 cycles
Class 0:
Packet latency average = 20.5863
	minimum = 7
	maximum = 40
Network latency average = 20.5863
	minimum = 7
	maximum = 40
Slowest packet = 9981
Flit latency average = 20.6919
	minimum = 7
	maximum = 40
Slowest flit = 9981
Fragmentation average = 0
	minimum = 0
	maximum = 0
Injected packet rate average = 0.0215625
	minimum = 0.015 (at node 11)
	maximum = 0.028 (at node 10)
Accepted packet rate average = 0.0215
	minimum = 0 (at node 0)
	maximum = 0.344 (at node 11)
Injected flit rate average = 0.0215625
	minimum = 0.015 (at node 11)
	maximum = 0.028 (at node 10)
Accepted flit rate average= 0.0215
	minimum = 0 (at node 0)
	maximum = 0.344 (at node 11)
Injected packet length average = 1
Accepted packet length average = 1
Total in-flight flits = 9 (9 measured)
latency change    = 0.0456697
throughput change = 0.0668605
Class 0:
Packet latency average = 20.489
	minimum = 7
	maximum = 40
Network latency average = 20.489
	minimum = 7
	maximum = 40
Slowest packet = 9981
Flit latency average = 20.5466
	minimum = 7
	maximum = 40
Slowest flit = 9981
Fragmentation average = 0
	minimum = 0
	maximum = 0
Injected packet rate average = 0.0201563
	minimum = 0.0175 (at node 4)
	maximum = 0.024 (at node 10)
Accepted packet rate average = 0.020125
	minimum = 0 (at node 0)
	maximum = 0.322 (at node 11)
Injected flit rate average = 0.0201563
	minimum = 0.0175 (at node 4)
	maximum = 0.024 (at node 10)
Accepted flit rate average= 0.020125
	minimum = 0 (at node 0)
	maximum = 0.322 (at node 11)
Injected packet length average = 1
Accepted packet length average = 1
Total in-flight flits = 9 (9 measured)
latency change    = 0.00474966
throughput change = 0.068323
Class 0:
Packet latency average = 20.3652
	minimum = 7
	maximum = 40
Network latency average = 20.3652
	minimum = 7
	maximum = 40
Slowest packet = 9981
Flit latency average = 20.4045
	minimum = 7
	maximum = 40
Slowest flit = 9981
Fragmentation average = 0
	minimum = 0
	maximum = 0
Injected packet rate average = 0.020125
	minimum = 0.016 (at node 4)
	maximum = 0.0233333 (at node 10)
Accepted packet rate average = 0.0201875
	minimum = 0 (at node 0)
	maximum = 0.323 (at node 11)
Injected flit rate average = 0.020125
	minimum = 0.016 (at node 4)
	maximum = 0.0233333 (at node 10)
Accepted flit rate average= 0.0201875
	minimum = 0 (at node 0)
	maximum = 0.323 (at node 11)
Injected packet length average = 1
Accepted packet length average = 1
Total in-flight flits = 5 (5 measured)
latency change    = 0.00607649
throughput change = 0.00309598
Class 0:
Packet latency average = 20.3283
	minimum = 7
	maximum = 40
Network latency average = 20.3283
	minimum = 7
	maximum = 40
Slowest packet = 9981
Flit latency average = 20.3584
	minimum = 7
	maximum = 40
Slowest flit = 9981
Fragmentation average = 0
	minimum = 0
	maximum = 0
Injected packet rate average = 0.0199531
	minimum = 0.0165 (at node 1)
	maximum = 0.0235 (at node 10)
Accepted packet rate average = 0.0199688
	minimum = 0 (at node 0)
	maximum = 0.3195 (at node 11)
Injected flit rate average = 0.0199531
	minimum = 0.0165 (at node 1)
	maximum = 0.0235 (at node 10)
Accepted flit rate average= 0.0199688
	minimum = 0 (at node 0)
	maximum = 0.3195 (at node 11)
Injected packet length average = 1
Accepted packet length average = 1
Total in-flight flits = 7 (7 measured)
latency change    = 0.0018151
throughput change = 0.0109546
Class 0:
Packet latency average = 20.2744
	minimum = 7
	maximum = 40
Network latency average = 20.2744
	minimum = 7
	maximum = 40
Slowest packet = 9981
Flit latency average = 20.2986
	minimum = 7
	maximum = 40
Slowest flit = 9981
Fragmentation average = 0
	minimum = 0
	maximum = 0
Injected packet rate average = 0.01995
	minimum = 0.016 (at node 0)
	maximum = 0.0234 (at node 10)
Accepted packet rate average = 0.02005
	minimum = 0 (at node 0)
	maximum = 0.3208 (at node 11)
Injected flit rate average = 0.01995
	minimum = 0.016 (at node 0)
	maximum = 0.0234 (at node 10)
Accepted flit rate average= 0.02005
	minimum = 0 (at node 0)
	maximum = 0.3208 (at node 11)
Injected packet length average = 1
Accepted packet length average = 1
Total in-flight flits = 0 (0 measured)
latency change    = 0.00265903
throughput change = 0.00405237
Draining all recorded packets ...
Draining remaining packets ...
Time taken is 8012 cycles
Class 0:
Packet latency average = 21.1471
	minimum = 7
	maximum = 38
Network latency average = 21.1471
	minimum = 7
	maximum = 38
Slowest packet = 11708
Flit latency average = 21.1471
	minimum = 7
	maximum = 38
Slowest flit = 11708
Fragmentation average = 0
	minimum = 0
	maximum = 0
Injected packet rate average = 0.0200625
	minimum = 0.013 (at node 5)
	maximum = 0.029 (at node 4)
Accepted packet rate average = 0.019125
	minimum = 0 (at node 0)
	maximum = 0.306 (at node 11)
Injected flit rate average = 0.0200625
	minimum = 0.013 (at node 5)
	maximum = 0.029 (at node 4)
Accepted flit rate average= 0.019125
	minimum = 0 (at node 0)
	maximum = 0.306 (at node 11)
Injected packet length average = 1
Accepted packet length average = 1
Total in-flight flits = 15 (0 measured)
latency change    = 1
throughput change = 1
Class 0:
Packet latency average = 21.9196
	minimum = 7
	maximum = 51
Network latency average = 21.9196
	minimum = 7
	maximum = 51
Slowest packet = 12093
Flit latency average = 21.9196
	minimum = 7
	maximum = 51
Slowest flit = 12093
Fragmentation average = 0
	minimum = 0
	maximum = 0
Injected packet rate average = 0.0211875
	minimum = 0.0155 (at node 6)
	maximum = 0.026 (at node 1)
Accepted packet rate average = 0.021
	minimum = 0 (at node 0)
	maximum = 0.336 (at node 11)
Injected flit rate average = 0.0211875
	minimum = 0.0155 (at node 6)
	maximum = 0.026 (at node 1)
Accepted flit rate average= 0.021
	minimum = 0 (at node 0)
	maximum = 0.336 (at node 11)
Injected packet length average = 1
Accepted packet length average = 1
Total in-flight flits = 6 (0 measured)
latency change    = 0.0352462
throughput change = 0.0892857
Class 0:
Packet latency average = 20.2994
	minimum = 7
	maximum = 37
Network latency average = 20.2994
	minimum = 7
	maximum = 37
Slowest packet = 12374
Flit latency average = 20.2994
	minimum = 7
	maximum = 37
Slowest flit = 12374
Fragmentation average = 0
	minimum = 0
	maximum = 0
Injected packet rate average = 0.0209375
	minimum = 0.012 (at node 1)
	maximum = 0.028 (at node 9)
Accepted packet rate average = 0.020875
	minimum = 0 (at node 0)
	maximum = 0.334 (at node 11)
Injected flit rate average = 0.0209375
	minimum = 0.012 (at node 1)
	maximum = 0.028 (at node 9)
Accepted flit rate average= 0.020875
	minimum = 0 (at node 0)
	maximum = 0.334 (at node 11)
Injected packet length average = 1
Accepted packet length average = 1
Total in-flight flits = 7 (0 measured)
latency change    = 0.0798172
throughput change = 0.00598802
Warmed up ...Time used is 3000 cycles
Class 0:
Packet latency average = 19.8092
	minimum = 7
	maximum = 37
Network latency average = 19.8092
	minimum = 7
	maximum = 37
Slowest packet = 12680
Flit latency average = 19.7846
	minimum = 7
	maximum = 37
Slowest flit = 12680
Fragmentation average = 0
	minimum = 0
	maximum = 0
Injected packet rate average = 0.01925
	minimum = 0.012 (at node 5)
	maximum = 0.027 (at node 11)
Accepted packet rate average = 0.0194375
	minimum = 0 (at node 0)
	maximum = 0.311 (at node 11)
Injected flit rate average = 0.01925
	minimum = 0.012 (at node 5)
	maximum = 0.027 (at node 11)
Accepted flit rate average= 0.0194375
	minimum = 0 (at node 0)
	maximum = 0.311 (at node 11)
Injected packet length average = 1
Accepted packet length average = 1
Total in-flight flits = 4 (4 measured)
latency change    = 0.0247456
throughput change = 0.073955
Class 0:
Packet latency average = 20.2946
	minimum = 7
	maximum = 42
Network latency average = 20.2946
	minimum = 7
	maximum = 42
Slowest packet = 12952
Flit latency average = 20.2772
	minimum = 7
	maximum = 42
Slowest flit = 12952
Fragmentation average = 0
	minimum = 0
	maximum = 0
Injected packet rate average = 0.0199375
	minimum = 0.014 (at node 5)
	maximum = 0.027 (at node 7)
Accepted packet rate average = 0.0198438
	minimum = 0 (at node 0)
	maximum = 0.3175 (at node 11)
Injected flit rate average = 0.0199375
	minimum = 0.014 (at node 5)
	maximum = 0.027 (at node 7)
Accepted flit rate average= 0.0198438
	minimum = 0 (at node 0)
	maximum = 0.3175 (at node 11)
Injected packet length average = 1
Accepted packet length average = 1
Total in-flight flits = 10 (10 measured)
latency change    = 0.0239165
throughput change = 0.0204724
Class 0:
Packet latency average = 20.5714
	minimum = 7
	maximum = 42
Network latency average = 20.5714
	minimum = 7
	maximum = 42
Slowest packet = 12952
Flit latency average = 20.5579
	minimum = 7
	maximum = 42
Slowest flit = 12952
Fragmentation average = 0
	minimum = 0
	maximum = 0
Injected packet rate average = 0.0199583
	minimum = 0.0153333 (at node 5)
	maximum = 0.0263333 (at node 7)
Accepted packet rate average = 0.0199792
	minimum = 0 (at node 0)
	maximum = 0.319667 (at node 11)
Injected flit rate average = 0.0199583
	minimum = 0.0153333 (at node 5)
	maximum = 0.0263333 (at node 7)
Accepted flit rate average= 0.0199792
	minimum = 0 (at node 0)
	maximum = 0.319667 (at node 11)
Injected packet length average = 1
Accepted packet length average = 1
Total in-flight flits = 6 (6 measured)
latency change    = 0.0134576
throughput change = 0.00677789
Class 0:
Packet latency average = 20.6242
	minimum = 7
	maximum = 47
Network latency average = 20.6242
	minimum = 7
	maximum = 47
Slowest packet = 13655
Flit latency average = 20.6138
	minimum = 7
	maximum = 47
Slowest flit = 13655
Fragmentation average = 0
	minimum = 0
	maximum = 0
Injected packet rate average = 0.0199531
	minimum = 0.01675 (at node 5)
	maximum = 0.026 (at node 7)
Accepted packet rate average = 0.0199844
	minimum = 0 (at node 0)
	maximum = 0.31975 (at node 11)
Injected flit rate average = 0.0199531
	minimum = 0.01675 (at node 5)
	maximum = 0.026 (at node 7)
Accepted flit rate average= 0.0199844
	minimum = 0 (at node 0)
	maximum = 0.31975 (at node 11)
Injected packet length average = 1
Accepted packet length average = 1
Total in-flight flits = 5 (5 measured)
latency change    = 0.00255938
throughput change = 0.00026062
Draining all recorded packets ...
Draining remaining packets ...
Time taken is 7032 cycles
Class 0:
Packet latency average = 20.7178
	minimum = 7
	maximum = 44
Network latency average = 20.7178
	minimum = 7
	maximum = 44
Slowest packet = 14022
Flit latency average = 20.7178
	minimum = 7
	maximum = 44
Slowest flit = 14022
Fragmentation average = 0
	minimum = 0
	maximum = 0
Injected packet rate average = 0.02075
	minimum = 0.014 (at node 7)
	maximum = 0.031 (at node 14)
Accepted packet rate average = 0.020375
	minimum = 0 (at node 0)
	maximum = 0.326 (at node 11)
Injected flit rate average = 0.02075
	minimum = 0.014 (at node 7)
	maximum = 0.031 (at node 14)
Accepted flit rate average= 0.020375
	minimum = 0 (at node 0)
	maximum = 0.326 (at node 11)
Injected packet length average = 1
Accepted packet length average = 1
Total in-flight flits = 6 (0 measured)
latency change    = 1
throughput change = 1
Class 0:
Packet latency average = 20.5805
	minimum = 7
	maximum = 44
Network latency average = 20.5805
	minimum = 7
	maximum = 44
Slowest packet = 14022
Flit latency average = 20.5805
	minimum = 7
	maximum = 44
Slowest flit = 14022
Fragmentation average = 0
	minimum = 0
	maximum = 0
Injected packet rate average = 0.0202813
	minimum = 0.015 (at node 12)
	maximum = 0.0245 (at node 14)
Accepted packet rate average = 0.0201875
	minimum = 0 (at node 0)
	maximum = 0.323 (at node 11)
Injected flit rate average = 0.0202813
	minimum = 0.015 (at node 12)
	maximum = 0.0245 (at node 14)
Accepted flit rate average= 0.0201875
	minimum = 0 (at node 0)
	maximum = 0.323 (at node 11)
Injected packet length average = 1
Accepted packet length average = 1
Total in-flight flits = 3 (0 measured)
latency change    = 0.00667117
throughput change = 0.00928793
Class 0:
Packet latency average = 20.447
	minimum = 7
	maximum = 43
Network latency average = 20.447
	minimum = 7
	maximum = 43
Slowest packet = 14495
Flit latency average = 20.447
	minimum = 7
	maximum = 43
Slowest flit = 14495
Fragmentation average = 0
	minimum = 0
	maximum = 0
Injected packet rate average = 0.022125
	minimum = 0.013 (at node 12)
	maximum = 0.03 (at node 3)
Accepted packet rate average = 0.0218125
	minimum = 0 (at node 0)
	maximum = 0.349 (at node 11)
Injected flit rate average = 0.022125
	minimum = 0.013 (at node 12)
	maximum = 0.03 (at node 3)
Accepted flit rate average= 0.0218125
	minimum = 0 (at node 0)
	maximum = 0.349 (at node 11)
Injected packet length average = 1
Accepted packet length average = 1
Total in-flight flits = 8 (0 measured)
latency change    = 0.00652927
throughput change = 0.0744986
Warmed up ...Time used is 3000 cycles
Class 0:
Packet latency average = 20.0388
	minimum = 7
	maximum = 37
Network latency average = 20.0388
	minimum = 7
	maximum = 37
Slowest packet = 14821
Flit latency average = 20.1703
	minimum = 7
	maximum = 37
Slowest flit = 14821
Fragmentation average = 0
	minimum = 0
	maximum = 0
Injected packet rate average = 0.019625
	minimum = 0.015 (at node 10)
	maximum = 0.025 (at node 7)
Accepted packet rate average = 0.0198125
	minimum = 0 (at node 0)
	maximum = 0.317 (at node 11)
Injected flit rate average = 0.019625
	minimum = 0.015 (at node 10)
	maximum = 0.025 (at node 7)
Accepted flit rate average= 0.0198125
	minimum = 0 (at node 0)
	maximum = 0.317 (at node 11)
Injected packet length average = 1
Accepted packet length average = 1
Total in-flight flits = 5 (5 measured)
latency change    = 0.0203683
throughput change = 0.100946
Class 0:
Packet latency average = 21.6652
	minimum = 7
	maximum = 66
Network latency average = 21.6652
	minimum = 7
	maximum = 66
Slowest packet = 15266
Flit latency average = 21.7079
	minimum = 7
	maximum = 66
Slowest flit = 15266
Fragmentation average = 0
	minimum = 0
	maximum = 0
Injected packet rate average = 0.0208125
	minimum = 0.016 (at node 2)
	maximum = 0.026 (at node 15)
Accepted packet rate average = 0.0209688
	minimum = 0 (at node 0)
	maximum = 0.3355 (at node 11)
Injected flit rate average = 0.0208125
	minimum = 0.016 (at node 2)
	maximum = 0.026 (at node 15)
Accepted flit rate average= 0.0209688
	minimum = 0 (at node 0)
	maximum = 0.3355 (at node 11)
Injected packet length average = 1
Accepted packet length average = 1
Total in-flight flits = 3 (3 measured)
latency change    = 0.0750663
throughput change = 0.0551416
Class 0:
Packet latency average = 21.1522
	minimum = 7
	maximum = 66
Network latency average = 21.1522
	minimum = 7
	maximum = 66
Slowest packet = 15266
Flit latency average = 21.1861
	minimum = 7
	maximum = 66
Slowest flit = 15266
Fragmentation average = 0
	minimum = 0
	maximum = 0
Injected packet rate average = 0.020125
	minimum = 0.016 (at node 2)
	maximum = 0.0246667 (at node 9)
Accepted packet rate average = 0.0201458
	minimum = 0 (at node 0)
	maximum = 0.322333 (at node 11)
Injected flit rate average = 0.020125
	minimum = 0.016 (at node 2)
	maximum = 0.0246667 (at node 9)
Accepted flit rate average= 0.0201458
	minimum = 0 (at node 0)
	maximum = 0.322333 (at node 11)
Injected packet length average = 1
Accepted packet length average = 1
Total in-flight flits = 7 (7 measured)
latency change    = 0.0242488
throughput change = 0.040848
Class 0:
Packet latency average = 21.0769
	minimum = 7
	maximum = 66
Network latency average = 21.0769
	minimum = 7
	maximum = 66
Slowest packet = 15266
Flit latency average = 21.1024
	minimum = 7
	maximum = 66
Slowest flit = 15266
Fragmentation average = 0
	minimum = 0
	maximum = 0
Injected packet rate average = 0.0204375
	minimum = 0.01625 (at node 2)
	maximum = 0.0235 (at node 15)
Accepted packet rate average = 0.0204531
	minimum = 0 (at node 0)
	maximum = 0.32725 (at node 11)
Injected flit rate average = 0.0204375
	minimum = 0.01625 (at node 2)
	maximum = 0.0235 (at node 15)
Accepted flit rate average= 0.0204531
	minimum = 0 (at node 0)
	maximum = 0.32725 (at node 11)
Injected packet length average = 1
Accepted packet length average = 1
Total in-flight flits = 7 (7 measured)
latency change    = 0.00357634
throughput change = 0.0150242
Class 0:
Packet latency average = 21.1679
	minimum = 7
	maximum = 66
Network latency average = 21.1679
	minimum = 7
	maximum = 66
Slowest packet = 15266
Flit latency average = 21.188
	minimum = 7
	maximum = 66
Slowest flit = 15266
Fragmentation average = 0
	minimum = 0
	maximum = 0
Injected packet rate average = 0.0202125
	minimum = 0.0162 (at node 2)
	maximum = 0.0236 (at node 4)
Accepted packet rate average = 0.020275
	minimum = 0 (at node 0)
	maximum = 0.3244 (at node 11)
Injected flit rate average = 0.0202125
	minimum = 0.0162 (at node 2)
	maximum = 0.0236 (at node 4)
Accepted flit rate average= 0.020275
	minimum = 0 (at node 0)
	maximum = 0.3244 (at node 11)
Injected packet length average = 1
Accepted packet length average = 1
Total in-flight flits = 3 (3 measured)
latency change    = 0.00430094
throughput change = 0.00878545
Draining all recorded packets ...
Draining remaining packets ...
Time taken is 8027 cycles
Class 0:
Packet latency average = 20.997
	minimum = 7
	maximum = 49
Network latency average = 20.997
	minimum = 7
	maximum = 49
Slowest packet = 16667
Flit latency average = 20.997
	minimum = 7
	maximum = 49
Slowest flit = 16667
Fragmentation average = 0
	minimum = 0
	maximum = 0
Injected packet rate average = 0.020875
	minimum = 0.016 (at node 14)
	maximum = 0.03 (at node 4)
Accepted packet rate average = 0.020625
	minimum = 0 (at node 0)
	maximum = 0.33 (at node 11)
Injected flit rate average = 0.020875
	minimum = 0.016 (at node 14)
	maximum = 0.03 (at node 4)
Accepted flit rate average= 0.020625
	minimum = 0 (at node 0)
	maximum = 0.33 (at node 11)
Injected packet length average = 1
Accepted packet length average = 1
Total in-flight flits = 4 (0 measured)
latency change    = 1
throughput change = 1
Class 0:
Packet latency average = 20.7236
	minimum = 7
	maximum = 49
Network latency average = 20.7236
	minimum = 7
	maximum = 49
Slowest packet = 16667
Flit latency average = 20.7236
	minimum = 7
	maximum = 49
Slowest flit = 16667
Fragmentation average = 0
	minimum = 0
	maximum = 0
Injected packet rate average = 0.0202813
	minimum = 0.017 (at node 1)
	maximum = 0.03 (at node 15)
Accepted packet rate average = 0.020125
	minimum = 0 (at node 0)
	maximum = 0.322 (at node 11)
Injected flit rate average = 0.0202813
	minimum = 0.017 (at node 1)
	maximum = 0.03 (at node 15)
Accepted flit rate average= 0.020125
	minimum = 0 (at node 0)
	maximum = 0.322 (at node 11)
Injected packet length average = 1
Accepted packet length average = 1
Total in-flight flits = 5 (0 measured)
latency change    = 0.0131911
throughput change = 0.0248447
Class 0:
Packet latency average = 20.694
	minimum = 7
	maximum = 46
Network latency average = 20.694
	minimum = 7
	maximum = 46
Slowest packet = 17160
Flit latency average = 20.694
	minimum = 7
	maximum = 46
Slowest flit = 17160
Fragmentation average = 0
	minimum = 0
	maximum = 0
Injected packet rate average = 0.0199375
	minimum = 0.009 (at node 10)
	maximum = 0.03 (at node 9)
Accepted packet rate average = 0.0198125
	minimum = 0 (at node 0)
	maximum = 0.317 (at node 11)
Injected flit rate average = 0.0199375
	minimum = 0.009 (at node 10)
	maximum = 0.03 (at node 9)
Accepted flit rate average= 0.0198125
	minimum = 0 (at node 0)
	maximum = 0.317 (at node 11)
Injected packet length average = 1
Accepted packet length average = 1
Total in-flight flits = 7 (0 measured)
latency change    = 0.00143018
throughput change = 0.0157729
Warmed up ...Time used is 3000 cycles
Class 0:
Packet latency average = 20.3173
	minimum = 7
	maximum = 35
Network latency average = 20.3173
	minimum = 7
	maximum = 35
Slowest packet = 17513
Flit latency average = 20.2602
	minimum = 7
	maximum = 35
Slowest flit = 17513
Fragmentation average = 0
	minimum = 0
	maximum = 0
Injected packet rate average = 0.01975
	minimum = 0.011 (at node 1)
	maximum = 0.028 (at node 3)
Accepted packet rate average = 0.0199375
	minimum = 0 (at node 0)
	maximum = 0.319 (at node 11)
Injected flit rate average = 0.01975
	minimum = 0.011 (at node 1)
	maximum = 0.028 (at node 3)
Accepted flit rate average= 0.0199375
	minimum = 0 (at node 0)
	maximum = 0.319 (at node 11)
Injected packet length average = 1
Accepted packet length average = 1
Total in-flight flits = 4 (4 measured)
latency change    = 0.0185408
throughput change = 0.00626959
Class 0:
Packet latency average = 20.2257
	minimum = 7
	maximum = 40
Network latency average = 20.2257
	minimum = 7
	maximum = 40
Slowest packet = 17759
Flit latency average = 20.1984
	minimum = 7
	maximum = 40
Slowest flit = 17759
Fragmentation average = 0
	minimum = 0
	maximum = 0
Injected packet rate average = 0.0200625
	minimum = 0.0135 (at node 1)
	maximum = 0.0245 (at node 13)
Accepted packet rate average = 0.0201563
	minimum = 0 (at node 0)
	maximum = 0.3225 (at node 11)
Injected flit rate average = 0.0200625
	minimum = 0.0135 (at node 1)
	maximum = 0.0245 (at node 13)
Accepted flit rate average= 0.0201563
	minimum = 0 (at node 0)
	maximum = 0.3225 (at node 11)
Injected packet length average = 1
Accepted packet length average = 1
Total in-flight flits = 4 (4 measured)
latency change    = 0.00452901
throughput change = 0.0108527
Class 0:
Packet latency average = 20.1543
	minimum = 7
	maximum = 43
Network latency average = 20.1543
	minimum = 7
	maximum = 43
Slowest packet = 18198
Flit latency average = 20.1362
	minimum = 7
	maximum = 43
Slowest flit = 18198
Fragmentation average = 0
	minimum = 0
	maximum = 0
Injected packet rate average = 0.019625
	minimum = 0.0143333 (at node 1)
	maximum = 0.0256667 (at node 13)
Accepted packet rate average = 0.0195833
	minimum = 0 (at node 0)
	maximum = 0.313333 (at node 11)
Injected flit rate average = 0.019625
	minimum = 0.0143333 (at node 1)
	maximum = 0.0256667 (at node 13)
Accepted flit rate average= 0.0195833
	minimum = 0 (at node 0)
	maximum = 0.313333 (at node 11)
Injected packet length average = 1
Accepted packet length average = 1
Total in-flight flits = 9 (9 measured)
latency change    = 0.0035409
throughput change = 0.0292553
Draining all recorded packets ...
Draining remaining packets ...
Time taken is 6057 cycles
Class 0:
Packet latency average = 19.6903
	minimum = 7
	maximum = 35
Network latency average = 19.6903
	minimum = 7
	maximum = 35
Slowest packet = 18508
Flit latency average = 19.6903
	minimum = 7
	maximum = 35
Slowest flit = 18508
Fragmentation average = 0
	minimum = 0
	maximum = 0
Injected packet rate average = 0.0199375
	minimum = 0.014 (at node 0)
	maximum = 0.025 (at node 14)
Accepted packet rate average = 0.019375
	minimum = 0 (at node 0)
	maximum = 0.31 (at node 11)
Injected flit rate average = 0.0199375
	minimum = 0.014 (at node 0)
	maximum = 0.025 (at node 14)
Accepted flit rate average= 0.019375
	minimum = 0 (at node 0)
	maximum = 0.31 (at node 11)
Injected packet length average = 1
Accepted packet length average = 1
Total in-flight flits = 9 (0 measured)
latency change    = 1
throughput change = 1
Class 0:
Packet latency average = 19.941
	minimum = 7
	maximum = 36
Network latency average = 19.941
	minimum = 7
	maximum = 36
Slowest packet = 18700
Flit latency average = 19.941
	minimum = 7
	maximum = 36
Slowest flit = 18700
Fragmentation average = 0
	minimum = 0
	maximum = 0
Injected packet rate average = 0.0193125
	minimum = 0.0125 (at node 0)
	maximum = 0.027 (at node 5)
Accepted packet rate average = 0.0190625
	minimum = 0 (at node 0)
	maximum = 0.305 (at node 11)
Injected flit rate average = 0.0193125
	minimum = 0.0125 (at node 0)
	maximum = 0.027 (at node 5)
Accepted flit rate average= 0.0190625
	minimum = 0 (at node 0)
	maximum = 0.305 (at node 11)
Injected packet length average = 1
Accepted packet length average = 1
Total in-flight flits = 8 (0 measured)
latency change    = 0.0125701
throughput change = 0.0163934
Class 0:
Packet latency average = 20.8135
	minimum = 7
	maximum = 40
Network latency average = 20.8135
	minimum = 7
	maximum = 40
Slowest packet = 19055
Flit latency average = 20.8135
	minimum = 7
	maximum = 40
Slowest flit = 19055
Fragmentation average = 0
	minimum = 0
	maximum = 0
Injected packet rate average = 0.0194375
	minimum = 0.009 (at node 8)
	maximum = 0.029 (at node 7)
Accepted packet rate average = 0.0194375
	minimum = 0 (at node 0)
	maximum = 0.311 (at node 11)
Injected flit rate average = 0.0194375
	minimum = 0.009 (at node 8)
	maximum = 0.029 (at node 7)
Accepted flit rate average= 0.0194375
	minimum = 0 (at node 0)
	maximum = 0.311 (at node 11)
Injected packet length average = 1
Accepted packet length average = 1
Total in-flight flits = 8 (0 measured)
latency change    = 0.0419209
throughput change = 0.0192926
Warmed up ...Time used is 3000 cycles
Class 0:
Packet latency average = 20.9514
	minimum = 7
	maximum = 44
Network latency average = 20.9514
	minimum = 7
	maximum = 44
Slowest packet = 19242
Flit latency average = 21.089
	minimum = 7
	maximum = 44
Slowest flit = 19242
Fragmentation average = 0
	minimum = 0
	maximum = 0
Injected packet rate average = 0.02075
	minimum = 0.014 (at node 4)
	maximum = 0.029 (at node 13)
Accepted packet rate average = 0.0210625
	minimum = 0 (at node 0)
	maximum = 0.337 (at node 11)
Injected flit rate average = 0.02075
	minimum = 0.014 (at node 4)
	maximum = 0.029 (at node 13)
Accepted flit rate average= 0.0210625
	minimum = 0 (at node 0)
	maximum = 0.337 (at node 11)
Injected packet length average = 1
Accepted packet length average = 1
Total in-flight flits = 3 (3 measured)
latency change    = 0.00658014
throughput change = 0.0771513
Class 0:
Packet latency average = 20.7382
	minimum = 7
	maximum = 44
Network latency average = 20.7382
	minimum = 7
	maximum = 44
Slowest packet = 19242
Flit latency average = 20.8127
	minimum = 7
	maximum = 44
Slowest flit = 19242
Fragmentation average = 0
	minimum = 0
	maximum = 0
Injected packet rate average = 0.0201875
	minimum = 0.0155 (at node 1)
	maximum = 0.0265 (at node 13)
Accepted packet rate average = 0.0201875
	minimum = 0 (at node 0)
	maximum = 0.323 (at node 11)
Injected flit rate average = 0.0201875
	minimum = 0.0155 (at node 1)
	maximum = 0.0265 (at node 13)
Accepted flit rate average= 0.0201875
	minimum = 0 (at node 0)
	maximum = 0.323 (at node 11)
Injected packet length average = 1
Accepted packet length average = 1
Total in-flight flits = 8 (8 measured)
latency change    = 0.0102768
throughput change = 0.0433437
Class 0:
Packet latency average = 20.8928
	minimum = 7
	maximum = 44
Network latency average = 20.8928
	minimum = 7
	maximum = 44
Slowest packet = 19242
Flit latency average = 20.9407
	minimum = 7
	maximum = 44
Slowest flit = 19242
Fragmentation average = 0
	minimum = 0
	maximum = 0
Injected packet rate average = 0.0202917
	minimum = 0.015 (at node 5)
	maximum = 0.0253333 (at node 12)
Accepted packet rate average = 0.020375
	minimum = 0 (at node 0)
	maximum = 0.326 (at node 11)
Injected flit rate average = 0.0202917
	minimum = 0.015 (at node 5)
	maximum = 0.0253333 (at node 12)
Accepted flit rate average= 0.020375
	minimum = 0 (at node 0)
	maximum = 0.326 (at node 11)
Injected packet length average = 1
Accepted packet length average = 1
Total in-flight flits = 4 (4 measured)
latency change    = 0.00739676
throughput change = 0.00920245
Class 0:
Packet latency average = 20.7123
	minimum = 7
	maximum = 44
Network latency average = 20.7123
	minimum = 7
	maximum = 44
Slowest packet = 19242
Flit latency average = 20.7492
	minimum = 7
	maximum = 44
Slowest flit = 19242
Fragmentation average = 0
	minimum = 0
	maximum = 0
Injected packet rate average = 0.0203438
	minimum = 0.0155 (at node 1)
	maximum = 0.02375 (at node 12)
Accepted packet rate average = 0.0204375
	minimum = 0 (at node 0)
	maximum = 0.327 (at node 11)
Injected flit rate average = 0.0203438
	minimum = 0.0155 (at node 1)
	maximum = 0.02375 (at node 12)
Accepted flit rate average= 0.0204375
	minimum = 0 (at node 0)
	maximum = 0.327 (at node 11)
Injected packet length average = 1
Accepted packet length average = 1
Total in-flight flits = 2 (2 measured)
latency change    = 0.00871346
throughput change = 0.0030581
Draining all recorded packets ...
Draining remaining packets ...
Time taken is 7037 cycles
Class 0:
Packet latency average = 19.9542
	minimum = 7
	maximum = 43
Network latency average = 19.9542
	minimum = 7
	maximum = 43
Slowest packet = 20627
Flit latency average = 19.9542
	minimum = 7
	maximum = 43
Slowest flit = 20627
Fragmentation average = 0
	minimum = 0
	maximum = 0
Injected packet rate average = 0.0169375
	minimum = 0.012 (at node 1)
	maximum = 0.022 (at node 5)
Accepted packet rate average = 0.016375
	minimum = 0 (at node 0)
	maximum = 0.262 (at node 11)
Injected flit rate average = 0.0169375
	minimum = 0.012 (at node 1)
	maximum = 0.022 (at node 5)
Accepted flit rate average= 0.016375
	minimum = 0 (at node 0)
	maximum = 0.262 (at node 11)
Injected packet length average = 1
Accepted packet length average = 1
Total in-flight flits = 9 (0 measured)
latency change    = 1
throughput change = 1
Class 0:
Packet latency average = 20.347
	minimum = 7
	maximum = 43
Network latency average = 20.347
	minimum = 7
	maximum = 43
Slowest packet = 20627
Flit latency average = 20.347
	minimum = 7
	maximum = 43
Slowest flit = 20627
Fragmentation average = 0
	minimum = 0
	maximum = 0
Injected packet rate average = 0.0184687
	minimum = 0.013 (at node 12)
	maximum = 0.023 (at node 4)
Accepted packet rate average = 0.0182812
	minimum = 0 (at node 0)
	maximum = 0.2925 (at node 11)
Injected flit rate average = 0.0184687
	minimum = 0.013 (at node 12)
	maximum = 0.023 (at node 4)
Accepted flit rate average= 0.0182812
	minimum = 0 (at node 0)
	maximum = 0.2925 (at node 11)
Injected packet length average = 1
Accepted packet length average = 1
Total in-flight flits = 6 (0 measured)
latency change    = 0.0193055
throughput change = 0.104274
Class 0:
Packet latency average = 20.038
	minimum = 7
	maximum = 45
Network latency average = 20.038
	minimum = 7
	maximum = 45
Slowest packet = 21341
Flit latency average = 20.038
	minimum = 7
	maximum = 45
Slowest flit = 21341
Fragmentation average = 0
	minimum = 0
	maximum = 0
Injected packet rate average = 0.01975
	minimum = 0.013 (at node 12)
	maximum = 0.026 (at node 15)
Accepted packet rate average = 0.01975
	minimum = 0 (at node 0)
	maximum = 0.316 (at node 11)
Injected flit rate average = 0.01975
	minimum = 0.013 (at node 12)
	maximum = 0.026 (at node 15)
Accepted flit rate average= 0.01975
	minimum = 0 (at node 0)
	maximum = 0.316 (at node 11)
Injected packet length average = 1
Accepted packet length average = 1
Total in-flight flits = 6 (0 measured)
latency change    = 0.0154224
throughput change = 0.0743671
Warmed up ...Time used is 3000 cycles
Class 0:
Packet latency average = 20.1879
	minimum = 7
	maximum = 42
Network latency average = 20.1879
	minimum = 7
	maximum = 42
Slowest packet = 21672
Flit latency average = 20.2472
	minimum = 7
	maximum = 42
Slowest flit = 21672
Fragmentation average = 0
	minimum = 0
	maximum = 0
Injected packet rate average = 0.0224375
	minimum = 0.015 (at node 0)
	maximum = 0.031 (at node 11)
Accepted packet rate average = 0.022
	minimum = 0 (at node 0)
	maximum = 0.352 (at node 11)
Injected flit rate average = 0.0224375
	minimum = 0.015 (at node 0)
	maximum = 0.031 (at node 11)
Accepted flit rate average= 0.022
	minimum = 0 (at node 0)
	maximum = 0.352 (at node 11)
Injected packet length average = 1
Accepted packet length average = 1
Total in-flight flits = 13 (13 measured)
latency change    = 0.00742459
throughput change = 0.102273
Class 0:
Packet latency average = 20.5037
	minimum = 7
	maximum = 42
Network latency average = 20.5037
	minimum = 7
	maximum = 42
Slowest packet = 21672
Flit latency average = 20.5314
	minimum = 7
	maximum = 42
Slowest flit = 21672
Fragmentation average = 0
	minimum = 0
	maximum = 0
Injected packet rate average = 0.0215
	minimum = 0.017 (at node 3)
	maximum = 0.027 (at node 11)
Accepted packet rate average = 0.0214063
	minimum = 0 (at node 0)
	maximum = 0.3425 (at node 11)
Injected flit rate average = 0.0215
	minimum = 0.017 (at node 3)
	maximum = 0.027 (at node 11)
Accepted flit rate average= 0.0214063
	minimum = 0 (at node 0)
	maximum = 0.3425 (at node 11)
Injected packet length average = 1
Accepted packet length average = 1
Total in-flight flits = 9 (9 measured)
latency change    = 0.0154031
throughput change = 0.0277372
Class 0:
Packet latency average = 20.6497
	minimum = 7
	maximum = 42
Network latency average = 20.6497
	minimum = 7
	maximum = 42
Slowest packet = 21672
Flit latency average = 20.6673
	minimum = 7
	maximum = 42
Slowest flit = 21672
Fragmentation average = 0
	minimum = 0
	maximum = 0
Injected packet rate average = 0.0214167
	minimum = 0.0173333 (at node 10)
	maximum = 0.026 (at node 8)
Accepted packet rate average = 0.0213542
	minimum = 0 (at node 0)
	maximum = 0.341667 (at node 11)
Injected flit rate average = 0.0214167
	minimum = 0.0173333 (at node 10)
	maximum = 0.026 (at node 8)
Accepted flit rate average= 0.0213542
	minimum = 0 (at node 0)
	maximum = 0.341667 (at node 11)
Injected packet length average = 1
Accepted packet length average = 1
Total in-flight flits = 9 (9 measured)
latency change    = 0.00706911
throughput change = 0.00243902
Class 0:
Packet latency average = 20.7403
	minimum = 7
	maximum = 42
Network latency average = 20.7403
	minimum = 7
	maximum = 42
Slowest packet = 21672
Flit latency average = 20.7531
	minimum = 7
	maximum = 42
Slowest flit = 21672
Fragmentation average = 0
	minimum = 0
	maximum = 0
Injected packet rate average = 0.0213594
	minimum = 0.01625 (at node 10)
	maximum = 0.02575 (at node 8)
Accepted packet rate average = 0.0213281
	minimum = 0 (at node 0)
	maximum = 0.34125 (at node 11)
Injected flit rate average = 0.0213594
	minimum = 0.01625 (at node 10)
	maximum = 0.02575 (at node 8)
Accepted flit rate average= 0.0213281
	minimum = 0 (at node 0)
	maximum = 0.34125 (at node 11)
Injected packet length average = 1
Accepted packet length average = 1
Total in-flight flits = 8 (8 measured)
latency change    = 0.00436801
throughput change = 0.001221
Draining all recorded packets ...
Draining remaining packets ...
Time taken is 7032 cycles
Class 0:
Packet latency average = 21.5066
	minimum = 7
	maximum = 44
Network latency average = 21.5066
	minimum = 7
	maximum = 44
Slowest packet = 22889
Flit latency average = 21.5066
	minimum = 7
	maximum = 44
Slowest flit = 22889
Fragmentation average = 0
	minimum = 0
	maximum = 0
Injected packet rate average = 0.0194375
	minimum = 0.011 (at node 3)
	maximum = 0.027 (at node 5)
Accepted packet rate average = 0.019
	minimum = 0 (at node 0)
	maximum = 0.304 (at node 11)
Injected flit rate average = 0.0194375
	minimum = 0.011 (at node 3)
	maximum = 0.027 (at node 5)
Accepted flit rate average= 0.019
	minimum = 0 (at node 0)
	maximum = 0.304 (at node 11)
Injected packet length average = 1
Accepted packet length average = 1
Total in-flight flits = 7 (0 measured)
latency change    = 1
throughput change = 1
Class 0:
Packet latency average = 20.8469
	minimum = 7
	maximum = 44
Network latency average = 20.8469
	minimum = 7
	maximum = 44
Slowest packet = 22889
Flit latency average = 20.8469
	minimum = 7
	maximum = 44
Slowest flit = 22889
Fragmentation average = 0
	minimum = 0
	maximum = 0
Injected packet rate average = 0.019
	minimum = 0.0145 (at node 11)
	maximum = 0.024 (at node 12)
Accepted packet rate average = 0.0187812
	minimum = 0 (at node 0)
	maximum = 0.3005 (at node 11)
Injected flit rate average = 0.019
	minimum = 0.0145 (at node 11)
	maximum = 0.024 (at node 12)
Accepted flit rate average= 0.0187812
	minimum = 0 (at node 0)
	maximum = 0.3005 (at node 11)
Injected packet length average = 1
Accepted packet length average = 1
Total in-flight flits = 7 (0 measured)
latency change    = 0.0316429
throughput change = 0.0116473
Class 0:
Packet latency average = 21.6978
	minimum = 7
	maximum = 46
Network latency average = 21.6978
	minimum = 7
	maximum = 46
Slowest packet = 23495
Flit latency average = 21.6978
	minimum = 7
	maximum = 46
Slowest flit = 23495
Fragmentation average = 0
	minimum = 0
	maximum = 0
Injected packet rate average = 0.0196875
	minimum = 0.01 (at node 1)
	maximum = 0.028 (at node 12)
Accepted packet rate average = 0.0200625
	minimum = 0 (at node 0)
	maximum = 0.321 (at node 11)
Injected flit rate average = 0.0196875
	minimum = 0.01 (at node 1)
	maximum = 0.028 (at node 12)
Accepted flit rate average= 0.0200625
	minimum = 0 (at node 0)
	maximum = 0.321 (at node 11)
Injected packet length average = 1
Accepted packet length average = 1
Total in-flight flits = 1 (0 measured)
latency change    = 0.0392158
throughput change = 0.0638629
Warmed up ...Time used is 3000 cycles
Class 0:
Packet latency average = 20.3291
	minimum = 7
	maximum = 40
Network latency average = 20.3291
	minimum = 7
	maximum = 40
Slowest packet = 23941
Flit latency average = 20.3185
	minimum = 7
	maximum = 40
Slowest flit = 23941
Fragmentation average = 0
	minimum = 0
	maximum = 0
Injected packet rate average = 0.019875
	minimum = 0.014 (at node 11)
	maximum = 0.029 (at node 6)
Accepted packet rate average = 0.019625
	minimum = 0 (at node 0)
	maximum = 0.314 (at node 11)
Injected flit rate average = 0.019875
	minimum = 0.014 (at node 11)
	maximum = 0.029 (at node 6)
Accepted flit rate average= 0.019625
	minimum = 0 (at node 0)
	maximum = 0.314 (at node 11)
Injected packet length average = 1
Accepted packet length average = 1
Total in-flight flits = 5 (5 measured)
latency change    = 0.0673295
throughput change = 0.022293
Class 0:
Packet latency average = 20.5183
	minimum = 7
	maximum = 43
Network latency average = 20.5183
	minimum = 7
	maximum = 43
Slowest packet = 24175
Flit latency average = 20.5129
	minimum = 7
	maximum = 43
Slowest flit = 24175
Fragmentation average = 0
	minimum = 0
	maximum = 0
Injected packet rate average = 0.0207813
	minimum = 0.017 (at node 8)
	maximum = 0.026 (at node 6)
Accepted packet rate average = 0.0205313
	minimum = 0 (at node 0)
	maximum = 0.3285 (at node 11)
Injected flit rate average = 0.0207813
	minimum = 0.017 (at node 8)
	maximum = 0.026 (at node 6)
Accepted flit rate average= 0.0205313
	minimum = 0 (at node 0)
	maximum = 0.3285 (at node 11)
Injected packet length average = 1
Accepted packet length average = 1
Total in-flight flits = 9 (9 measured)
latency change    = 0.00922198
throughput change = 0.04414
Class 0:
Packet latency average = 20.3011
	minimum = 7
	maximum = 43
Network latency average = 20.3011
	minimum = 7
	maximum = 43
Slowest packet = 24175
Flit latency average = 20.2976
	minimum = 7
	maximum = 43
Slowest flit = 24175
Fragmentation average = 0
	minimum = 0
	maximum = 0
Injected packet rate average = 0.0198542
	minimum = 0.0146667 (at node 8)
	maximum = 0.0253333 (at node 6)
Accepted packet rate average = 0.0198125
	minimum = 0 (at node 0)
	maximum = 0.317 (at node 11)
Injected flit rate average = 0.0198542
	minimum = 0.0146667 (at node 8)
	maximum = 0.0253333 (at node 6)
Accepted flit rate average= 0.0198125
	minimum = 0 (at node 0)
	maximum = 0.317 (at node 11)
Injected packet length average = 1
Accepted packet length average = 1
Total in-flight flits = 3 (3 measured)
latency change    = 0.0107009
throughput change = 0.0362776
Class 0:
Packet latency average = 20.3257
	minimum = 7
	maximum = 47
Network latency average = 20.3257
	minimum = 7
	maximum = 47
Slowest packet = 24764
Flit latency average = 20.3231
	minimum = 7
	maximum = 47
Slowest flit = 24764
Fragmentation average = 0
	minimum = 0
	maximum = 0
Injected packet rate average = 0.0199844
	minimum = 0.0155 (at node 8)
	maximum = 0.024 (at node 6)
Accepted packet rate average = 0.019875
	minimum = 0 (at node 0)
	maximum = 0.318 (at node 11)
Injected flit rate average = 0.0199844
	minimum = 0.0155 (at node 8)
	maximum = 0.024 (at node 6)
Accepted flit rate average= 0.019875
	minimum = 0 (at node 0)
	maximum = 0.318 (at node 11)
Injected packet length average = 1
Accepted packet length average = 1
Total in-flight flits = 8 (8 measured)
latency change    = 0.00121399
throughput change = 0.00314465
Draining all recorded packets ...
Draining remaining packets ...
Time taken is 7055 cycles
Class 0:
Packet latency average = 20.4337
	minimum = 7
	maximum = 38
Network latency average = 20.4337
	minimum = 7
	maximum = 38
Slowest packet = 25119
Flit latency average = 20.4337
	minimum = 7
	maximum = 38
Slowest flit = 25119
Fragmentation average = 0
	minimum = 0
	maximum = 0
Injected packet rate average = 0.0211875
	minimum = 0.015 (at node 12)
	maximum = 0.029 (at node 15)
Accepted packet rate average = 0.02075
	minimum = 0 (at node 0)
	maximum = 0.332 (at node 11)
Injected flit rate average = 0.0211875
	minimum = 0.015 (at node 12)
	maximum = 0.029 (at node 15)
Accepted flit rate average= 0.02075
	minimum = 0 (at node 0)
	maximum = 0.332 (at node 11)
Injected packet length average = 1
Accepted packet length average = 1
Total in-flight flits = 7 (0 measured)
latency change    = 1
throughput change = 1
Class 0:
Packet latency average = 20.6591
	minimum = 7
	maximum = 40
Network latency average = 20.6591
	minimum = 7
	maximum = 40
Slowest packet = 25404
Flit latency average = 20.6591
	minimum = 7
	maximum = 40
Slowest flit = 25404
Fragmentation average = 0
	minimum = 0
	maximum = 0
Injected packet rate average = 0.0209063
	minimum = 0.018 (at node 5)
	maximum = 0.0245 (at node 6)
Accepted packet rate average = 0.020625
	minimum = 0 (at node 0)
	maximum = 0.33 (at node 11)
Injected flit rate average = 0.0209063
	minimum = 0.018 (at node 5)
	maximum = 0.0245 (at node 6)
Accepted flit rate average= 0.020625
	minimum = 0 (at node 0)
	maximum = 0.33 (at node 11)
Injected packet length average = 1
Accepted packet length average = 1
Total in-flight flits = 9 (0 measured)
latency change    = 0.0109083
throughput change = 0.00606061
Class 0:
Packet latency average = 21.7333
	minimum = 7
	maximum = 48
Network latency average = 21.7333
	minimum = 7
	maximum = 48
Slowest packet = 25889
Flit latency average = 21.7333
	minimum = 7
	maximum = 48
Slowest flit = 25889
Fragmentation average = 0
	minimum = 0
	maximum = 0
Injected packet rate average = 0.0221875
	minimum = 0.011 (at node 1)
	maximum = 0.036 (at node 12)
Accepted packet rate average = 0.0225
	minimum = 0 (at node 0)
	maximum = 0.36 (at node 11)
Injected flit rate average = 0.0221875
	minimum = 0.011 (at node 1)
	maximum = 0.036 (at node 12)
Accepted flit rate average= 0.0225
	minimum = 0 (at node 0)
	maximum = 0.36 (at node 11)
Injected packet length average = 1
Accepted packet length average = 1
Total in-flight flits = 4 (0 measured)
latency change    = 0.0494283
throughput change = 0.0833333
Warmed up ...Time used is 3000 cycles
Class 0:
Packet latency average = 20.5559
	minimum = 7
	maximum = 42
Network latency average = 20.5559
	minimum = 7
	maximum = 42
Slowest packet = 26226
Flit latency average = 20.5786
	minimum = 7
	maximum = 42
Slowest flit = 26226
Fragmentation average = 0
	minimum = 0
	maximum = 0
Injected packet rate average = 0.0188125
	minimum = 0.014 (at node 3)
	maximum = 0.025 (at node 12)
Accepted packet rate average = 0.0186875
	minimum = 0 (at node 0)
	maximum = 0.299 (at node 11)
Injected flit rate average = 0.0188125
	minimum = 0.014 (at node 3)
	maximum = 0.025 (at node 12)
Accepted flit rate average= 0.0186875
	minimum = 0 (at node 0)
	maximum = 0.299 (at node 11)
Injected packet length average = 1
Accepted packet length average = 1
Total in-flight flits = 6 (6 measured)
latency change    = 0.0572779
throughput change = 0.204013
Class 0:
Packet latency average = 20.5935
	minimum = 7
	maximum = 42
Network latency average = 20.5935
	minimum = 7
	maximum = 42
Slowest packet = 26226
Flit latency average = 20.6037
	minimum = 7
	maximum = 42
Slowest flit = 26226
Fragmentation average = 0
	minimum = 0
	maximum = 0
Injected packet rate average = 0.0204063
	minimum = 0.0175 (at node 2)
	maximum = 0.0235 (at node 13)
Accepted packet rate average = 0.0201875
	minimum = 0 (at node 0)
	maximum = 0.323 (at node 11)
Injected flit rate average = 0.0204063
	minimum = 0.0175 (at node 2)
	maximum = 0.0235 (at node 13)
Accepted flit rate average= 0.0201875
	minimum = 0 (at node 0)
	maximum = 0.323 (at node 11)
Injected packet length average = 1
Accepted packet length average = 1
Total in-flight flits = 11 (11 measured)
latency change    = 0.00182222
throughput change = 0.0743034
Class 0:
Packet latency average = 20.5889
	minimum = 7
	maximum = 42
Network latency average = 20.5889
	minimum = 7
	maximum = 42
Slowest packet = 26226
Flit latency average = 20.5958
	minimum = 7
	maximum = 42
Slowest flit = 26226
Fragmentation average = 0
	minimum = 0
	maximum = 0
Injected packet rate average = 0.0201458
	minimum = 0.0166667 (at node 15)
	maximum = 0.0253333 (at node 13)
Accepted packet rate average = 0.02
	minimum = 0 (at node 0)
	maximum = 0.32 (at node 11)
Injected flit rate average = 0.0201458
	minimum = 0.0166667 (at node 15)
	maximum = 0.0253333 (at node 13)
Accepted flit rate average= 0.02
	minimum = 0 (at node 0)
	maximum = 0.32 (at node 11)
Injected packet length average = 1
Accepted packet length average = 1
Total in-flight flits = 11 (11 measured)
latency change    = 0.000220789
throughput change = 0.009375
Class 0:
Packet latency average = 20.6579
	minimum = 7
	maximum = 42
Network latency average = 20.6579
	minimum = 7
	maximum = 42
Slowest packet = 26226
Flit latency average = 20.6628
	minimum = 7
	maximum = 42
Slowest flit = 26226
Fragmentation average = 0
	minimum = 0
	maximum = 0
Injected packet rate average = 0.0202344
	minimum = 0.018 (at node 2)
	maximum = 0.02475 (at node 13)
Accepted packet rate average = 0.0201563
	minimum = 0 (at node 0)
	maximum = 0.3225 (at node 11)
Injected flit rate average = 0.0202344
	minimum = 0.018 (at node 2)
	maximum = 0.02475 (at node 13)
Accepted flit rate average= 0.0201563
	minimum = 0 (at node 0)
	maximum = 0.3225 (at node 11)
Injected packet length average = 1
Accepted packet length average = 1
Total in-flight flits = 9 (9 measured)
latency change    = 0.00333731
throughput change = 0.00775194
Class 0:
Packet latency average = 20.7557
	minimum = 7
	maximum = 42
Network latency average = 20.7557
	minimum = 7
	maximum = 42
Slowest packet = 26226
Flit latency average = 20.7593
	minimum = 7
	maximum = 42
Slowest flit = 26226
Fragmentation average = 0
	minimum = 0
	maximum = 0
Injected packet rate average = 0.0205125
	minimum = 0.0182 (at node 15)
	maximum = 0.0262 (at node 13)
Accepted packet rate average = 0.0205125
	minimum = 0 (at node 0)
	maximum = 0.3282 (at node 11)
Injected flit rate average = 0.0205125
	minimum = 0.0182 (at node 15)
	maximum = 0.0262 (at node 13)
Accepted flit rate average= 0.0205125
	minimum = 0 (at node 0)
	maximum = 0.3282 (at node 11)
Injected packet length average = 1
Accepted packet length average = 1
Total in-flight flits = 4 (4 measured)
latency change    = 0.00471181
throughput change = 0.0173675
Draining all recorded packets ...
Draining remaining packets ...
Time taken is 8037 cycles
Class 0:
Packet latency average = 21.2746
	minimum = 7
	maximum = 45
Network latency average = 21.2746
	minimum = 7
	maximum = 45
Slowest packet = 27698
Flit latency average = 21.2746
	minimum = 7
	maximum = 45
Slowest flit = 27698
Fragmentation average = 0
	minimum = 0
	maximum = 0
Injected packet rate average = 0.0221875
	minimum = 0.014 (at node 10)
	maximum = 0.032 (at node 13)
Accepted packet rate average = 0.021625
	minimum = 0 (at node 0)
	maximum = 0.346 (at node 11)
Injected flit rate average = 0.0221875
	minimum = 0.014 (at node 10)
	maximum = 0.032 (at node 13)
Accepted flit rate average= 0.021625
	minimum = 0 (at node 0)
	maximum = 0.346 (at node 11)
Injected packet length average = 1
Accepted packet length average = 1
Total in-flight flits = 9 (0 measured)
latency change    = 1
throughput change = 1
Class 0:
Packet latency average = 21.2926
	minimum = 7
	maximum = 45
Network latency average = 21.2926
	minimum = 7
	maximum = 45
Slowest packet = 27698
Flit latency average = 21.2926
	minimum = 7
	maximum = 45
Slowest flit = 27698
Fragmentation average = 0
	minimum = 0
	maximum = 0
Injected packet rate average = 0.0209688
	minimum = 0.0155 (at node 7)
	maximum = 0.0275 (at node 13)
Accepted packet rate average = 0.0207188
	minimum = 0 (at node 0)
	maximum = 0.3315 (at node 11)
Injected flit rate average = 0.0209688
	minimum = 0.0155 (at node 7)
	maximum = 0.0275 (at node 13)
Accepted flit rate average= 0.0207188
	minimum = 0 (at node 0)
	maximum = 0.3315 (at node 11)
Injected packet length average = 1
Accepted packet length average = 1
Total in-flight flits = 8 (0 measured)
latency change    = 0.000847377
throughput change = 0.0437406
Class 0:
Packet latency average = 20.2987
	minimum = 7
	maximum = 38
Network latency average = 20.2987
	minimum = 7
	maximum = 38
Slowest packet = 28606
Flit latency average = 20.2987
	minimum = 7
	maximum = 38
Slowest flit = 28606
Fragmentation average = 0
	minimum = 0
	maximum = 0
Injected packet rate average = 0.01925
	minimum = 0.012 (at node 11)
	maximum = 0.025 (at node 5)
Accepted packet rate average = 0.01925
	minimum = 0 (at node 0)
	maximum = 0.308 (at node 11)
Injected flit rate average = 0.01925
	minimum = 0.012 (at node 11)
	maximum = 0.025 (at node 5)
Accepted flit rate average= 0.01925
	minimum = 0 (at node 0)
	maximum = 0.308 (at node 11)
Injected packet length average = 1
Accepted packet length average = 1
Total in-flight flits = 8 (0 measured)
latency change    = 0.0489641
throughput change = 0.0762987
Warmed up ...Time used is 3000 cycles
Class 0:
Packet latency average = 21.0385
	minimum = 7
	maximum = 65
Network latency average = 21.0385
	minimum = 7
	maximum = 65
Slowest packet = 28804
Flit latency average = 21.0751
	minimum = 7
	maximum = 65
Slowest flit = 28804
Fragmentation average = 0
	minimum = 0
	maximum = 0
Injected packet rate average = 0.0215625
	minimum = 0.016 (at node 1)
	maximum = 0.028 (at node 7)
Accepted packet rate average = 0.021625
	minimum = 0 (at node 0)
	maximum = 0.346 (at node 11)
Injected flit rate average = 0.0215625
	minimum = 0.016 (at node 1)
	maximum = 0.028 (at node 7)
Accepted flit rate average= 0.021625
	minimum = 0 (at node 0)
	maximum = 0.346 (at node 11)
Injected packet length average = 1
Accepted packet length average = 1
Total in-flight flits = 7 (7 measured)
latency change    = 0.0351623
throughput change = 0.109827
Class 0:
Packet latency average = 20.6157
	minimum = 7
	maximum = 65
Network latency average = 20.6157
	minimum = 7
	maximum = 65
Slowest packet = 28804
Flit latency average = 20.6407
	minimum = 7
	maximum = 65
Slowest flit = 28804
Fragmentation average = 0
	minimum = 0
	maximum = 0
Injected packet rate average = 0.02
	minimum = 0.014 (at node 12)
	maximum = 0.025 (at node 8)
Accepted packet rate average = 0.0200938
	minimum = 0 (at node 0)
	maximum = 0.3215 (at node 11)
Injected flit rate average = 0.02
	minimum = 0.014 (at node 12)
	maximum = 0.025 (at node 8)
Accepted flit rate average= 0.0200938
	minimum = 0 (at node 0)
	maximum = 0.3215 (at node 11)
Injected packet length average = 1
Accepted packet length average = 1
Total in-flight flits = 5 (5 measured)
latency change    = 0.0205044
throughput change = 0.0762053
Class 0:
Packet latency average = 20.5638
	minimum = 7
	maximum = 65
Network latency average = 20.5638
	minimum = 7
	maximum = 65
Slowest packet = 28804
Flit latency average = 20.581
	minimum = 7
	maximum = 65
Slowest flit = 28804
Fragmentation average = 0
	minimum = 0
	maximum = 0
Injected packet rate average = 0.0198958
	minimum = 0.015 (at node 12)
	maximum = 0.0266667 (at node 8)
Accepted packet rate average = 0.0199375
	minimum = 0 (at node 0)
	maximum = 0.319 (at node 11)
Injected flit rate average = 0.0198958
	minimum = 0.015 (at node 12)
	maximum = 0.0266667 (at node 8)
Accepted flit rate average= 0.0199375
	minimum = 0 (at node 0)
	maximum = 0.319 (at node 11)
Injected packet length average = 1
Accepted packet length average = 1
Total in-flight flits = 6 (6 measured)
latency change    = 0.00252856
throughput change = 0.00783699
Class 0:
Packet latency average = 20.7444
	minimum = 7
	maximum = 65
Network latency average = 20.7444
	minimum = 7
	maximum = 65
Slowest packet = 28804
Flit latency average = 20.756
	minimum = 7
	maximum = 65
Slowest flit = 28804
Fragmentation average = 0
	minimum = 0
	maximum = 0
Injected packet rate average = 0.0201875
	minimum = 0.01675 (at node 6)
	maximum = 0.023 (at node 8)
Accepted packet rate average = 0.0202344
	minimum = 0 (at node 0)
	maximum = 0.32375 (at node 11)
Injected flit rate average = 0.0201875
	minimum = 0.01675 (at node 6)
	maximum = 0.023 (at node 8)
Accepted flit rate average= 0.0202344
	minimum = 0 (at node 0)
	maximum = 0.32375 (at node 11)
Injected packet length average = 1
Accepted packet length average = 1
[...]
Class 0:
Packet latency average = 20.8246
	minimum = 7
	maximum = 46
Network latency average = 20.8246
	minimum = 7
	maximum = 46
Slowest packet = 220873
Flit latency average = 20.8246
	minimum = 7
	maximum = 46
Slowest flit = 220873
Fragmentation average = 0
	minimum = 0
	maximum = 0
Injected packet rate average = 0.0215625
	minimum = 0.016 (at node 12)
	maximum = 0.027 (at node 5)
Accepted packet rate average = 0.021375
	minimum = 0 (at node 0)
	maximum = 0.342 (at node 11)
Injected flit rate average = 0.0215625
	minimum = 0.016 (at node 12)
	maximum = 0.027 (at node 5)
Accepted flit rate average= 0.021375
	minimum = 0 (at node 0)
	maximum = 0.342 (at node 11)
Injected packet length average = 1
Accepted packet length average = 1
Total in-flight flits = 3 (0 measured)
latency change    = 1
throughput change = 1
Class 0:
Packet latency average = 20.7126
	minimum = 7
	maximum = 46
Network latency average = 20.7126
	minimum = 7
	maximum = 46
Slowest packet = 220873
Flit latency average = 20.7126
	minimum = 7
	maximum = 46
Slowest flit = 220873
Fragmentation average = 0
	minimum = 0
	maximum = 0
Injected packet rate average = 0.0208438
	minimum = 0.015 (at node 15)
	maximum = 0.0255 (at node 9)
Accepted packet rate average = 0.0206563
	minimum = 0 (at node 0)
	maximum = 0.3305 (at node 11)
Injected flit rate average = 0.0208438
	minimum = 0.015 (at node 15)
	maximum = 0.0255 (at node 9)
Accepted flit rate average= 0.0206563
	minimum = 0 (at node 0)
	maximum = 0.3305 (at node 11)
Injected packet length average = 1
Accepted packet length average = 1
Total in-flight flits = 6 (0 measured)
latency change    = 0.00540757
throughput change = 0.0347958
Class 0:
Packet latency average = 21.107
	minimum = 7
	maximum = 39
Network latency average = 21.107
	minimum = 7
	maximum = 39
Slowest packet = 221297
Flit latency average = 21.107
	minimum = 7
	maximum = 39
Slowest flit = 221297
Fragmentation average = 0
	minimum = 0
	maximum = 0
Injected packet rate average = 0.0188125
	minimum = 0.012 (at node 11)
	maximum = 0.03 (at node 3)
Accepted packet rate average = 0.0186875
	minimum = 0 (at node 0)
	maximum = 0.299 (at node 11)
Injected flit rate average = 0.0188125
	minimum = 0.012 (at node 11)
	maximum = 0.03 (at node 3)
Accepted flit rate average= 0.0186875
	minimum = 0 (at node 0)
	maximum = 0.299 (at node 11)
Injected packet length average = 1
Accepted packet length average = 1
Total in-flight flits = 8 (0 measured)
latency change    = 0.0186889
throughput change = 0.105351
Warmed up ...Time used is 3000 cycles
Class 0:
Packet latency average = 20.5804
	minimum = 7
	maximum = 39
Network latency average = 20.5804
	minimum = 7
	maximum = 39
Slowest packet = 221845
Flit latency average = 20.7231
	minimum = 7
	maximum = 39
Slowest flit = 221845
Fragmentation average = 0
	minimum = 0
	maximum = 0
Injected packet rate average = 0.02
	minimum = 0.011 (at node 1)
	maximum = 0.026 (at node 7)
Accepted packet rate average = 0.0203125
	minimum = 0 (at node 0)
	maximum = 0.325 (at node 11)
Injected flit rate average = 0.02
	minimum = 0.011 (at node 1)
	maximum = 0.026 (at node 7)
Accepted flit rate average= 0.0203125
	minimum = 0 (at node 0)
	maximum = 0.325 (at node 11)
Injected packet length average = 1
Accepted packet length average = 1
Total in-flight flits = 3 (3 measured)
latency change    = 0.0255865
throughput change = 0.08
Class 0:
Packet latency average = 20.5017
	minimum = 7
	maximum = 39
Network latency average = 20.5017
	minimum = 7
	maximum = 39
Slowest packet = 221845
Flit latency average = 20.5789
	minimum = 7
	maximum = 39
Slowest flit = 221845
Fragmentation average = 0
	minimum = 0
	maximum = 0
Injected packet rate average = 0.0189687
	minimum = 0.0145 (at node 1)
	maximum = 0.025 (at node 12)
Accepted packet rate average = 0.019
	minimum = 0 (at node 0)
	maximum = 0.304 (at node 11)
Injected flit rate average = 0.0189687
	minimum = 0.0145 (at node 1)
	maximum = 0.025 (at node 12)
Accepted flit rate average= 0.019
	minimum = 0 (at node 0)
	maximum = 0.304 (at node 11)
Injected packet length average = 1
Accepted packet length average = 1
Total in-flight flits = 7 (7 measured)
latency change    = 0.00384237
throughput change = 0.0690789
Class 0:
Packet latency average = 20.3556
	minimum = 7
	maximum = 41
Network latency average = 20.3556
	minimum = 7
	maximum = 41
Slowest packet = 222280
Flit latency average = 20.4086
	minimum = 7
	maximum = 41
Slowest flit = 222280
Fragmentation average = 0
	minimum = 0
	maximum = 0
Injected packet rate average = 0.0189375
	minimum = 0.0156667 (at node 3)
	maximum = 0.0236667 (at node 15)
Accepted packet rate average = 0.0189167
	minimum = 0 (at node 0)
	maximum = 0.302667 (at node 11)
Injected flit rate average = 0.0189375
	minimum = 0.0156667 (at node 3)
	maximum = 0.0236667 (at node 15)
Accepted flit rate average= 0.0189167
	minimum = 0 (at node 0)
	maximum = 0.302667 (at node 11)
Injected packet length average = 1
Accepted packet length average = 1
Total in-flight flits = 9 (9 measured)
latency change    = 0.00717795
throughput change = 0.00440529
Class 0:
Packet latency average = 20.4027
	minimum = 7
	maximum = 47
Network latency average = 20.4027
	minimum = 7
	maximum = 47
Slowest packet = 222572
Flit latency average = 20.4421
	minimum = 7
	maximum = 47
Slowest flit = 222572
Fragmentation average = 0
	minimum = 0
	maximum = 0
Injected packet rate average = 0.0188437
	minimum = 0.01525 (at node 11)
	maximum = 0.02225 (at node 12)
Accepted packet rate average = 0.0189062
	minimum = 0 (at node 0)
	maximum = 0.3025 (at node 11)
Injected flit rate average = 0.0188437
	minimum = 0.01525 (at node 11)
	maximum = 0.02225 (at node 12)
Accepted flit rate average= 0.0189062
	minimum = 0 (at node 0)
	maximum = 0.3025 (at node 11)
Injected packet length average = 1
Accepted packet length average = 1
Total in-flight flits = 4 (4 measured)
latency change    = 0.00230885
throughput change = 0.000550964
Class 0:
Packet latency average = 20.4176
	minimum = 7
	maximum = 47
Network latency average = 20.4176
	minimum = 7
	maximum = 47
Slowest packet = 222572
Flit latency average = 20.4486
	minimum = 7
	maximum = 47
Slowest flit = 222572
Fragmentation average = 0
	minimum = 0
	maximum = 0
Injected packet rate average = 0.0192125
	minimum = 0.0156 (at node 11)
	maximum = 0.022 (at node 15)
Accepted packet rate average = 0.019225
	minimum = 0 (at node 0)
	maximum = 0.3076 (at node 11)
Injected flit rate average = 0.0192125
	minimum = 0.0156 (at node 11)
	maximum = 0.022 (at node 15)
Accepted flit rate average= 0.019225
	minimum = 0 (at node 0)
	maximum = 0.3076 (at node 11)
Injected packet length average = 1
Accepted packet length average = 1
Total in-flight flits = 7 (7 measured)
latency change    = 0.000733916
throughput change = 0.01658
Draining all recorded packets ...
Draining remaining packets ...
Time taken is 8047 cycles
Class 0:
Packet latency average = 20.4371
	minimum = 7
	maximum = 41
Network latency average = 20.4371
	minimum = 7
	maximum = 41
Slowest packet = 223246
Flit latency average = 20.4371
	minimum = 7
	maximum = 41
Slowest flit = 223246
Fragmentation average = 0
	minimum = 0
	maximum = 0
Injected packet rate average = 0.019375
	minimum = 0.014 (at node 9)
	maximum = 0.027 (at node 0)
Accepted packet rate average = 0.018875
	minimum = 0 (at node 0)
	maximum = 0.302 (at node 11)
Injected flit rate average = 0.019375
	minimum = 0.014 (at node 9)
	maximum = 0.027 (at node 0)
Accepted flit rate average= 0.018875
	minimum = 0 (at node 0)
	maximum = 0.302 (at node 11)
Injected packet length average = 1
Accepted packet length average = 1
Total in-flight flits = 8 (0 measured)
latency change    = 1
throughput change = 1
Class 0:
Packet latency average = 20.5877
	minimum = 7
	maximum = 42
Network latency average = 20.5877
	minimum = 7
	maximum = 42
Slowest packet = 223543
Flit latency average = 20.5877
	minimum = 7
	maximum = 42
Slowest flit = 223543
Fragmentation average = 0
	minimum = 0
	maximum = 0
Injected packet rate average = 0.0191562
	minimum = 0.0125 (at node 13)
	maximum = 0.024 (at node 0)
Accepted packet rate average = 0.018875
	minimum = 0 (at node 0)
	maximum = 0.302 (at node 11)
Injected flit rate average = 0.0191562
	minimum = 0.0125 (at node 13)
	maximum = 0.024 (at node 0)
Accepted flit rate average= 0.018875
	minimum = 0 (at node 0)
	maximum = 0.302 (at node 11)
Injected packet length average = 1
Accepted packet length average = 1
Total in-flight flits = 9 (0 measured)
latency change    = 0.00731805
throughput change = 0
Class 0:
Packet latency average = 20.3599
	minimum = 7
	maximum = 43
Network latency average = 20.3599
	minimum = 7
	maximum = 43
Slowest packet = 224017
Flit latency average = 20.3599
	minimum = 7
	maximum = 43
Slowest flit = 224017
Fragmentation average = 0
	minimum = 0
	maximum = 0
Injected packet rate average = 0.019625
	minimum = 0.01 (at node 12)
	maximum = 0.028 (at node 3)
Accepted packet rate average = 0.019625
	minimum = 0 (at node 0)
	maximum = 0.314 (at node 11)
Injected flit rate average = 0.019625
	minimum = 0.01 (at node 12)
	maximum = 0.028 (at node 3)
Accepted flit rate average= 0.019625
	minimum = 0 (at node 0)
	maximum = 0.314 (at node 11)
Injected packet length average = 1
Accepted packet length average = 1
Total in-flight flits = 9 (0 measured)
latency change    = 0.0111924
throughput change = 0.0382166
Warmed up ...Time used is 3000 cycles
Class 0:
Packet latency average = 20.1176
	minimum = 7
	maximum = 33
Network latency average = 20.1176
	minimum = 7
	maximum = 33
Slowest packet = 224122
Flit latency average = 20.2
	minimum = 7
	maximum = 33
Slowest flit = 224122
Fragmentation average = 0
	minimum = 0
	maximum = 0
Injected packet rate average = 0.0195625
	minimum = 0.014 (at node 0)
	maximum = 0.027 (at node 8)
Accepted packet rate average = 0.0196875
	minimum = 0 (at node 0)
	maximum = 0.315 (at node 11)
Injected flit rate average = 0.0195625
	minimum = 0.014 (at node 0)
	maximum = 0.027 (at node 8)
Accepted flit rate average= 0.0196875
	minimum = 0 (at node 0)
	maximum = 0.315 (at node 11)
Injected packet length average = 1
Accepted packet length average = 1
Total in-flight flits = 7 (7 measured)
latency change    = 0.0120405
throughput change = 0.0031746
Class 0:
Packet latency average = 19.9433
	minimum = 7
	maximum = 36
Network latency average = 19.9433
	minimum = 7
	maximum = 36
Slowest packet = 224634
Flit latency average = 19.9872
	minimum = 7
	maximum = 36
Slowest flit = 224634
Fragmentation average = 0
	minimum = 0
	maximum = 0
Injected packet rate average = 0.0194375
	minimum = 0.015 (at node 0)
	maximum = 0.0245 (at node 8)
Accepted packet rate average = 0.0195625
	minimum = 0 (at node 0)
	maximum = 0.313 (at node 11)
Injected flit rate average = 0.0194375
	minimum = 0.015 (at node 0)
	maximum = 0.0245 (at node 8)
Accepted flit rate average= 0.0195625
	minimum = 0 (at node 0)
	maximum = 0.313 (at node 11)
Injected packet length average = 1
Accepted packet length average = 1
Total in-flight flits = 5 (5 measured)
latency change    = 0.00874346
throughput change = 0.00638978
Class 0:
Packet latency average = 20.2552
	minimum = 7
	maximum = 36
Network latency average = 20.2552
	minimum = 7
	maximum = 36
Slowest packet = 224634
Flit latency average = 20.2817
	minimum = 7
	maximum = 36
Slowest flit = 224634
Fragmentation average = 0
	minimum = 0
	maximum = 0
Injected packet rate average = 0.0193125
	minimum = 0.0156667 (at node 2)
	maximum = 0.0226667 (at node 5)
Accepted packet rate average = 0.019375
	minimum = 0 (at node 0)
	maximum = 0.31 (at node 11)
Injected flit rate average = 0.0193125
	minimum = 0.0156667 (at node 2)
	maximum = 0.0226667 (at node 5)
Accepted flit rate average= 0.019375
	minimum = 0 (at node 0)
	maximum = 0.31 (at node 11)
Injected packet length average = 1
Accepted packet length average = 1
Total in-flight flits = 6 (6 measured)
latency change    = 0.0153977
throughput change = 0.00967742
Draining all recorded packets ...
Draining remaining packets ...
Time taken is 6042 cycles
Class 0:
Packet latency average = 19.8742
	minimum = 7
	maximum = 36
Network latency average = 19.8742
	minimum = 7
	maximum = 36
Slowest packet = 225010
Flit latency average = 19.8742
	minimum = 7
	maximum = 36
Slowest flit = 225010
Fragmentation average = 0
	minimum = 0
	maximum = 0
Injected packet rate average = 0.01925
	minimum = 0.011 (at node 12)
	maximum = 0.029 (at node 6)
Accepted packet rate average = 0.018875
	minimum = 0 (at node 0)
	maximum = 0.302 (at node 11)
Injected flit rate average = 0.01925
	minimum = 0.011 (at node 12)
	maximum = 0.029 (at node 6)
Accepted flit rate average= 0.018875
	minimum = 0 (at node 0)
	maximum = 0.302 (at node 11)
Injected packet length average = 1
Accepted packet length average = 1
Total in-flight flits = 6 (0 measured)
latency change    = 1
throughput change = 1
Class 0:
Packet latency average = 20.1957
	minimum = 7
	maximum = 40
Network latency average = 20.1957
	minimum = 7
	maximum = 40
Slowest packet = 225522
Flit latency average = 20.1957
	minimum = 7
	maximum = 40
Slowest flit = 225522
Fragmentation average = 0
	minimum = 0
	maximum = 0
Injected packet rate average = 0.0191875
	minimum = 0.015 (at node 7)
	maximum = 0.026 (at node 5)
Accepted packet rate average = 0.0188437
	minimum = 0 (at node 0)
	maximum = 0.3015 (at node 11)
Injected flit rate average = 0.0191875
	minimum = 0.015 (at node 7)
	maximum = 0.026 (at node 5)
Accepted flit rate average= 0.0188437
	minimum = 0 (at node 0)
	maximum = 0.3015 (at node 11)
Injected packet length average = 1
Accepted packet length average = 1
Total in-flight flits = 11 (0 measured)
latency change    = 0.01592
throughput change = 0.00165837
Class 0:
Packet latency average = 21.0029
	minimum = 7
	maximum = 36
Network latency average = 21.0029
	minimum = 7
	maximum = 36
Slowest packet = 225685
Flit latency average = 21.0029
	minimum = 7
	maximum = 36
Slowest flit = 225685
Fragmentation average = 0
	minimum = 0
	maximum = 0
Injected packet rate average = 0.02125
	minimum = 0.013 (at node 15)
	maximum = 0.026 (at node 8)
Accepted packet rate average = 0.02125
	minimum = 0 (at node 0)
	maximum = 0.34 (at node 11)
Injected flit rate average = 0.02125
	minimum = 0.013 (at node 15)
	maximum = 0.026 (at node 8)
Accepted flit rate average= 0.02125
	minimum = 0 (at node 0)
	maximum = 0.34 (at node 11)
Injected packet length average = 1
Accepted packet length average = 1
Total in-flight flits = 11 (0 measured)
latency change    = 0.0384352
throughput change = 0.113235
Warmed up ...Time used is 3000 cycles
Class 0:
Packet latency average = 21.0794
	minimum = 7
	maximum = 43
Network latency average = 21.0765
	minimum = 7
	maximum = 43
Slowest packet = 226046
Flit latency average = 21.1083
	minimum = 7
	maximum = 43
Slowest flit = 226046
Fragmentation average = 0
	minimum = 0
	maximum = 0
Injected packet rate average = 0.02175
	minimum = 0.013 (at node 9)
	maximum = 0.029 (at node 8)
Accepted packet rate average = 0.0219375
	minimum = 0 (at node 0)
	maximum = 0.351 (at node 11)
Injected flit rate average = 0.02175
	minimum = 0.013 (at node 9)
	maximum = 0.029 (at node 8)
Accepted flit rate average= 0.0219375
	minimum = 0 (at node 0)
	maximum = 0.351 (at node 11)
Injected packet length average = 1
Accepted packet length average = 1
Total in-flight flits = 8 (8 measured)
latency change    = 0.00362774
throughput change = 0.031339
Class 0:
Packet latency average = 20.6595
	minimum = 7
	maximum = 43
Network latency average = 20.658
	minimum = 7
	maximum = 43
Slowest packet = 226046
Flit latency average = 20.6817
	minimum = 7
	maximum = 43
Slowest flit = 226046
Fragmentation average = 0
	minimum = 0
	maximum = 0
Injected packet rate average = 0.0206563
	minimum = 0.017 (at node 15)
	maximum = 0.0265 (at node 7)
Accepted packet rate average = 0.0207188
	minimum = 0 (at node 0)
	maximum = 0.3315 (at node 11)
Injected flit rate average = 0.0206563
	minimum = 0.017 (at node 15)
	maximum = 0.0265 (at node 7)
Accepted flit rate average= 0.0207188
	minimum = 0 (at node 0)
	maximum = 0.3315 (at node 11)
Injected packet length average = 1
Accepted packet length average = 1
Total in-flight flits = 9 (9 measured)
latency change    = 0.0203249
throughput change = 0.0588235
Class 0:
Packet latency average = 20.8147
	minimum = 7
	maximum = 43
Network latency average = 20.8137
	minimum = 7
	maximum = 43
Slowest packet = 226046
Flit latency average = 20.8279
	minimum = 7
	maximum = 43
Slowest flit = 226046
Fragmentation average = 0
	minimum = 0
	maximum = 0
Injected packet rate average = 0.0205833
	minimum = 0.017 (at node 1)
	maximum = 0.027 (at node 7)
Accepted packet rate average = 0.0205833
	minimum = 0 (at node 0)
	maximum = 0.329333 (at node 11)
Injected flit rate average = 0.0205833
	minimum = 0.017 (at node 1)
	maximum = 0.027 (at node 7)
Accepted flit rate average= 0.0205833
	minimum = 0 (at node 0)
	maximum = 0.329333 (at node 11)
Injected packet length average = 1
Accepted packet length average = 1
Total in-flight flits = 11 (11 measured)
latency change    = 0.00745769
throughput change = 0.00657895
Class 0:
Packet latency average = 20.969
	minimum = 7
	maximum = 49
Network latency average = 20.9683
	minimum = 7
	maximum = 49
Slowest packet = 227120
Flit latency average = 20.9775
	minimum = 7
	maximum = 49
Slowest flit = 227120
Fragmentation average = 0
	minimum = 0
	maximum = 0
Injected packet rate average = 0.0208281
	minimum = 0.018 (at node 10)
	maximum = 0.0265 (at node 7)
Accepted packet rate average = 0.0208438
	minimum = 0 (at node 0)
	maximum = 0.3335 (at node 11)
Injected flit rate average = 0.0208281
	minimum = 0.018 (at node 10)
	maximum = 0.0265 (at node 7)
Accepted flit rate average= 0.0208438
	minimum = 0 (at node 0)
	maximum = 0.3335 (at node 11)
Injected packet length average = 1
Accepted packet length average = 1
Total in-flight flits = 10 (10 measured)
latency change    = 0.00735709
throughput change = 0.0124938
Class 0:
Packet latency average = 21.0332
	minimum = 7
	maximum = 56
Network latency average = 21.0325
	minimum = 7
	maximum = 56
Slowest packet = 227287
Flit latency average = 21.0395
	minimum = 7
	maximum = 56
Slowest flit = 227287
Fragmentation average = 0
	minimum = 0
	maximum = 0
Injected packet rate average = 0.0208625
	minimum = 0.0182 (at node 2)
	maximum = 0.0252 (at node 7)
Accepted packet rate average = 0.020875
	minimum = 0 (at node 0)
	maximum = 0.334 (at node 11)
Injected flit rate average = 0.0208625
	minimum = 0.0182 (at node 2)
	maximum = 0.0252 (at node 7)
Accepted flit rate average= 0.020875
	minimum = 0 (at node 0)
	maximum = 0.334 (at node 11)
Injected packet length average = 1
Accepted packet length average = 1
Total in-flight flits = 10 (10 measured)
latency change    = 0.0030496
throughput change = 0.00149701
Draining all recorded packets ...
Draining remaining packets ...
Time taken is 8055 cycles
====== Overall Traffic Statistics ======
====== Traffic class 0 ======
Packet latency average = 20.5864 (100 samples)
	minimum = 7 (100 samples)
	maximum = 47.93 (100 samples)
Network latency average = 20.5863 (100 samples)
	minimum = 7 (100 samples)
	maximum = 47.93 (100 samples)
Flit latency average = 20.6 (100 samples)
	minimum = 7 (100 samples)
	maximum = 48.04 (100 samples)
Fragmentation average = 0 (100 samples)
	minimum = 0 (100 samples)
	maximum = 0 (100 samples)
Injected packet rate average = 0.0199864 (100 samples)
	minimum = 0.0160875 (100 samples)
	maximum = 0.0242595 (100 samples)
Accepted packet rate average = 0.0199851 (100 samples)
	minimum = 0 (100 samples)
	maximum = 0.319762 (100 samples)
Injected flit rate average = 0.0199864 (100 samples)
	minimum = 0.0160875 (100 samples)
	maximum = 0.0242595 (100 samples)
Accepted flit rate average = 0.0199851 (100 samples)
	minimum = 0 (100 samples)
	maximum = 0.319762 (100 samples)
Injected packet size average = 1 (100 samples)
Accepted packet size average = 1 (100 samples)
Hops average = 3.49416 (100 samples)
Total run time 5.3339
