BEGIN Configuration File: /tmp/bs_1138183_588986.cfg
topology = mesh;
k = 4;
n = 2;
routing_function = dor;
num_vcs = 4;
vc_buf_size = 4;
wait_for_tail_credit = 1;
vc_allocator = islip;
sw_allocator = islip;
alloc_iters = 1;
credit_delay = 2;
routing_delay = 1;
vc_alloc_delay = 1;
sw_alloc_delay = 1;
input_speedup = 2;
output_speedup = 1;
internal_speedup = 1.0;
traffic = uniform;
packet_size = 1;
sim_type = latency;
injection_rate = 0.2;
warmup_periods = 3;
sample_period = 1000;
sim_count = 100;
seed = 1;

END Configuration File: /tmp/bs_1138183_588986.cfg
Class 0:
Packet latency average = 20.0842
	minimum = 7
	maximum = 46
Network latency average = 20.0682
	minimum = 7
	maximum = 46
Slowest packet = 276
Flit latency average = 20.0682
	minimum = 7
	maximum = 46
Slowest flit = 276
Fragmentation average = 0
	minimum = 0
	maximum = 0
Injected packet rate average = 0.198813
	minimum = 0.173 (at node 8)
	maximum = 0.224 (at node 1)
Accepted packet rate average = 0.19525
	minimum = 0.171 (at node 7)
	maximum = 0.213 (at node 14)
Injected flit rate average = 0.198813
	minimum = 0.173 (at node 8)
	maximum = 0.224 (at node 1)
Accepted flit rate average= 0.19525
	minimum = 0.171 (at node 7)
	maximum = 0.213 (at node 14)
Injected packet length average = 1
Accepted packet length average = 1
Total in-flight flits = 57 (0 measured)
latency change    = 1
throughput change = 1
Class 0:
Packet latency average = 20.2009
	minimum = 7
	maximum = 46
Network latency average = 20.1869
	minimum = 7
	maximum = 46
Slowest packet = 276
Flit latency average = 20.1869
	minimum = 7
	maximum = 46
Slowest flit = 276
Fragmentation average = 0
	minimum = 0
	maximum = 0
Injected packet rate average = 0.199906
	minimum = 0.186 (at node 3)
	maximum = 0.2145 (at node 1)
Accepted packet rate average = 0.198
	minimum = 0.1775 (at node 10)
	maximum = 0.217 (at node 4)
Injected flit rate average = 0.199906
	minimum = 0.186 (at node 3)
	maximum = 0.2145 (at node 1)
Accepted flit rate average= 0.198
	minimum = 0.1775 (at node 10)
	maximum = 0.217 (at node 4)
Injected packet length average = 1
Accepted packet length average = 1
Total in-flight flits = 62 (0 measured)
latency change    = 0.00577837
throughput change = 0.0138889
Class 0:
Packet latency average = 20.0322
	minimum = 7
	maximum = 49
Network latency average = 20.0176
	minimum = 7
	maximum = 49
Slowest packet = 6708
Flit latency average = 20.0176
	minimum = 7
	maximum = 49
Slowest flit = 6708
Fragmentation average = 0
	minimum = 0
	maximum = 0
Injected packet rate average = 0.20225
	minimum = 0.175 (at node 0)
	maximum = 0.22 (at node 6)
Accepted packet rate average = 0.202
	minimum = 0.18 (at node 12)
	maximum = 0.235 (at node 5)
Injected flit rate average = 0.20225
	minimum = 0.175 (at node 0)
	maximum = 0.22 (at node 6)
Accepted flit rate average= 0.202
	minimum = 0.18 (at node 12)
	maximum = 0.235 (at node 5)
Injected packet length average = 1
Accepted packet length average = 1
Total in-flight flits = 65 (0 measured)
latency change    = 0.00842331
throughput change = 0.019802
Warmed up ...Time used is 3000 cycles
Class 0:
Packet latency average = 20.6686
	minimum = 7
	maximum = 55
Network latency average = 20.6395
	minimum = 7
	maximum = 54
Slowest packet = 11447
Flit latency average = 20.6988
	minimum = 7
	maximum = 54
Slowest flit = 11447
Fragmentation average = 0
	minimum = 0
	maximum = 0
Injected packet rate average = 0.201937
	minimum = 0.169 (at node 6)
	maximum = 0.23 (at node 5)
Accepted packet rate average = 0.201875
	minimum = 0.178 (at node 5)
	maximum = 0.229 (at node 6)
Injected flit rate average = 0.201937
	minimum = 0.169 (at node 6)
	maximum = 0.23 (at node 5)
Accepted flit rate average= 0.201875
	minimum = 0.178 (at node 5)
	maximum = 0.229 (at node 6)
Injected packet length average = 1
Accepted packet length average = 1
Total in-flight flits = 66 (66 measured)
latency change    = 0.03079
throughput change = 0.000619195
Class 0:
Packet latency average = 20.5372
	minimum = 7
	maximum = 62
Network latency average = 20.5108
	minimum = 7
	maximum = 62
Slowest packet = 14315
Flit latency average = 20.5417
	minimum = 7
	maximum = 62
Slowest flit = 14315
Fragmentation average = 0
	minimum = 0
	maximum = 0
Injected packet rate average = 0.202625
	minimum = 0.188 (at node 15)
	maximum = 0.221 (at node 5)
Accepted packet rate average = 0.202375
	minimum = 0.1755 (at node 2)
	maximum = 0.219 (at node 4)
Injected flit rate average = 0.202625
	minimum = 0.188 (at node 15)
	maximum = 0.221 (at node 5)
Accepted flit rate average= 0.202375
	minimum = 0.1755 (at node 2)
	maximum = 0.219 (at node 4)
Injected packet length average = 1
Accepted packet length average = 1
Total in-flight flits = 73 (73 measured)
latency change    = 0.00639623
throughput change = 0.00247066
Class 0:
Packet latency average = 20.4354
	minimum = 7
	maximum = 62
Network latency average = 20.4144
	minimum = 7
	maximum = 62
Slowest packet = 14315
Flit latency average = 20.4357
	minimum = 7
	maximum = 62
Slowest flit = 14315
Fragmentation average = 0
	minimum = 0
	maximum = 0
Injected packet rate average = 0.201458
	minimum = 0.181667 (at node 15)
	maximum = 0.227 (at node 5)
Accepted packet rate average = 0.2015
	minimum = 0.182 (at node 5)
	maximum = 0.217 (at node 3)
Injected flit rate average = 0.201458
	minimum = 0.181667 (at node 15)
	maximum = 0.227 (at node 5)
Accepted flit rate average= 0.2015
	minimum = 0.182 (at node 5)
	maximum = 0.217 (at node 3)
Injected packet length average = 1
Accepted packet length average = 1
Total in-flight flits = 63 (63 measured)
latency change    = 0.00498106
throughput change = 0.00434243
Draining all recorded packets ...
Draining remaining packets ...
Time taken is 6075 cycles
Class 0:
Packet latency average = 20.0925
	minimum = 7
	maximum = 56
Network latency average = 20.0781
	minimum = 7
	maximum = 56
Slowest packet = 19922
Flit latency average = 20.0781
	minimum = 7
	maximum = 56
Slowest flit = 19922
Fragmentation average = 0
	minimum = 0
	maximum = 0
Injected packet rate average = 0.198813
	minimum = 0.181 (at node 0)
	maximum = 0.21 (at node 9)
Accepted packet rate average = 0.195188
	minimum = 0.174 (at node 0)
	maximum = 0.234 (at node 5)
Injected flit rate average = 0.198813
	minimum = 0.181 (at node 0)
	maximum = 0.21 (at node 9)
Accepted flit rate average= 0.195188
	minimum = 0.174 (at node 0)
	maximum = 0.234 (at node 5)
Injected packet length average = 1
Accepted packet length average = 1
Total in-flight flits = 58 (0 measured)
latency change    = 1
throughput change = 1
Class 0:
Packet latency average = 20.2518
	minimum = 7
	maximum = 57
Network latency average = 20.234
	minimum = 7
	maximum = 57
Slowest packet = 23305
Flit latency average = 20.234
	minimum = 7
	maximum = 57
Slowest flit = 23305
Fragmentation average = 0
	minimum = 0
	maximum = 0
Injected packet rate average = 0.19875
	minimum = 0.181 (at node 15)
	maximum = 0.208 (at node 5)
Accepted packet rate average = 0.196844
	minimum = 0.186 (at node 13)
	maximum = 0.2125 (at node 5)
Injected flit rate average = 0.19875
	minimum = 0.181 (at node 15)
	maximum = 0.208 (at node 5)
Accepted flit rate average= 0.196844
	minimum = 0.186 (at node 13)
	maximum = 0.2125 (at node 5)
Injected packet length average = 1
Accepted packet length average = 1
Total in-flight flits = 61 (0 measured)
latency change    = 0.00786334
throughput change = 0.00841403
Class 0:
Packet latency average = 20.1401
	minimum = 7
	maximum = 55
Network latency average = 20.1334
	minimum = 7
	maximum = 55
Slowest packet = 27446
Flit latency average = 20.1334
	minimum = 7
	maximum = 55
Slowest flit = 27446
Fragmentation average = 0
	minimum = 0
	maximum = 0
Injected packet rate average = 0.197875
	minimum = 0.185 (at node 4)
	maximum = 0.212 (at node 1)
Accepted packet rate average = 0.19725
	minimum = 0.17 (at node 7)
	maximum = 0.225 (at node 10)
Injected flit rate average = 0.197875
	minimum = 0.185 (at node 4)
	maximum = 0.212 (at node 1)
Accepted flit rate average= 0.19725
	minimum = 0.17 (at node 7)
	maximum = 0.225 (at node 10)
Injected packet length average = 1
Accepted packet length average = 1
Total in-flight flits = 71 (0 measured)
latency change    = 0.00554792
throughput change = 0.00205957
Warmed up ...Time used is 3000 cycles
Class 0:
Packet latency average = 20.4753
	minimum = 7
	maximum = 53
Network latency average = 20.4583
	minimum = 7
	maximum = 53
Slowest packet = 30480
Flit latency average = 20.5293
	minimum = 7
	maximum = 53
Slowest flit = 30480
Fragmentation average = 0
	minimum = 0
	maximum = 0
Injected packet rate average = 0.199687
	minimum = 0.183 (at node 4)
	maximum = 0.228 (at node 14)
Accepted packet rate average = 0.199437
	minimum = 0.184 (at node 10)
	maximum = 0.227 (at node 15)
Injected flit rate average = 0.199687
	minimum = 0.183 (at node 4)
	maximum = 0.228 (at node 14)
Accepted flit rate average= 0.199437
	minimum = 0.184 (at node 10)
	maximum = 0.227 (at node 15)
Injected packet length average = 1
Accepted packet length average = 1
Total in-flight flits = 75 (75 measured)
latency change    = 0.0163743
throughput change = 0.0109683
Class 0:
Packet latency average = 20.4689
	minimum = 7
	maximum = 53
Network latency average = 20.4558
	minimum = 7
	maximum = 53
Slowest packet = 30480
Flit latency average = 20.4916
	minimum = 7
	maximum = 53
Slowest flit = 30480
Fragmentation average = 0
	minimum = 0
	maximum = 0
Injected packet rate average = 0.197937
	minimum = 0.1885 (at node 12)
	maximum = 0.21 (at node 15)
Accepted packet rate average = 0.198156
	minimum = 0.1805 (at node 13)
	maximum = 0.214 (at node 12)
Injected flit rate average = 0.197937
	minimum = 0.1885 (at node 12)
	maximum = 0.21 (at node 15)
Accepted flit rate average= 0.198156
	minimum = 0.1805 (at node 13)
	maximum = 0.214 (at node 12)
Injected packet length average = 1
Accepted packet length average = 1
Total in-flight flits = 64 (64 measured)
latency change    = 0.000313695
throughput change = 0.00646586
Class 0:
Packet latency average = 20.3999
	minimum = 7
	maximum = 53
Network latency average = 20.3836
	minimum = 7
	maximum = 53
Slowest packet = 30480
Flit latency average = 20.408
	minimum = 7
	maximum = 53
Slowest flit = 30480
Fragmentation average = 0
	minimum = 0
	maximum = 0
Injected packet rate average = 0.197479
	minimum = 0.188667 (at node 12)
	maximum = 0.211667 (at node 15)
Accepted packet rate average = 0.197563
	minimum = 0.183333 (at node 13)
	maximum = 0.214667 (at node 3)
Injected flit rate average = 0.197479
	minimum = 0.188667 (at node 12)
	maximum = 0.211667 (at node 15)
Accepted flit rate average= 0.197563
	minimum = 0.183333 (at node 13)
	maximum = 0.214667 (at node 3)
Injected packet length average = 1
Accepted packet length average = 1
Total in-flight flits = 67 (67 measured)
latency change    = 0.00338161
throughput change = 0.00300538
Draining all recorded packets ...
Draining remaining packets ...
Time taken is 6067 cycles
Class 0:
Packet latency average = 20.4463
	minimum = 7
	maximum = 50
Network latency average = 20.4314
	minimum = 7
	maximum = 50
Slowest packet = 39426
Flit latency average = 20.4314
	minimum = 7
	maximum = 50
Slowest flit = 39426
Fragmentation average = 0
	minimum = 0
	maximum = 0
Injected packet rate average = 0.201625
	minimum = 0.177 (at node 3)
	maximum = 0.215 (at node 14)
Accepted packet rate average = 0.197187
	minimum = 0.171 (at node 1)
	maximum = 0.229 (at node 13)
Injected flit rate average = 0.201625
	minimum = 0.177 (at node 3)
	maximum = 0.215 (at node 14)
Accepted flit rate average= 0.197187
	minimum = 0.171 (at node 1)
	maximum = 0.229 (at node 13)
Injected packet length average = 1
Accepted packet length average = 1
Total in-flight flits = 71 (0 measured)
latency change    = 1
throughput change = 1
Class 0:
Packet latency average = 20.4811
	minimum = 7
	maximum = 54
Network latency average = 20.4653
	minimum = 7
	maximum = 53
Slowest packet = 43136
Flit latency average = 20.4653
	minimum = 7
	maximum = 53
Slowest flit = 43136
Fragmentation average = 0
	minimum = 0
	maximum = 0
Injected packet rate average = 0.198281
	minimum = 0.185 (at node 10)
	maximum = 0.21 (at node 1)
Accepted packet rate average = 0.196313
	minimum = 0.1735 (at node 7)
	maximum = 0.211 (at node 5)
Injected flit rate average = 0.198281
	minimum = 0.185 (at node 10)
	maximum = 0.21 (at node 1)
Accepted flit rate average= 0.196313
	minimum = 0.1735 (at node 7)
	maximum = 0.211 (at node 5)
Injected packet length average = 1
Accepted packet length average = 1
Total in-flight flits = 63 (0 measured)
latency change    = 0.00169821
throughput change = 0.00445718
Class 0:
Packet latency average = 20.2804
	minimum = 7
	maximum = 49
Network latency average = 20.2637
	minimum = 7
	maximum = 49
Slowest packet = 47813
Flit latency average = 20.2637
	minimum = 7
	maximum = 49
Slowest flit = 47813
Fragmentation average = 0
	minimum = 0
	maximum = 0
Injected packet rate average = 0.201563
	minimum = 0.179 (at node 11)
	maximum = 0.225 (at node 13)
Accepted packet rate average = 0.20125
	minimum = 0.178 (at node 0)
	maximum = 0.231 (at node 10)
Injected flit rate average = 0.201563
	minimum = 0.179 (at node 11)
	maximum = 0.225 (at node 13)
Accepted flit rate average= 0.20125
	minimum = 0.178 (at node 0)
	maximum = 0.231 (at node 10)
Injected packet length average = 1
Accepted packet length average = 1
Total in-flight flits = 68 (0 measured)
latency change    = 0.0098924
throughput change = 0.0245342
Warmed up ...Time used is 3000 cycles
Class 0:
Packet latency average = 20.3959
	minimum = 7
	maximum = 49
Network latency average = 20.3799
	minimum = 7
	maximum = 49
Slowest packet = 48355
Flit latency average = 20.4395
	minimum = 7
	maximum = 49
Slowest flit = 48355
Fragmentation average = 0
	minimum = 0
	maximum = 0
Injected packet rate average = 0.200437
	minimum = 0.167 (at node 9)
	maximum = 0.227 (at node 3)
Accepted packet rate average = 0.2005
	minimum = 0.175 (at node 11)
	maximum = 0.223 (at node 3)
Injected flit rate average = 0.200437
	minimum = 0.167 (at node 9)
	maximum = 0.227 (at node 3)
Accepted flit rate average= 0.2005
	minimum = 0.175 (at node 11)
	maximum = 0.223 (at node 3)
Injected packet length average = 1
Accepted packet length average = 1
Total in-flight flits = 67 (67 measured)
latency change    = 0.00565924
throughput change = 0.00374065
Class 0:
Packet latency average = 20.2162
	minimum = 7
	maximum = 51
Network latency average = 20.2029
	minimum = 7
	maximum = 51
Slowest packet = 52144
Flit latency average = 20.235
	minimum = 7
	maximum = 51
Slowest flit = 52144
Fragmentation average = 0
	minimum = 0
	maximum = 0
Injected packet rate average = 0.198094
	minimum = 0.178 (at node 9)
	maximum = 0.2075 (at node 6)
Accepted packet rate average = 0.198
	minimum = 0.1865 (at node 6)
	maximum = 0.211 (at node 9)
Injected flit rate average = 0.198094
	minimum = 0.178 (at node 9)
	maximum = 0.2075 (at node 6)
Accepted flit rate average= 0.198
	minimum = 0.1865 (at node 6)
	maximum = 0.211 (at node 9)
Injected packet length average = 1
Accepted packet length average = 1
Total in-flight flits = 71 (71 measured)
latency change    = 0.00888805
throughput change = 0.0126263
Class 0:
Packet latency average = 20.2852
	minimum = 7
	maximum = 53
Network latency average = 20.272
	minimum = 7
	maximum = 53
Slowest packet = 54352
Flit latency average = 20.2928
	minimum = 7
	maximum = 53
Slowest flit = 54352
Fragmentation average = 0
	minimum = 0
	maximum = 0
Injected packet rate average = 0.198667
	minimum = 0.177 (at node 5)
	maximum = 0.211 (at node 6)
Accepted packet rate average = 0.198708
	minimum = 0.189 (at node 3)
	maximum = 0.214333 (at node 4)
Injected flit rate average = 0.198667
	minimum = 0.177 (at node 5)
	maximum = 0.211 (at node 6)
Accepted flit rate average= 0.198708
	minimum = 0.189 (at node 3)
	maximum = 0.214333 (at node 4)
Injected packet length average = 1
Accepted packet length average = 1
Total in-flight flits = 66 (66 measured)
latency change    = 0.00340342
throughput change = 0.00356469
Draining all recorded packets ...
Draining remaining packets ...
Time taken is 6068 cycles
Class 0:
Packet latency average = 20.7705
	minimum = 7
	maximum = 63
Network latency average = 20.7288
	minimum = 7
	maximum = 59
Slowest packet = 59705
Flit latency average = 20.7288
	minimum = 7
	maximum = 59
Slowest flit = 59705
Fragmentation average = 0
	minimum = 0
	maximum = 0
Injected packet rate average = 0.200625
	minimum = 0.166 (at node 0)
	maximum = 0.218 (at node 3)
Accepted packet rate average = 0.196375
	minimum = 0.171 (at node 5)
	maximum = 0.228 (at node 6)
Injected flit rate average = 0.200625
	minimum = 0.166 (at node 0)
	maximum = 0.218 (at node 3)
Accepted flit rate average= 0.196375
	minimum = 0.171 (at node 5)
	maximum = 0.228 (at node 6)
Injected packet length average = 1
Accepted packet length average = 1
Total in-flight flits = 68 (0 measured)
latency change    = 1
throughput change = 1
Class 0:
Packet latency average = 20.5307
	minimum = 7
	maximum = 63
Network latency average = 20.4949
	minimum = 7
	maximum = 59
Slowest packet = 59705
Flit latency average = 20.4949
	minimum = 7
	maximum = 59
Slowest flit = 59705
Fragmentation average = 0
	minimum = 0
	maximum = 0
Injected packet rate average = 0.198719
	minimum = 0.1835 (at node 12)
	maximum = 0.2185 (at node 7)
Accepted packet rate average = 0.196313
	minimum = 0.168 (at node 12)
	maximum = 0.215 (at node 9)
Injected flit rate average = 0.198719
	minimum = 0.1835 (at node 12)
	maximum = 0.2185 (at node 7)
Accepted flit rate average= 0.196313
	minimum = 0.168 (at node 12)
	maximum = 0.215 (at node 9)
Injected packet length average = 1
Accepted packet length average = 1
Total in-flight flits = 77 (0 measured)
latency change    = 0.0116803
throughput change = 0.00031837
Class 0:
Packet latency average = 20.2812
	minimum = 7
	maximum = 55
Network latency average = 20.2608
	minimum = 7
	maximum = 55
Slowest packet = 66164
Flit latency average = 20.2608
	minimum = 7
	maximum = 55
Slowest flit = 66164
Fragmentation average = 0
	minimum = 0
	maximum = 0
Injected packet rate average = 0.198937
	minimum = 0.187 (at node 10)
	maximum = 0.209 (at node 9)
Accepted packet rate average = 0.199375
	minimum = 0.17 (at node 9)
	maximum = 0.219 (at node 7)
Injected flit rate average = 0.198937
	minimum = 0.187 (at node 10)
	maximum = 0.209 (at node 9)
Accepted flit rate average= 0.199375
	minimum = 0.17 (at node 9)
	maximum = 0.219 (at node 7)
Injected packet length average = 1
Accepted packet length average = 1
Total in-flight flits = 70 (0 measured)
latency change    = 0.0123036
throughput change = 0.0153605
Warmed up ...Time used is 3000 cycles
Class 0:
Packet latency average = 20.4343
	minimum = 7
	maximum = 48
Network latency average = 20.4099
	minimum = 7
	maximum = 48
Slowest packet = 67315
Flit latency average = 20.4401
	minimum = 7
	maximum = 48
Slowest flit = 67315
Fragmentation average = 0
	minimum = 0
	maximum = 0
Injected packet rate average = 0.202125
	minimum = 0.179 (at node 7)
	maximum = 0.225 (at node 8)
Accepted packet rate average = 0.201813
	minimum = 0.166 (at node 4)
	maximum = 0.236 (at node 12)
Injected flit rate average = 0.202125
	minimum = 0.179 (at node 7)
	maximum = 0.225 (at node 8)
Accepted flit rate average= 0.201813
	minimum = 0.166 (at node 4)
	maximum = 0.236 (at node 12)
Injected packet length average = 1
Accepted packet length average = 1
Total in-flight flits = 75 (75 measured)
latency change    = 0.00749345
throughput change = 0.012078
Class 0:
Packet latency average = 20.6156
	minimum = 7
	maximum = 56
Network latency average = 20.5924
	minimum = 7
	maximum = 56
Slowest packet = 70860
Flit latency average = 20.6055
	minimum = 7
	maximum = 56
Slowest flit = 70860
Fragmentation average = 0
	minimum = 0
	maximum = 0
Injected packet rate average = 0.201875
	minimum = 0.1845 (at node 3)
	maximum = 0.221 (at node 8)
Accepted packet rate average = 0.202156
	minimum = 0.1785 (at node 4)
	maximum = 0.229 (at node 12)
Injected flit rate average = 0.201875
	minimum = 0.1845 (at node 3)
	maximum = 0.221 (at node 8)
Accepted flit rate average= 0.202156
	minimum = 0.1785 (at node 4)
	maximum = 0.229 (at node 12)
Injected packet length average = 1
Accepted packet length average = 1
Total in-flight flits = 61 (61 measured)
latency change    = 0.00879191
throughput change = 0.00170042
Class 0:
Packet latency average = 20.4722
	minimum = 7
	maximum = 56
Network latency average = 20.4507
	minimum = 7
	maximum = 56
Slowest packet = 70860
Flit latency average = 20.4605
	minimum = 7
	maximum = 56
Slowest flit = 70860
Fragmentation average = 0
	minimum = 0
	maximum = 0
Injected packet rate average = 0.201875
	minimum = 0.188 (at node 1)
	maximum = 0.218 (at node 8)
Accepted packet rate average = 0.201792
	minimum = 0.179333 (at node 4)
	maximum = 0.230667 (at node 12)
Injected flit rate average = 0.201875
	minimum = 0.188 (at node 1)
	maximum = 0.218 (at node 8)
Accepted flit rate average= 0.201792
	minimum = 0.179333 (at node 4)
	maximum = 0.230667 (at node 12)
Injected packet length average = 1
Accepted packet length average = 1
Total in-flight flits = 74 (74 measured)
latency change    = 0.00700125
throughput change = 0.00180673
Draining all recorded packets ...
Draining remaining packets ...
Time taken is 6074 cycles
Class 0:
Packet latency average = 20.38
	minimum = 7
	maximum = 51
Network latency average = 20.3583
	minimum = 7
	maximum = 51
Slowest packet = 78966
Flit latency average = 20.3583
	minimum = 7
	maximum = 51
Slowest flit = 78966
Fragmentation average = 0
	minimum = 0
	maximum = 0
Injected packet rate average = 0.200813
	minimum = 0.172 (at node 4)
	maximum = 0.233 (at node 11)
Accepted packet rate average = 0.196563
	minimum = 0.182 (at node 6)
	maximum = 0.213 (at node 15)
Injected flit rate average = 0.200813
	minimum = 0.172 (at node 4)
	maximum = 0.233 (at node 11)
Accepted flit rate average= 0.196563
	minimum = 0.182 (at node 6)
	maximum = 0.213 (at node 15)
Injected packet length average = 1
Accepted packet length average = 1
Total in-flight flits = 68 (0 measured)
latency change    = 1
throughput change = 1
Class 0:
Packet latency average = 20.232
	minimum = 7
	maximum = 51
Network latency average = 20.2135
	minimum = 7
	maximum = 51
Slowest packet = 78966
Flit latency average = 20.2135
	minimum = 7
	maximum = 51
Slowest flit = 78966
Fragmentation average = 0
	minimum = 0
	maximum = 0
Injected packet rate average = 0.198906
	minimum = 0.1745 (at node 3)
	maximum = 0.221 (at node 11)
Accepted packet rate average = 0.197187
	minimum = 0.1825 (at node 5)
	maximum = 0.2125 (at node 1)
Injected flit rate average = 0.198906
	minimum = 0.1745 (at node 3)
	maximum = 0.221 (at node 11)
Accepted flit rate average= 0.197187
	minimum = 0.1825 (at node 5)
	maximum = 0.2125 (at node 1)
Injected packet length average = 1
Accepted packet length average = 1
Total in-flight flits = 55 (0 measured)
latency change    = 0.00731294
throughput change = 0.00316957
Class 0:
Packet latency average = 20.2635
	minimum = 7
	maximum = 56
Network latency average = 20.2542
	minimum = 7
	maximum = 56
Slowest packet = 83917
Flit latency average = 20.2542
	minimum = 7
	maximum = 56
Slowest flit = 83917
Fragmentation average = 0
	minimum = 0
	maximum = 0
Injected packet rate average = 0.2015
	minimum = 0.176 (at node 14)
	maximum = 0.221 (at node 9)
Accepted packet rate average = 0.201625
	minimum = 0.164 (at node 3)
	maximum = 0.224 (at node 13)
Injected flit rate average = 0.2015
	minimum = 0.176 (at node 14)
	maximum = 0.221 (at node 9)
Accepted flit rate average= 0.201625
	minimum = 0.164 (at node 3)
	maximum = 0.224 (at node 13)
Injected packet length average = 1
Accepted packet length average = 1
Total in-flight flits = 53 (0 measured)
latency change    = 0.00155311
throughput change = 0.0220087
Warmed up ...Time used is 3000 cycles
Class 0:
Packet latency average = 20.5063
	minimum = 7
	maximum = 45
Network latency average = 20.4871
	minimum = 7
	maximum = 45
Slowest packet = 87330
Flit latency average = 20.5514
	minimum = 7
	maximum = 45
Slowest flit = 87330
Fragmentation average = 0
	minimum = 0
	maximum = 0
Injected packet rate average = 0.20325
	minimum = 0.179 (at node 5)
	maximum = 0.242 (at node 12)
Accepted packet rate average = 0.202563
	minimum = 0.185 (at node 3)
	maximum = 0.239 (at node 10)
Injected flit rate average = 0.20325
	minimum = 0.179 (at node 5)
	maximum = 0.242 (at node 12)
Accepted flit rate average= 0.202563
	minimum = 0.185 (at node 3)
	maximum = 0.239 (at node 10)
Injected packet length average = 1
Accepted packet length average = 1
Total in-flight flits = 64 (64 measured)
latency change    = 0.0118398
throughput change = 0.0046282
Class 0:
Packet latency average = 20.4375
	minimum = 7
	maximum = 53
Network latency average = 20.4208
	minimum = 7
	maximum = 53
Slowest packet = 92444
Flit latency average = 20.4538
	minimum = 7
	maximum = 53
Slowest flit = 92444
Fragmentation average = 0
	minimum = 0
	maximum = 0
Injected packet rate average = 0.200937
	minimum = 0.188 (at node 5)
	maximum = 0.2295 (at node 12)
Accepted packet rate average = 0.200594
	minimum = 0.18 (at node 4)
	maximum = 0.2225 (at node 5)
Injected flit rate average = 0.200937
	minimum = 0.188 (at node 5)
	maximum = 0.2295 (at node 12)
Accepted flit rate average= 0.200594
	minimum = 0.18 (at node 4)
	maximum = 0.2225 (at node 5)
Injected packet length average = 1
Accepted packet length average = 1
Total in-flight flits = 64 (64 measured)
latency change    = 0.00336603
throughput change = 0.00981461
Class 0:
Packet latency average = 20.4826
	minimum = 7
	maximum = 54
Network latency average = 20.4678
	minimum = 7
	maximum = 54
Slowest packet = 93616
Flit latency average = 20.4895
	minimum = 7
	maximum = 54
Slowest flit = 93616
Fragmentation average = 0
	minimum = 0
	maximum = 0
Injected packet rate average = 0.201125
	minimum = 0.190333 (at node 7)
	maximum = 0.223667 (at node 12)
Accepted packet rate average = 0.200875
	minimum = 0.187333 (at node 3)
	maximum = 0.213333 (at node 5)
Injected flit rate average = 0.201125
	minimum = 0.190333 (at node 7)
	maximum = 0.223667 (at node 12)
Accepted flit rate average= 0.200875
	minimum = 0.187333 (at node 3)
	maximum = 0.213333 (at node 5)
Injected packet length average = 1
Accepted packet length average = 1
Total in-flight flits = 65 (65 measured)
latency change    = 0.0022046
throughput change = 0.00140012
Draining all recorded packets ...
Draining remaining packets ...
Time taken is 6069 cycles
Class 0:
Packet latency average = 20.4109
	minimum = 7
	maximum = 60
Network latency average = 20.3785
	minimum = 7
	maximum = 56
Slowest packet = 97511
Flit latency average = 20.3785
	minimum = 7
	maximum = 56
Slowest flit = 97511
Fragmentation average = 0
	minimum = 0
	maximum = 0
Injected packet rate average = 0.201063
	minimum = 0.181 (at node 8)
	maximum = 0.227 (at node 5)
Accepted packet rate average = 0.197
	minimum = 0.175 (at node 0)
	maximum = 0.222 (at node 12)
Injected flit rate average = 0.201063
	minimum = 0.181 (at node 8)
	maximum = 0.227 (at node 5)
Accepted flit rate average= 0.197
	minimum = 0.175 (at node 0)
	maximum = 0.222 (at node 12)
Injected packet length average = 1
Accepted packet length average = 1
Total in-flight flits = 65 (0 measured)
latency change    = 1
throughput change = 1
Class 0:
Packet latency average = 20.5266
	minimum = 7
	maximum = 60
Network latency average = 20.4764
	minimum = 7
	maximum = 56
Slowest packet = 97511
Flit latency average = 20.4764
	minimum = 7
	maximum = 56
Slowest flit = 97511
Fragmentation average = 0
	minimum = 0
	maximum = 0
Injected packet rate average = 0.200937
	minimum = 0.188 (at node 8)
	maximum = 0.2145 (at node 2)
Accepted packet rate average = 0.199156
	minimum = 0.1815 (at node 5)
	maximum = 0.2175 (at node 9)
Injected flit rate average = 0.200937
	minimum = 0.188 (at node 8)
	maximum = 0.2145 (at node 2)
Accepted flit rate average= 0.199156
	minimum = 0.1815 (at node 5)
	maximum = 0.2175 (at node 9)
Injected packet length average = 1
Accepted packet length average = 1
Total in-flight flits = 57 (0 measured)
latency change    = 0.00563885
throughput change = 0.0108269
Class 0:
Packet latency average = 20.2455
	minimum = 7
	maximum = 59
Network latency average = 20.2373
	minimum = 7
	maximum = 59
Slowest packet = 102818
Flit latency average = 20.2373
	minimum = 7
	maximum = 59
Slowest flit = 102818
Fragmentation average = 0
	minimum = 0
	maximum = 0
Injected packet rate average = 0.198437
	minimum = 0.158 (at node 3)
	maximum = 0.229 (at node 12)
Accepted packet rate average = 0.197813
	minimum = 0.184 (at node 7)
	maximum = 0.225 (at node 12)
Injected flit rate average = 0.198437
	minimum = 0.158 (at node 3)
	maximum = 0.229 (at node 12)
Accepted flit rate average= 0.197813
	minimum = 0.184 (at node 7)
	maximum = 0.225 (at node 12)
Injected packet length average = 1
Accepted packet length average = 1
Total in-flight flits = 67 (0 measured)
latency change    = 0.0138845
throughput change = 0.00679305
Warmed up ...Time used is 3000 cycles
Class 0:
Packet latency average = 20.3691
	minimum = 7
	maximum = 60
Network latency average = 20.3553
	minimum = 7
	maximum = 60
Slowest packet = 108755
Flit latency average = 20.3908
	minimum = 7
	maximum = 60
Slowest flit = 108755
Fragmentation average = 0
	minimum = 0
	maximum = 0
Injected packet rate average = 0.199125
	minimum = 0.18 (at node 8)
	maximum = 0.224 (at node 9)
Accepted packet rate average = 0.198937
	minimum = 0.18 (at node 0)
	maximum = 0.232 (at node 10)
Injected flit rate average = 0.199125
	minimum = 0.18 (at node 8)
	maximum = 0.224 (at node 9)
Accepted flit rate average= 0.198937
	minimum = 0.18 (at node 0)
	maximum = 0.232 (at node 10)
Injected packet length average = 1
Accepted packet length average = 1
Total in-flight flits = 70 (70 measured)
latency change    = 0.00606632
throughput change = 0.00565504
Class 0:
Packet latency average = 20.573
	minimum = 7
	maximum = 60
Network latency average = 20.5549
	minimum = 7
	maximum = 60
Slowest packet = 108755
Flit latency average = 20.5703
	minimum = 7
	maximum = 60
Slowest flit = 108755
Fragmentation average = 0
	minimum = 0
	maximum = 0
Injected packet rate average = 0.201969
	minimum = 0.184 (at node 10)
	maximum = 0.2305 (at node 9)
Accepted packet rate average = 0.202031
	minimum = 0.187 (at node 4)
	maximum = 0.2125 (at node 3)
Injected flit rate average = 0.201969
	minimum = 0.184 (at node 10)
	maximum = 0.2305 (at node 9)
Accepted flit rate average= 0.202031
	minimum = 0.187 (at node 4)
	maximum = 0.2125 (at node 3)
Injected packet length average = 1
Accepted packet length average = 1
Total in-flight flits = 65 (65 measured)
latency change    = 0.00991245
throughput change = 0.0153132
Class 0:
Packet latency average = 20.6135
	minimum = 7
	maximum = 60
Network latency average = 20.5815
	minimum = 7
	maximum = 60
Slowest packet = 108755
Flit latency average = 20.5916
	minimum = 7
	maximum = 60
Slowest flit = 108755
Fragmentation average = 0
	minimum = 0
	maximum = 0
Injected packet rate average = 0.201354
	minimum = 0.189333 (at node 3)
	maximum = 0.223 (at node 9)
Accepted packet rate average = 0.201458
	minimum = 0.182333 (at node 6)
	maximum = 0.214667 (at node 3)
Injected flit rate average = 0.201354
	minimum = 0.189333 (at node 3)
	maximum = 0.223 (at node 9)
Accepted flit rate average= 0.201458
	minimum = 0.182333 (at node 6)
	maximum = 0.214667 (at node 3)
Injected packet length average = 1
Accepted packet length average = 1
Total in-flight flits = 62 (62 measured)
latency change    = 0.00196292
throughput change = 0.00284385
Draining all recorded packets ...
Draining remaining packets ...
Time taken is 6058 cycles
Class 0:
Packet latency average = 20.245
	minimum = 7
	maximum = 52
Network latency average = 20.2276
	minimum = 7
	maximum = 52
Slowest packet = 117301
Flit latency average = 20.2276
	minimum = 7
	maximum = 52
Slowest flit = 117301
Fragmentation average = 0
	minimum = 0
	maximum = 0
Injected packet rate average = 0.197125
	minimum = 0.173 (at node 9)
	maximum = 0.22 (at node 15)
Accepted packet rate average = 0.193625
	minimum = 0.177 (at node 14)
	maximum = 0.224 (at node 3)
Injected flit rate average = 0.197125
	minimum = 0.173 (at node 9)
	maximum = 0.22 (at node 15)
Accepted flit rate average= 0.193625
	minimum = 0.177 (at node 14)
	maximum = 0.224 (at node 3)
Injected packet length average = 1
Accepted packet length average = 1
Total in-flight flits = 56 (0 measured)
latency change    = 1
throughput change = 1
Class 0:
Packet latency average = 20.5087
	minimum = 7
	maximum = 58
Network latency average = 20.4859
	minimum = 7
	maximum = 58
Slowest packet = 120043
Flit latency average = 20.4859
	minimum = 7
	maximum = 58
Slowest flit = 120043
Fragmentation average = 0
	minimum = 0
	maximum = 0
Injected packet rate average = 0.200844
	minimum = 0.185 (at node 9)
	maximum = 0.216 (at node 5)
Accepted packet rate average = 0.198719
	minimum = 0.1875 (at node 15)
	maximum = 0.217 (at node 3)
Injected flit rate average = 0.200844
	minimum = 0.185 (at node 9)
	maximum = 0.216 (at node 5)
Accepted flit rate average= 0.198719
	minimum = 0.1875 (at node 15)
	maximum = 0.217 (at node 3)
Injected packet length average = 1
Accepted packet length average = 1
Total in-flight flits = 68 (0 measured)
latency change    = 0.0128595
throughput change = 0.025633
Class 0:
Packet latency average = 20.6225
	minimum = 7
	maximum = 51
Network latency average = 20.5967
	minimum = 7
	maximum = 51
Slowest packet = 123399
Flit latency average = 20.5967
	minimum = 7
	maximum = 51
Slowest flit = 123399
Fragmentation average = 0
	minimum = 0
	maximum = 0
Injected packet rate average = 0.203125
	minimum = 0.187 (at node 13)
	maximum = 0.233 (at node 6)
Accepted packet rate average = 0.203625
	minimum = 0.157 (at node 15)
	maximum = 0.231 (at node 13)
Injected flit rate average = 0.203125
	minimum = 0.187 (at node 13)
	maximum = 0.233 (at node 6)
Accepted flit rate average= 0.203625
	minimum = 0.157 (at node 15)
	maximum = 0.231 (at node 13)
Injected packet length average = 1
Accepted packet length average = 1
Total in-flight flits = 60 (0 measured)
latency change    = 0.00551534
throughput change = 0.0240945
Warmed up ...Time used is 3000 cycles
Class 0:
Packet latency average = 20.1499
	minimum = 7
	maximum = 48
Network latency average = 20.1332
	minimum = 7
	maximum = 48
Slowest packet = 126364
Flit latency average = 20.1877
	minimum = 7
	maximum = 48
Slowest flit = 126364
Fragmentation average = 0
	minimum = 0
	maximum = 0
Injected packet rate average = 0.195188
	minimum = 0.18 (at node 6)
	maximum = 0.215 (at node 1)
Accepted packet rate average = 0.195125
	minimum = 0.167 (at node 2)
	maximum = 0.208 (at node 12)
Injected flit rate average = 0.195188
	minimum = 0.18 (at node 6)
	maximum = 0.215 (at node 1)
Accepted flit rate average= 0.195125
	minimum = 0.167 (at node 2)
	maximum = 0.208 (at node 12)
Injected packet length average = 1
Accepted packet length average = 1
Total in-flight flits = 61 (61 measured)
latency change    = 0.0234525
throughput change = 0.0435618
Class 0:
Packet latency average = 20.1307
	minimum = 7
	maximum = 55
Network latency average = 20.1147
	minimum = 7
	maximum = 55
Slowest packet = 129771
Flit latency average = 20.142
	minimum = 7
	maximum = 55
Slowest flit = 129771
Fragmentation average = 0
	minimum = 0
	maximum = 0
Injected packet rate average = 0.196531
	minimum = 0.1805 (at node 13)
	maximum = 0.214 (at node 4)
Accepted packet rate average = 0.196063
	minimum = 0.177 (at node 2)
	maximum = 0.21 (at node 13)
Injected flit rate average = 0.196531
	minimum = 0.1805 (at node 13)
	maximum = 0.214 (at node 4)
Accepted flit rate average= 0.196063
	minimum = 0.177 (at node 2)
	maximum = 0.21 (at node 13)
Injected packet length average = 1
Accepted packet length average = 1
Total in-flight flits = 75 (75 measured)
latency change    = 0.000955226
throughput change = 0.00478164
Class 0:
Packet latency average = 20.2498
	minimum = 7
	maximum = 57
Network latency average = 20.2351
	minimum = 7
	maximum = 57
Slowest packet = 134208
Flit latency average = 20.2524
	minimum = 7
	maximum = 57
Slowest flit = 134208
Fragmentation average = 0
	minimum = 0
	maximum = 0
Injected packet rate average = 0.197625
	minimum = 0.188 (at node 7)
	maximum = 0.212333 (at node 4)
Accepted packet rate average = 0.197625
	minimum = 0.188 (at node 2)
	maximum = 0.207 (at node 13)
Injected flit rate average = 0.197625
	minimum = 0.188 (at node 7)
	maximum = 0.212333 (at node 4)
Accepted flit rate average= 0.197625
	minimum = 0.188 (at node 2)
	maximum = 0.207 (at node 13)
Injected packet length average = 1
Accepted packet length average = 1
Total in-flight flits = 60 (60 measured)
latency change    = 0.0058849
throughput change = 0.00790639
Draining all recorded packets ...
Draining remaining packets ...
Time taken is 6065 cycles
Class 0:
Packet latency average = 20.2197
	minimum = 7
	maximum = 50
Network latency average = 20.2088
	minimum = 7
	maximum = 50
Slowest packet = 135609
Flit latency average = 20.2088
	minimum = 7
	maximum = 50
Slowest flit = 135609
Fragmentation average = 0
	minimum = 0
	maximum = 0
Injected packet rate average = 0.199313
	minimum = 0.184 (at node 14)
	maximum = 0.216 (at node 10)
Accepted packet rate average = 0.195125
	minimum = 0.174 (at node 10)
	maximum = 0.212 (at node 12)
Injected flit rate average = 0.199313
	minimum = 0.184 (at node 14)
	maximum = 0.216 (at node 10)
Accepted flit rate average= 0.195125
	minimum = 0.174 (at node 10)
	maximum = 0.212 (at node 12)
Injected packet length average = 1
Accepted packet length average = 1
Total in-flight flits = 67 (0 measured)
latency change    = 1
throughput change = 1
Class 0:
Packet latency average = 20.307
	minimum = 7
	maximum = 52
Network latency average = 20.2916
	minimum = 7
	maximum = 52
Slowest packet = 138778
Flit latency average = 20.2916
	minimum = 7
	maximum = 52
Slowest flit = 138778
Fragmentation average = 0
	minimum = 0
	maximum = 0
Injected packet rate average = 0.198719
	minimum = 0.1885 (at node 14)
	maximum = 0.2095 (at node 10)
Accepted packet rate average = 0.19675
	minimum = 0.179 (at node 10)
	maximum = 0.215 (at node 12)
Injected flit rate average = 0.198719
	minimum = 0.1885 (at node 14)
	maximum = 0.2095 (at node 10)
Accepted flit rate average= 0.19675
	minimum = 0.179 (at node 10)
	maximum = 0.215 (at node 12)
Injected packet length average = 1
Accepted packet length average = 1
Total in-flight flits = 63 (0 measured)
latency change    = 0.00429848
throughput change = 0.00825921
Class 0:
Packet latency average = 20.3596
	minimum = 7
	maximum = 52
Network latency average = 20.3369
	minimum = 7
	maximum = 52
Slowest packet = 144030
Flit latency average = 20.3369
	minimum = 7
	maximum = 52
Slowest flit = 144030
Fragmentation average = 0
	minimum = 0
	maximum = 0
Injected packet rate average = 0.199063
	minimum = 0.175 (at node 9)
	maximum = 0.225 (at node 1)
Accepted packet rate average = 0.198313
	minimum = 0.164 (at node 10)
	maximum = 0.232 (at node 2)
Injected flit rate average = 0.199063
	minimum = 0.175 (at node 9)
	maximum = 0.225 (at node 1)
Accepted flit rate average= 0.198313
	minimum = 0.164 (at node 10)
	maximum = 0.232 (at node 2)
Injected packet length average = 1
Accepted packet length average = 1
Total in-flight flits = 75 (0 measured)
latency change    = 0.00258238
throughput change = 0.00787898
Warmed up ...Time used is 3000 cycles
Class 0:
Packet latency average = 20.3167
	minimum = 7
	maximum = 45
Network latency average = 20.3013
	minimum = 7
	maximum = 45
Slowest packet = 147278
Flit latency average = 20.3992
	minimum = 7
	maximum = 45
Slowest flit = 147278
Fragmentation average = 0
	minimum = 0
	maximum = 0
Injected packet rate average = 0.203687
	minimum = 0.183 (at node 11)
	maximum = 0.217 (at node 9)
Accepted packet rate average = 0.204
	minimum = 0.171 (at node 15)
	maximum = 0.235 (at node 12)
Injected flit rate average = 0.203687
	minimum = 0.183 (at node 11)
	maximum = 0.217 (at node 9)
Accepted flit rate average= 0.204
	minimum = 0.171 (at node 15)
	maximum = 0.235 (at node 12)
Injected packet length average = 1
Accepted packet length average = 1
Total in-flight flits = 70 (70 measured)
latency change    = 0.00211072
throughput change = 0.0278799
Class 0:
Packet latency average = 20.2241
	minimum = 7
	maximum = 46
Network latency average = 20.2106
	minimum = 7
	maximum = 46
Slowest packet = 147941
Flit latency average = 20.2612
	minimum = 7
	maximum = 46
Slowest flit = 147941
Fragmentation average = 0
	minimum = 0
	maximum = 0
Injected packet rate average = 0.200656
	minimum = 0.1775 (at node 11)
	maximum = 0.2145 (at node 0)
Accepted packet rate average = 0.201219
	minimum = 0.1785 (at node 15)
	maximum = 0.2155 (at node 4)
Injected flit rate average = 0.200656
	minimum = 0.1775 (at node 11)
	maximum = 0.2145 (at node 0)
Accepted flit rate average= 0.201219
	minimum = 0.1785 (at node 15)
	maximum = 0.2155 (at node 4)
Injected packet length average = 1
Accepted packet length average = 1
Total in-flight flits = 57 (57 measured)
latency change    = 0.00458072
throughput change = 0.013822
Class 0:
Packet latency average = 20.3312
	minimum = 7
	maximum = 49
Network latency average = 20.3172
	minimum = 7
	maximum = 49
Slowest packet = 152172
Flit latency average = 20.35
	minimum = 7
	maximum = 49
Slowest flit = 152172
Fragmentation average = 0
	minimum = 0
	maximum = 0
Injected packet rate average = 0.201729
	minimum = 0.182333 (at node 11)
	maximum = 0.211667 (at node 6)
Accepted packet rate average = 0.202063
	minimum = 0.19 (at node 15)
	maximum = 0.216 (at node 4)
Injected flit rate average = 0.201729
	minimum = 0.182333 (at node 11)
	maximum = 0.211667 (at node 6)
Accepted flit rate average= 0.202063
	minimum = 0.19 (at node 15)
	maximum = 0.216 (at node 4)
Injected packet length average = 1
Accepted packet length average = 1
Total in-flight flits = 59 (59 measured)
latency change    = 0.00526671
throughput change = 0.00417569
Draining all recorded packets ...
Draining remaining packets ...
Time taken is 6066 cycles
Class 0:
Packet latency average = 19.9375
	minimum = 7
	maximum = 50
Network latency average = 19.9332
	minimum = 7
	maximum = 50
Slowest packet = 155260
Flit latency average = 19.9332
	minimum = 7
	maximum = 50
Slowest flit = 155260
Fragmentation average = 0
	minimum = 0
	maximum = 0
Injected packet rate average = 0.193062
	minimum = 0.176 (at node 13)
	maximum = 0.21 (at node 11)
Accepted packet rate average = 0.188125
	minimum = 0.171 (at node 6)
	maximum = 0.217 (at node 0)
Injected flit rate average = 0.193062
	minimum = 0.176 (at node 13)
	maximum = 0.21 (at node 11)
Accepted flit rate average= 0.188125
	minimum = 0.171 (at node 6)
	maximum = 0.217 (at node 0)
Injected packet length average = 1
Accepted packet length average = 1
Total in-flight flits = 79 (0 measured)
latency change    = 1
throughput change = 1
Class 0:
Packet latency average = 20.1198
	minimum = 7
	maximum = 50
Network latency average = 20.1116
	minimum = 7
	maximum = 50
Slowest packet = 155260
Flit latency average = 20.1116
	minimum = 7
	maximum = 50
Slowest flit = 155260
Fragmentation average = 0
	minimum = 0
	maximum = 0
Injected packet rate average = 0.197656
	minimum = 0.1805 (at node 10)
	maximum = 0.2115 (at node 11)
Accepted packet rate average = 0.195437
	minimum = 0.18 (at node 11)
	maximum = 0.2195 (at node 0)
Injected flit rate average = 0.197656
	minimum = 0.1805 (at node 10)
	maximum = 0.2115 (at node 11)
Accepted flit rate average= 0.195437
	minimum = 0.18 (at node 11)
	maximum = 0.2195 (at node 0)
Injected packet length average = 1
Accepted packet length average = 1
Total in-flight flits = 71 (0 measured)
latency change    = 0.00905686
throughput change = 0.0374161
Class 0:
Packet latency average = 20.5224
	minimum = 7
	maximum = 45
Network latency average = 20.4965
	minimum = 7
	maximum = 45
Slowest packet = 161301
Flit latency average = 20.4965
	minimum = 7
	maximum = 45
Slowest flit = 161301
Fragmentation average = 0
	minimum = 0
	maximum = 0
Injected packet rate average = 0.205813
	minimum = 0.182 (at node 9)
	maximum = 0.225 (at node 5)
Accepted packet rate average = 0.205313
	minimum = 0.176 (at node 12)
	maximum = 0.228 (at node 1)
Injected flit rate average = 0.205813
	minimum = 0.182 (at node 9)
	maximum = 0.225 (at node 5)
Accepted flit rate average= 0.205313
	minimum = 0.176 (at node 12)
	maximum = 0.228 (at node 1)
Injected packet length average = 1
Accepted packet length average = 1
Total in-flight flits = 79 (0 measured)
latency change    = 0.0196182
throughput change = 0.0480974
Warmed up ...Time used is 3000 cycles
Class 0:
Packet latency average = 20.308
	minimum = 7
	maximum = 56
Network latency average = 20.2888
	minimum = 7
	maximum = 56
Slowest packet = 166110
Flit latency average = 20.3402
	minimum = 7
	maximum = 56
Slowest flit = 166110
Fragmentation average = 0
	minimum = 0
	maximum = 0
Injected packet rate average = 0.196437
	minimum = 0.175 (at node 8)
	maximum = 0.212 (at node 2)
Accepted packet rate average = 0.197125
	minimum = 0.167 (at node 7)
	maximum = 0.234 (at node 15)
Injected flit rate average = 0.196437
	minimum = 0.175 (at node 8)
	maximum = 0.212 (at node 2)
Accepted flit rate average= 0.197125
	minimum = 0.167 (at node 7)
	maximum = 0.234 (at node 15)
Injected packet length average = 1
Accepted packet length average = 1
Total in-flight flits = 68 (68 measured)
latency change    = 0.0105578
throughput change = 0.0415346
Class 0:
Packet latency average = 20.3079
	minimum = 7
	maximum = 56
Network latency average = 20.2865
	minimum = 7
	maximum = 56
Slowest packet = 166110
Flit latency average = 20.3123
	minimum = 7
	maximum = 56
Slowest flit = 166110
Fragmentation average = 0
	minimum = 0
	maximum = 0
Injected packet rate average = 0.196031
	minimum = 0.1745 (at node 11)
	maximum = 0.2145 (at node 2)
Accepted packet rate average = 0.19675
	minimum = 0.175 (at node 7)
	maximum = 0.2275 (at node 9)
Injected flit rate average = 0.196031
	minimum = 0.1745 (at node 11)
	maximum = 0.2145 (at node 2)
Accepted flit rate average= 0.19675
	minimum = 0.175 (at node 7)
	maximum = 0.2275 (at node 9)
Injected packet length average = 1
Accepted packet length average = 1
Total in-flight flits = 56 (56 measured)
latency change    = 5.02021e-06
throughput change = 0.00190597
Class 0:
Packet latency average = 20.4357
	minimum = 7
	maximum = 56
Network latency average = 20.4129
	minimum = 7
	maximum = 56
Slowest packet = 166110
Flit latency average = 20.4289
	minimum = 7
	maximum = 56
Slowest flit = 166110
Fragmentation average = 0
	minimum = 0
	maximum = 0
Injected packet rate average = 0.197625
	minimum = 0.179333 (at node 11)
	maximum = 0.216 (at node 2)
Accepted packet rate average = 0.198208
	minimum = 0.185667 (at node 12)
	maximum = 0.212667 (at node 9)
Injected flit rate average = 0.197625
	minimum = 0.179333 (at node 11)
	maximum = 0.216 (at node 2)
Accepted flit rate average= 0.198208
	minimum = 0.185667 (at node 12)
	maximum = 0.212667 (at node 9)
Injected packet length average = 1
Accepted packet length average = 1
Total in-flight flits = 51 (51 measured)
latency change    = 0.00625633
throughput change = 0.00735758
Draining all recorded packets ...
Draining remaining packets ...
Time taken is 6062 cycles
Class 0:
Packet latency average = 20.5229
	minimum = 7
	maximum = 69
Network latency average = 20.4894
	minimum = 7
	maximum = 69
Slowest packet = 175806
Flit latency average = 20.4894
	minimum = 7
	maximum = 69
Slowest flit = 175806
Fragmentation average = 0
	minimum = 0
	maximum = 0
Injected packet rate average = 0.201563
	minimum = 0.183 (at node 4)
	maximum = 0.232 (at node 8)
Accepted packet rate average = 0.197813
	minimum = 0.18 (at node 4)
	maximum = 0.222 (at node 6)
Injected flit rate average = 0.201563
	minimum = 0.183 (at node 4)
	maximum = 0.232 (at node 8)
Accepted flit rate average= 0.197813
	minimum = 0.18 (at node 4)
	maximum = 0.222 (at node 6)
Injected packet length average = 1
Accepted packet length average = 1
Total in-flight flits = 60 (0 measured)
latency change    = 1
throughput change = 1
Class 0:
Packet latency average = 20.4225
	minimum = 7
	maximum = 69
Network latency average = 20.4005
	minimum = 7
	maximum = 69
Slowest packet = 175806
Flit latency average = 20.4005
	minimum = 7
	maximum = 69
Slowest flit = 175806
Fragmentation average = 0
	minimum = 0
	maximum = 0
Injected packet rate average = 0.201
	minimum = 0.185 (at node 0)
	maximum = 0.215 (at node 15)
Accepted packet rate average = 0.198875
	minimum = 0.1815 (at node 13)
	maximum = 0.219 (at node 6)
Injected flit rate average = 0.201
	minimum = 0.185 (at node 0)
	maximum = 0.215 (at node 15)
Accepted flit rate average= 0.198875
	minimum = 0.1815 (at node 13)
	maximum = 0.219 (at node 6)
Injected packet length average = 1
Accepted packet length average = 1
Total in-flight flits = 68 (0 measured)
latency change    = 0.00491486
throughput change = 0.00534255
Class 0:
Packet latency average = 20.6314
	minimum = 7
	maximum = 56
Network latency average = 20.622
	minimum = 7
	maximum = 55
Slowest packet = 181325
Flit latency average = 20.622
	minimum = 7
	maximum = 55
Slowest flit = 181325
Fragmentation average = 0
	minimum = 0
	maximum = 0
Injected packet rate average = 0.199813
	minimum = 0.18 (at node 14)
	maximum = 0.223 (at node 15)
Accepted packet rate average = 0.20025
	minimum = 0.18 (at node 10)
	maximum = 0.22 (at node 9)
Injected flit rate average = 0.199813
	minimum = 0.18 (at node 14)
	maximum = 0.223 (at node 15)
Accepted flit rate average= 0.20025
	minimum = 0.18 (at node 10)
	maximum = 0.22 (at node 9)
Injected packet length average = 1
Accepted packet length average = 1
Total in-flight flits = 61 (0 measured)
latency change    = 0.0101237
throughput change = 0.00686642
Warmed up ...Time used is 3000 cycles
Class 0:
Packet latency average = 20.297
	minimum = 7
	maximum = 53
Network latency average = 20.2822
	minimum = 7
	maximum = 53
Slowest packet = 185681
Flit latency average = 20.3372
	minimum = 7
	maximum = 53
Slowest flit = 185681
Fragmentation average = 0
	minimum = 0
	maximum = 0
Injected packet rate average = 0.198937
	minimum = 0.175 (at node 11)
	maximum = 0.214 (at node 12)
Accepted packet rate average = 0.1985
	minimum = 0.18 (at node 0)
	maximum = 0.215 (at node 6)
Injected flit rate average = 0.198937
	minimum = 0.175 (at node 11)
	maximum = 0.214 (at node 12)
Accepted flit rate average= 0.1985
	minimum = 0.18 (at node 0)
	maximum = 0.215 (at node 6)
Injected packet length average = 1
Accepted packet length average = 1
Total in-flight flits = 68 (68 measured)
latency change    = 0.0164777
throughput change = 0.00881612
Class 0:
Packet latency average = 20.5024
	minimum = 7
	maximum = 68
Network latency average = 20.4856
	minimum = 7
	maximum = 68
Slowest packet = 187585
Flit latency average = 20.5109
	minimum = 7
	maximum = 68
Slowest flit = 187585
Fragmentation average = 0
	minimum = 0
	maximum = 0
Injected packet rate average = 0.200187
	minimum = 0.1855 (at node 11)
	maximum = 0.2115 (at node 4)
Accepted packet rate average = 0.200375
	minimum = 0.1815 (at node 7)
	maximum = 0.2125 (at node 14)
Injected flit rate average = 0.200187
	minimum = 0.1855 (at node 11)
	maximum = 0.2115 (at node 4)
Accepted flit rate average= 0.200375
	minimum = 0.1815 (at node 7)
	maximum = 0.2125 (at node 14)
Injected packet length average = 1
Accepted packet length average = 1
Total in-flight flits = 55 (55 measured)
latency change    = 0.0100227
throughput change = 0.00935745
Class 0:
Packet latency average = 20.3805
	minimum = 7
	maximum = 68
Network latency average = 20.3652
	minimum = 7
	maximum = 68
Slowest packet = 187585
Flit latency average = 20.3828
	minimum = 7
	maximum = 68
Slowest flit = 187585
Fragmentation average = 0
	minimum = 0
	maximum = 0
Injected packet rate average = 0.200833
	minimum = 0.185 (at node 15)
	maximum = 0.209 (at node 6)
Accepted packet rate average = 0.200854
	minimum = 0.184667 (at node 7)
	maximum = 0.215 (at node 11)
Injected flit rate average = 0.200833
	minimum = 0.185 (at node 15)
	maximum = 0.209 (at node 6)
Accepted flit rate average= 0.200854
	minimum = 0.184667 (at node 7)
	maximum = 0.215 (at node 11)
Injected packet length average = 1
Accepted packet length average = 1
Total in-flight flits = 60 (60 measured)
latency change    = 0.00598418
throughput change = 0.00238564
Draining all recorded packets ...
Draining remaining packets ...
Time taken is 6068 cycles
Class 0:
Packet latency average = 20.1936
	minimum = 7
	maximum = 57
Network latency average = 20.174
	minimum = 7
	maximum = 57
Slowest packet = 195311
Flit latency average = 20.174
	minimum = 7
	maximum = 57
Slowest flit = 195311
Fragmentation average = 0
	minimum = 0
	maximum = 0
Injected packet rate average = 0.20475
	minimum = 0.181 (at node 15)
	maximum = 0.222 (at node 7)
Accepted packet rate average = 0.200813
	minimum = 0.18 (at node 4)
	maximum = 0.229 (at node 1)
Injected flit rate average = 0.20475
	minimum = 0.181 (at node 15)
	maximum = 0.222 (at node 7)
Accepted flit rate average= 0.200813
	minimum = 0.18 (at node 4)
	maximum = 0.229 (at node 1)
Injected packet length average = 1
Accepted packet length average = 1
Total in-flight flits = 63 (0 measured)
latency change    = 1
throughput change = 1
Class 0:
Packet latency average = 20.481
	minimum = 7
	maximum = 63
Network latency average = 20.4518
	minimum = 7
	maximum = 63
Slowest packet = 196528
Flit latency average = 20.4518
	minimum = 7
	maximum = 63
Slowest flit = 196528
Fragmentation average = 0
	minimum = 0
	maximum = 0
Injected packet rate average = 0.202687
	minimum = 0.1915 (at node 11)
	maximum = 0.219 (at node 4)
Accepted packet rate average = 0.201
	minimum = 0.1845 (at node 0)
	maximum = 0.23 (at node 1)
Injected flit rate average = 0.202687
	minimum = 0.1915 (at node 11)
	maximum = 0.219 (at node 4)
Accepted flit rate average= 0.201
	minimum = 0.1845 (at node 0)
	maximum = 0.23 (at node 1)
Injected packet length average = 1
Accepted packet length average = 1
Total in-flight flits = 54 (0 measured)
latency change    = 0.0140346
throughput change = 0.000932836
Class 0:
Packet latency average = 20.3396
	minimum = 7
	maximum = 50
Network latency average = 20.3087
	minimum = 7
	maximum = 50
Slowest packet = 200835
Flit latency average = 20.3087
	minimum = 7
	maximum = 50
Slowest flit = 200835
Fragmentation average = 0
	minimum = 0
	maximum = 0
Injected packet rate average = 0.200937
	minimum = 0.185 (at node 2)
	maximum = 0.223 (at node 7)
Accepted packet rate average = 0.20025
	minimum = 0.164 (at node 11)
	maximum = 0.224 (at node 1)
Injected flit rate average = 0.200937
	minimum = 0.185 (at node 2)
	maximum = 0.223 (at node 7)
Accepted flit rate average= 0.20025
	minimum = 0.164 (at node 11)
	maximum = 0.224 (at node 1)
Injected packet length average = 1
Accepted packet length average = 1
Total in-flight flits = 65 (0 measured)
latency change    = 0.00695476
throughput change = 0.00374532
Warmed up ...Time used is 3000 cycles
Class 0:
Packet latency average = 20.4779
	minimum = 7
	maximum = 66
Network latency average = 20.4547
	minimum = 7
	maximum = 66
Slowest packet = 205490
Flit latency average = 20.4869
	minimum = 7
	maximum = 66
Slowest flit = 205490
Fragmentation average = 0
	minimum = 0
	maximum = 0
Injected packet rate average = 0.201687
	minimum = 0.184 (at node 2)
	maximum = 0.225 (at node 14)
Accepted packet rate average = 0.20075
	minimum = 0.171 (at node 4)
	maximum = 0.238 (at node 12)
Injected flit rate average = 0.201687
	minimum = 0.184 (at node 2)
	maximum = 0.225 (at node 14)
Accepted flit rate average= 0.20075
	minimum = 0.171 (at node 4)
	maximum = 0.238 (at node 12)
Injected packet length average = 1
Accepted packet length average = 1
Total in-flight flits = 80 (80 measured)
latency change    = 0.00675557
throughput change = 0.00249066
Class 0:
Packet latency average = 20.536
	minimum = 7
	maximum = 66
Network latency average = 20.5184
	minimum = 7
	maximum = 66
Slowest packet = 205490
Flit latency average = 20.5339
	minimum = 7
	maximum = 66
Slowest flit = 205490
Fragmentation average = 0
	minimum = 0
	maximum = 0
Injected packet rate average = 0.200313
	minimum = 0.186 (at node 4)
	maximum = 0.2145 (at node 11)
Accepted packet rate average = 0.200656
	minimum = 0.191 (at node 7)
	maximum = 0.214 (at node 12)
Injected flit rate average = 0.200313
	minimum = 0.186 (at node 4)
	maximum = 0.2145 (at node 11)
Accepted flit rate average= 0.200656
	minimum = 0.191 (at node 7)
	maximum = 0.214 (at node 12)
Injected packet length average = 1
Accepted packet length average = 1
Total in-flight flits = 54 (54 measured)
latency change    = 0.00282983
throughput change = 0.000467217
Class 0:
Packet latency average = 20.5317
	minimum = 7
	maximum = 66
Network latency average = 20.5151
	minimum = 7
	maximum = 66
Slowest packet = 205490
Flit latency average = 20.5254
	minimum = 7
	maximum = 66
Slowest flit = 205490
Fragmentation average = 0
	minimum = 0
	maximum = 0
Injected packet rate average = 0.200396
	minimum = 0.187 (at node 5)
	maximum = 0.216 (at node 14)
Accepted packet rate average = 0.200646
	minimum = 0.19 (at node 7)
	maximum = 0.217333 (at node 12)
Injected flit rate average = 0.200396
	minimum = 0.187 (at node 5)
	maximum = 0.216 (at node 14)
Accepted flit rate average= 0.200646
	minimum = 0.19 (at node 7)
	maximum = 0.217333 (at node 12)
Injected packet length average = 1
Accepted packet length average = 1
Total in-flight flits = 53 (53 measured)
latency change    = 0.000212076
throughput change = 5.19157e-05
Draining all recorded packets ...
Draining remaining packets ...
Time taken is 6068 cycles
Class 0:
Packet latency average = 20.1197
	minimum = 7
	maximum = 49
Network latency average = 20.1066
	minimum = 7
	maximum = 48
Slowest packet = 213020
Flit latency average = 20.1066
	minimum = 7
	maximum = 48
Slowest flit = 213020
Fragmentation average = 0
	minimum = 0
	maximum = 0
Injected packet rate average = 0.199313
	minimum = 0.18 (at node 9)
	maximum = 0.221 (at node 2)
Accepted packet rate average = 0.195875
	minimum = 0.172 (at node 11)
	maximum = 0.218 (at node 10)
Injected flit rate average = 0.199313
	minimum = 0.18 (at node 9)
	maximum = 0.221 (at node 2)
Accepted flit rate average= 0.195875
	minimum = 0.172 (at node 11)
	maximum = 0.218 (at node 10)
Injected packet length average = 1
Accepted packet length average = 1
Total in-flight flits = 55 (0 measured)
latency change    = 1
throughput change = 1
Class 0:
Packet latency average = 20.2131
	minimum = 7
	maximum = 53
Network latency average = 20.1983
	minimum = 7
	maximum = 53
Slowest packet = 215711
Flit latency average = 20.1983
	minimum = 7
	maximum = 53
Slowest flit = 215711
Fragmentation average = 0
	minimum = 0
	maximum = 0
Injected packet rate average = 0.200125
	minimum = 0.189 (at node 5)
	maximum = 0.212 (at node 15)
Accepted packet rate average = 0.198406
	minimum = 0.1785 (at node 11)
	maximum = 0.2135 (at node 2)
Injected flit rate average = 0.200125
	minimum = 0.189 (at node 5)
	maximum = 0.212 (at node 15)
Accepted flit rate average= 0.198406
	minimum = 0.1785 (at node 11)
	maximum = 0.2135 (at node 2)
Injected packet length average = 1
Accepted packet length average = 1
Total in-flight flits = 55 (0 measured)
latency change    = 0.00462319
throughput change = 0.0127579
Class 0:
Packet latency average = 20.3615
	minimum = 7
	maximum = 60
Network latency average = 20.3414
	minimum = 7
	maximum = 60
Slowest packet = 218796
Flit latency average = 20.3414
	minimum = 7
	maximum = 60
Slowest flit = 218796
Fragmentation average = 0
	minimum = 0
	maximum = 0
Injected packet rate average = 0.20675
	minimum = 0.18 (at node 10)
	maximum = 0.236 (at node 5)
Accepted packet rate average = 0.205563
	minimum = 0.179 (at node 13)
	maximum = 0.247 (at node 7)
Injected flit rate average = 0.20675
	minimum = 0.18 (at node 10)
	maximum = 0.236 (at node 5)
Accepted flit rate average= 0.205563
	minimum = 0.179 (at node 13)
	maximum = 0.247 (at node 7)
Injected packet length average = 1
Accepted packet length average = 1
Total in-flight flits = 74 (0 measured)
latency change    = 0.00728844
throughput change = 0.034813
Warmed up ...Time used is 3000 cycles
Class 0:
Packet latency average = 20.4564
	minimum = 7
	maximum = 47
Network latency average = 20.4324
	minimum = 7
	maximum = 47
Slowest packet = 222794
Flit latency average = 20.479
	minimum = 7
	maximum = 47
Slowest flit = 222794
Fragmentation average = 0
	minimum = 0
	maximum = 0
Injected packet rate average = 0.202375
	minimum = 0.182 (at node 3)
	maximum = 0.218 (at node 1)
Accepted packet rate average = 0.202625
	minimum = 0.19 (at node 8)
	maximum = 0.22 (at node 3)
Injected flit rate average = 0.202375
	minimum = 0.182 (at node 3)
	maximum = 0.218 (at node 1)
Accepted flit rate average= 0.202625
	minimum = 0.19 (at node 8)
	maximum = 0.22 (at node 3)
Injected packet length average = 1
Accepted packet length average = 1
Total in-flight flits = 70 (70 measured)
latency change    = 0.00464066
throughput change = 0.0144972
Class 0:
Packet latency average = 20.5003
	minimum = 7
	maximum = 49
Network latency average = 20.4777
	minimum = 7
	maximum = 49
Slowest packet = 226377
Flit latency average = 20.5006
	minimum = 7
	maximum = 49
Slowest flit = 226377
Fragmentation average = 0
	minimum = 0
	maximum = 0
Injected packet rate average = 0.200437
	minimum = 0.186 (at node 15)
	maximum = 0.213 (at node 1)
Accepted packet rate average = 0.201063
	minimum = 0.193 (at node 14)
	maximum = 0.2145 (at node 0)
Injected flit rate average = 0.200437
	minimum = 0.186 (at node 15)
	maximum = 0.213 (at node 1)
Accepted flit rate average= 0.201063
	minimum = 0.193 (at node 14)
	maximum = 0.2145 (at node 0)
Injected packet length average = 1
Accepted packet length average = 1
Total in-flight flits = 55 (55 measured)
latency change    = 0.00214021
throughput change = 0.00777122
Class 0:
Packet latency average = 20.4372
	minimum = 7
	maximum = 52
Network latency average = 20.4161
	minimum = 7
	maximum = 52
Slowest packet = 229426
Flit latency average = 20.432
	minimum = 7
	maximum = 52
Slowest flit = 229426
Fragmentation average = 0
	minimum = 0
	maximum = 0
Injected packet rate average = 0.199479
	minimum = 0.185 (at node 15)
	maximum = 0.210667 (at node 1)
Accepted packet rate average = 0.199792
	minimum = 0.190333 (at node 9)
	maximum = 0.208667 (at node 0)
Injected flit rate average = 0.199479
	minimum = 0.185 (at node 15)
	maximum = 0.210667 (at node 1)
Accepted flit rate average= 0.199792
	minimum = 0.190333 (at node 9)
	maximum = 0.208667 (at node 0)
Injected packet length average = 1
Accepted packet length average = 1
Total in-flight flits = 59 (59 measured)
latency change    = 0.00309025
throughput change = 0.00636079
Draining all recorded packets ...
Draining remaining packets ...
Time taken is 6062 cycles
Class 0:
Packet latency average = 20.4637
	minimum = 7
	maximum = 51
Network latency average = 20.4399
	minimum = 7
	maximum = 51
Slowest packet = 231905
Flit latency average = 20.4399
	minimum = 7
	maximum = 51
Slowest flit = 231905
Fragmentation average = 0
	minimum = 0
	maximum = 0
Injected packet rate average = 0.202
	minimum = 0.184 (at node 0)
	maximum = 0.231 (at node 3)
Accepted packet rate average = 0.19775
	minimum = 0.177 (at node 2)
	maximum = 0.239 (at node 1)
Injected flit rate average = 0.202
	minimum = 0.184 (at node 0)
	maximum = 0.231 (at node 3)
Accepted flit rate average= 0.19775
	minimum = 0.177 (at node 2)
	maximum = 0.239 (at node 1)
Injected packet length average = 1
Accepted packet length average = 1
Total in-flight flits = 68 (0 measured)
latency change    = 1
throughput change = 1
Class 0:
Packet latency average = 20.4116
	minimum = 7
	maximum = 51
Network latency average = 20.3929
	minimum = 7
	maximum = 51
Slowest packet = 231905
Flit latency average = 20.3929
	minimum = 7
	maximum = 51
Slowest flit = 231905
Fragmentation average = 0
	minimum = 0
	maximum = 0
Injected packet rate average = 0.201031
	minimum = 0.188 (at node 15)
	maximum = 0.215 (at node 7)
Accepted packet rate average = 0.198781
	minimum = 0.1845 (at node 3)
	maximum = 0.2175 (at node 1)
Injected flit rate average = 0.201031
	minimum = 0.188 (at node 15)
	maximum = 0.215 (at node 7)
Accepted flit rate average= 0.198781
	minimum = 0.1845 (at node 3)
	maximum = 0.2175 (at node 1)
Injected packet length average = 1
Accepted packet length average = 1
Total in-flight flits = 72 (0 measured)
latency change    = 0.00255165
throughput change = 0.00518786
Class 0:
Packet latency average = 20.2197
	minimum = 7
	maximum = 63
Network latency average = 20.2048
	minimum = 7
	maximum = 63
Slowest packet = 239591
Flit latency average = 20.2048
	minimum = 7
	maximum = 63
Slowest flit = 239591
Fragmentation average = 0
	minimum = 0
	maximum = 0
Injected packet rate average = 0.1975
	minimum = 0.168 (at node 12)
	maximum = 0.228 (at node 6)
Accepted packet rate average = 0.19775
	minimum = 0.168 (at node 2)
	maximum = 0.22 (at node 5)
Injected flit rate average = 0.1975
	minimum = 0.168 (at node 12)
	maximum = 0.228 (at node 6)
Accepted flit rate average= 0.19775
	minimum = 0.168 (at node 2)
	maximum = 0.22 (at node 5)
Injected packet length average = 1
Accepted packet length average = 1
Total in-flight flits = 68 (0 measured)
latency change    = 0.00949135
throughput change = 0.00521492
Warmed up ...Time used is 3000 cycles
Class 0:
Packet latency average = 20.537
	minimum = 7
	maximum = 55
Network latency average = 20.5189
	minimum = 7
	maximum = 55
Slowest packet = 242852
Flit latency average = 20.5905
	minimum = 7
	maximum = 55
Slowest flit = 242852
Fragmentation average = 0
	minimum = 0
	maximum = 0
Injected packet rate average = 0.197625
	minimum = 0.185 (at node 5)
	maximum = 0.216 (at node 3)
Accepted packet rate average = 0.197813
	minimum = 0.165 (at node 14)
	maximum = 0.227 (at node 7)
Injected flit rate average = 0.197625
	minimum = 0.185 (at node 5)
	maximum = 0.216 (at node 3)
Accepted flit rate average= 0.197813
	minimum = 0.165 (at node 14)
	maximum = 0.227 (at node 7)
Injected packet length average = 1
Accepted packet length average = 1
Total in-flight flits = 65 (65 measured)
latency change    = 0.0154508
throughput change = 0.000315956
Class 0:
Packet latency average = 20.489
	minimum = 7
	maximum = 55
Network latency average = 20.4757
	minimum = 7
	maximum = 55
Slowest packet = 242852
Flit latency average = 20.512
	minimum = 7
	maximum = 55
Slowest flit = 242852
Fragmentation average = 0
	minimum = 0
	maximum = 0
Injected packet rate average = 0.197125
	minimum = 0.1855 (at node 1)
	maximum = 0.2095 (at node 3)
Accepted packet rate average = 0.197375
	minimum = 0.18 (at node 14)
	maximum = 0.2125 (at node 4)
Injected flit rate average = 0.197125
	minimum = 0.1855 (at node 1)
	maximum = 0.2095 (at node 3)
Accepted flit rate average= 0.197375
	minimum = 0.18 (at node 14)
	maximum = 0.2125 (at node 4)
Injected packet length average = 1
Accepted packet length average = 1
Total in-flight flits = 60 (60 measured)
latency change    = 0.00234345
throughput change = 0.00221659
Class 0:
Packet latency average = 20.4638
	minimum = 7
	maximum = 55
Network latency average = 20.4494
	minimum = 7
	maximum = 55
Slowest packet = 242852
Flit latency average = 20.4737
	minimum = 7
	maximum = 55
Slowest flit = 242852
Fragmentation average = 0
	minimum = 0
	maximum = 0
Injected packet rate average = 0.198417
	minimum = 0.186667 (at node 1)
	maximum = 0.211 (at node 3)
Accepted packet rate average = 0.198458
	minimum = 0.181667 (at node 1)
	maximum = 0.209333 (at node 13)
Injected flit rate average = 0.198417
	minimum = 0.186667 (at node 1)
	maximum = 0.211 (at node 3)
Accepted flit rate average= 0.198458
	minimum = 0.181667 (at node 1)
	maximum = 0.209333 (at node 13)
Injected packet length average = 1
Accepted packet length average = 1
Total in-flight flits = 67 (67 measured)
latency change    = 0.00122735
throughput change = 0.00545874
Draining all recorded packets ...
Draining remaining packets ...
Time taken is 6076 cycles
Class 0:
Packet latency average = 20.1718
	minimum = 7
	maximum = 53
Network latency average = 20.1676
	minimum = 7
	maximum = 53
Slowest packet = 253728
Flit latency average = 20.1676
	minimum = 7
	maximum = 53
Slowest flit = 253728
Fragmentation average = 0
	minimum = 0
	maximum = 0
Injected packet rate average = 0.1975
	minimum = 0.156 (at node 7)
	maximum = 0.228 (at node 15)
Accepted packet rate average = 0.192438
	minimum = 0.173 (at node 4)
	maximum = 0.226 (at node 10)
Injected flit rate average = 0.1975
	minimum = 0.156 (at node 7)
	maximum = 0.228 (at node 15)
Accepted flit rate average= 0.192438
	minimum = 0.173 (at node 4)
	maximum = 0.226 (at node 10)
Injected packet length average = 1
Accepted packet length average = 1
Total in-flight flits = 81 (0 measured)
latency change    = 1
throughput change = 1
Class 0:
Packet latency average = 20.2365
	minimum = 7
	maximum = 53
Network latency average = 20.2257
	minimum = 7
	maximum = 53
Slowest packet = 253728
Flit latency average = 20.2257
	minimum = 7
	maximum = 53
Slowest flit = 253728
Fragmentation average = 0
	minimum = 0
	maximum = 0
Injected packet rate average = 0.19925
	minimum = 0.182 (at node 2)
	maximum = 0.219 (at node 15)
Accepted packet rate average = 0.197313
	minimum = 0.1825 (at node 0)
	maximum = 0.223 (at node 10)
Injected flit rate average = 0.19925
	minimum = 0.182 (at node 2)
	maximum = 0.219 (at node 15)
Accepted flit rate average= 0.197313
	minimum = 0.1825 (at node 0)
	maximum = 0.223 (at node 10)
Injected packet length average = 1
Accepted packet length average = 1
Total in-flight flits = 62 (0 measured)
latency change    = 0.00319471
throughput change = 0.024707
Class 0:
Packet latency average = 20.3404
	minimum = 7
	maximum = 46
Network latency average = 20.327
	minimum = 7
	maximum = 46
Slowest packet = 257512
Flit latency average = 20.327
	minimum = 7
	maximum = 46
Slowest flit = 257512
Fragmentation average = 0
	minimum = 0
	maximum = 0
Injected packet rate average = 0.20025
	minimum = 0.169 (at node 8)
	maximum = 0.234 (at node 14)
Accepted packet rate average = 0.19975
	minimum = 0.157 (at node 2)
	maximum = 0.233 (at node 4)
Injected flit rate average = 0.20025
	minimum = 0.169 (at node 8)
	maximum = 0.234 (at node 14)
Accepted flit rate average= 0.19975
	minimum = 0.157 (at node 2)
	maximum = 0.233 (at node 4)
Injected packet length average = 1
Accepted packet length average = 1
Total in-flight flits = 70 (0 measured)
latency change    = 0.00511134
throughput change = 0.0122028
Warmed up ...Time used is 3000 cycles
Class 0:
Packet latency average = 20.1323
	minimum = 7
	maximum = 46
Network latency average = 20.1096
	minimum = 7
	maximum = 46
Slowest packet = 263239
Flit latency average = 20.1623
	minimum = 7
	maximum = 46
Slowest flit = 263239
Fragmentation average = 0
	minimum = 0
	maximum = 0
Injected packet rate average = 0.198563
	minimum = 0.177 (at node 2)
	maximum = 0.217 (at node 10)
Accepted packet rate average = 0.199437
	minimum = 0.178 (at node 8)
	maximum = 0.23 (at node 0)
Injected flit rate average = 0.198563
	minimum = 0.177 (at node 2)
	maximum = 0.217 (at node 10)
Accepted flit rate average= 0.199437
	minimum = 0.178 (at node 8)
	maximum = 0.23 (at node 0)
Injected packet length average = 1
Accepted packet length average = 1
Total in-flight flits = 56 (56 measured)
latency change    = 0.0103364
throughput change = 0.00156691
Class 0:
Packet latency average = 20.2252
	minimum = 7
	maximum = 55
Network latency average = 20.2085
	minimum = 7
	maximum = 55
Slowest packet = 265860
Flit latency average = 20.2337
	minimum = 7
	maximum = 55
Slowest flit = 265860
Fragmentation average = 0
	minimum = 0
	maximum = 0
Injected packet rate average = 0.199937
	minimum = 0.1865 (at node 7)
	maximum = 0.213 (at node 3)
Accepted packet rate average = 0.200187
	minimum = 0.1815 (at node 8)
	maximum = 0.231 (at node 0)
Injected flit rate average = 0.199937
	minimum = 0.1865 (at node 7)
	maximum = 0.213 (at node 3)
Accepted flit rate average= 0.200187
	minimum = 0.1815 (at node 8)
	maximum = 0.231 (at node 0)
Injected packet length average = 1
Accepted packet length average = 1
Total in-flight flits = 62 (62 measured)
latency change    = 0.00459286
throughput change = 0.00374649
Class 0:
Packet latency average = 20.2751
	minimum = 7
	maximum = 55
Network latency average = 20.2599
	minimum = 7
	maximum = 55
Slowest packet = 265860
Flit latency average = 20.2763
	minimum = 7
	maximum = 55
Slowest flit = 265860
Fragmentation average = 0
	minimum = 0
	maximum = 0
Injected packet rate average = 0.200417
	minimum = 0.189 (at node 7)
	maximum = 0.213333 (at node 3)
Accepted packet rate average = 0.200646
	minimum = 0.184667 (at node 8)
	maximum = 0.224667 (at node 0)
Injected flit rate average = 0.200417
	minimum = 0.189 (at node 7)
	maximum = 0.213333 (at node 3)
Accepted flit rate average= 0.200646
	minimum = 0.184667 (at node 8)
	maximum = 0.224667 (at node 0)
Injected packet length average = 1
Accepted packet length average = 1
Total in-flight flits = 59 (59 measured)
latency change    = 0.00245892
throughput change = 0.00228429
Draining all recorded packets ...
Draining remaining packets ...
Time taken is 6063 cycles
Class 0:
Packet latency average = 20.3949
	minimum = 7
	maximum = 48
Network latency average = 20.383
	minimum = 7
	maximum = 48
Slowest packet = 272444
Flit latency average = 20.383
	minimum = 7
	maximum = 48
Slowest flit = 272444
Fragmentation average = 0
	minimum = 0
	maximum = 0
Injected packet rate average = 0.20275
	minimum = 0.183 (at node 8)
	maximum = 0.224 (at node 14)
Accepted packet rate average = 0.199563
	minimum = 0.18 (at node 1)
	maximum = 0.226 (at node 12)
Injected flit rate average = 0.20275
	minimum = 0.183 (at node 8)
	maximum = 0.224 (at node 14)
Accepted flit rate average= 0.199563
	minimum = 0.18 (at node 1)
	maximum = 0.226 (at node 12)
Injected packet length average = 1
Accepted packet length average = 1
Total in-flight flits = 51 (0 measured)
latency change    = 1
throughput change = 1
Class 0:
Packet latency average = 20.4893
	minimum = 7
	maximum = 49
Network latency average = 20.4708
	minimum = 7
	maximum = 49
Slowest packet = 275689
Flit latency average = 20.4708
	minimum = 7
	maximum = 49
Slowest flit = 275689
Fragmentation average = 0
	minimum = 0
	maximum = 0
Injected packet rate average = 0.203313
	minimum = 0.194 (at node 2)
	maximum = 0.222 (at node 9)
Accepted packet rate average = 0.201375
	minimum = 0.1795 (at node 1)
	maximum = 0.215 (at node 2)
Injected flit rate average = 0.203313
	minimum = 0.194 (at node 2)
	maximum = 0.222 (at node 9)
Accepted flit rate average= 0.201375
	minimum = 0.1795 (at node 1)
	maximum = 0.215 (at node 2)
Injected packet length average = 1
Accepted packet length average = 1
Total in-flight flits = 62 (0 measured)
latency change    = 0.00460562
throughput change = 0.00900062
Class 0:
Packet latency average = 20.3906
	minimum = 7
	maximum = 46
Network latency average = 20.3703
	minimum = 7
	maximum = 46
Slowest packet = 277976
Flit latency average = 20.3703
	minimum = 7
	maximum = 46
Slowest flit = 277976
Fragmentation average = 0
	minimum = 0
	maximum = 0
Injected packet rate average = 0.203625
	minimum = 0.18 (at node 14)
	maximum = 0.22 (at node 12)
Accepted packet rate average = 0.203063
	minimum = 0.184 (at node 10)
	maximum = 0.222 (at node 4)
Injected flit rate average = 0.203625
	minimum = 0.18 (at node 14)
	maximum = 0.22 (at node 12)
Accepted flit rate average= 0.203063
	minimum = 0.184 (at node 10)
	maximum = 0.222 (at node 4)
Injected packet length average = 1
Accepted packet length average = 1
Total in-flight flits = 71 (0 measured)
latency change    = 0.00484099
throughput change = 0.00831025
Warmed up ...Time used is 3000 cycles
Class 0:
Packet latency average = 20.4073
	minimum = 7
	maximum = 57
Network latency average = 20.3921
	minimum = 7
	maximum = 57
Slowest packet = 281421
Flit latency average = 20.4901
	minimum = 7
	maximum = 57
Slowest flit = 281421
Fragmentation average = 0
	minimum = 0
	maximum = 0
Injected packet rate average = 0.197063
	minimum = 0.185 (at node 6)
	maximum = 0.215 (at node 13)
Accepted packet rate average = 0.197937
	minimum = 0.181 (at node 10)
	maximum = 0.224 (at node 15)
Injected flit rate average = 0.197063
	minimum = 0.185 (at node 6)
	maximum = 0.215 (at node 13)
Accepted flit rate average= 0.197937
	minimum = 0.181 (at node 10)
	maximum = 0.224 (at node 15)
Injected packet length average = 1
Accepted packet length average = 1
Total in-flight flits = 57 (57 measured)
latency change    = 0.000819218
throughput change = 0.025892
Class 0:
Packet latency average = 20.3649
	minimum = 7
	maximum = 57
Network latency average = 20.3504
	minimum = 7
	maximum = 57
Slowest packet = 281421
Flit latency average = 20.3992
	minimum = 7
	maximum = 57
Slowest flit = 281421
Fragmentation average = 0
	minimum = 0
	maximum = 0
Injected packet rate average = 0.2
	minimum = 0.191 (at node 12)
	maximum = 0.2095 (at node 0)
Accepted packet rate average = 0.200406
	minimum = 0.188 (at node 5)
	maximum = 0.2195 (at node 1)
Injected flit rate average = 0.2
	minimum = 0.191 (at node 12)
	maximum = 0.2095 (at node 0)
Accepted flit rate average= 0.200406
	minimum = 0.188 (at node 5)
	maximum = 0.2195 (at node 1)
Injected packet length average = 1
Accepted packet length average = 1
Total in-flight flits = 58 (58 measured)
latency change    = 0.00208352
throughput change = 0.0123187
Class 0:
Packet latency average = 20.324
	minimum = 7
	maximum = 57
Network latency average = 20.3081
	minimum = 7
	maximum = 57
Slowest packet = 281421
Flit latency average = 20.3409
	minimum = 7
	maximum = 57
Slowest flit = 281421
Fragmentation average = 0
	minimum = 0
	maximum = 0
Injected packet rate average = 0.200563
	minimum = 0.191667 (at node 6)
	maximum = 0.208667 (at node 0)
Accepted packet rate average = 0.200708
	minimum = 0.186333 (at node 5)
	maximum = 0.214333 (at node 1)
Injected flit rate average = 0.200563
	minimum = 0.191667 (at node 6)
	maximum = 0.208667 (at node 0)
Accepted flit rate average= 0.200708
	minimum = 0.186333 (at node 5)
	maximum = 0.214333 (at node 1)
Injected packet length average = 1
Accepted packet length average = 1
Total in-flight flits = 64 (64 measured)
latency change    = 0.002013
throughput change = 0.00150509
Draining all recorded packets ...
Draining remaining packets ...
Time taken is 6065 cycles
Class 0:
Packet latency average = 20.1727
	minimum = 7
	maximum = 47
Network latency average = 20.1655
	minimum = 7
	maximum = 47
Slowest packet = 290445
Flit latency average = 20.1655
	minimum = 7
	maximum = 47
Slowest flit = 290445
Fragmentation average = 0
	minimum = 0
	maximum = 0
Injected packet rate average = 0.194688
	minimum = 0.183 (at node 4)
	maximum = 0.215 (at node 14)
Accepted packet rate average = 0.190375
	minimum = 0.166 (at node 7)
	maximum = 0.22 (at node 4)
Injected flit rate average = 0.194688
	minimum = 0.183 (at node 4)
	maximum = 0.215 (at node 14)
Accepted flit rate average= 0.190375
	minimum = 0.166 (at node 7)
	maximum = 0.22 (at node 4)
Injected packet length average = 1
Accepted packet length average = 1
Total in-flight flits = 69 (0 measured)
latency change    = 1
throughput change = 1
Class 0:
Packet latency average = 20.286
	minimum = 7
	maximum = 49
Network latency average = 20.2737
	minimum = 7
	maximum = 49
Slowest packet = 292751
Flit latency average = 20.2737
	minimum = 7
	maximum = 49
Slowest flit = 292751
Fragmentation average = 0
	minimum = 0
	maximum = 0
Injected packet rate average = 0.197687
	minimum = 0.188 (at node 6)
	maximum = 0.214 (at node 14)
Accepted packet rate average = 0.195344
	minimum = 0.1795 (at node 13)
	maximum = 0.2135 (at node 4)
Injected flit rate average = 0.197687
	minimum = 0.188 (at node 6)
	maximum = 0.214 (at node 14)
[...]
	minimum = 0.186 (at node 7)
	maximum = 0.226 (at node 3)
Accepted packet rate average = 0.202375
	minimum = 0.176 (at node 7)
	maximum = 0.24 (at node 13)
Injected flit rate average = 0.20325
	minimum = 0.186 (at node 7)
	maximum = 0.226 (at node 3)
Accepted flit rate average= 0.202375
	minimum = 0.176 (at node 7)
	maximum = 0.24 (at node 13)
Injected packet length average = 1
Accepted packet length average = 1
Total in-flight flits = 62 (0 measured)
latency change    = 0.0133897
throughput change = 0.0100371
Warmed up ...Time used is 3000 cycles
Class 0:
Packet latency average = 20.496
	minimum = 7
	maximum = 52
Network latency average = 20.4777
	minimum = 7
	maximum = 51
Slowest packet = 1865800
Flit latency average = 20.5291
	minimum = 7
	maximum = 51
Slowest flit = 1865800
Fragmentation average = 0
	minimum = 0
	maximum = 0
Injected packet rate average = 0.201437
	minimum = 0.18 (at node 5)
	maximum = 0.222 (at node 13)
Accepted packet rate average = 0.201063
	minimum = 0.182 (at node 4)
	maximum = 0.216 (at node 2)
Injected flit rate average = 0.201437
	minimum = 0.18 (at node 5)
	maximum = 0.222 (at node 13)
Accepted flit rate average= 0.201063
	minimum = 0.182 (at node 4)
	maximum = 0.216 (at node 2)
Injected packet length average = 1
Accepted packet length average = 1
Total in-flight flits = 69 (69 measured)
latency change    = 0.00108231
throughput change = 0.00652782
Class 0:
Packet latency average = 20.3402
	minimum = 7
	maximum = 52
Network latency average = 20.3249
	minimum = 7
	maximum = 51
Slowest packet = 1865800
Flit latency average = 20.3523
	minimum = 7
	maximum = 51
Slowest flit = 1865800
Fragmentation average = 0
	minimum = 0
	maximum = 0
Injected packet rate average = 0.199219
	minimum = 0.1835 (at node 1)
	maximum = 0.2135 (at node 13)
Accepted packet rate average = 0.199406
	minimum = 0.1855 (at node 0)
	maximum = 0.216 (at node 7)
Injected flit rate average = 0.199219
	minimum = 0.1835 (at node 1)
	maximum = 0.2135 (at node 13)
Accepted flit rate average= 0.199406
	minimum = 0.1855 (at node 0)
	maximum = 0.216 (at node 7)
Injected packet length average = 1
Accepted packet length average = 1
Total in-flight flits = 56 (56 measured)
latency change    = 0.00765941
throughput change = 0.00830591
Class 0:
Packet latency average = 20.4106
	minimum = 7
	maximum = 59
Network latency average = 20.3856
	minimum = 7
	maximum = 56
Slowest packet = 1873062
Flit latency average = 20.4033
	minimum = 7
	maximum = 56
Slowest flit = 1873062
Fragmentation average = 0
	minimum = 0
	maximum = 0
Injected packet rate average = 0.20225
	minimum = 0.191 (at node 9)
	maximum = 0.212 (at node 0)
Accepted packet rate average = 0.201875
	minimum = 0.188 (at node 0)
	maximum = 0.211667 (at node 6)
Injected flit rate average = 0.20225
	minimum = 0.191 (at node 9)
	maximum = 0.212 (at node 0)
Accepted flit rate average= 0.201875
	minimum = 0.188 (at node 0)
	maximum = 0.211667 (at node 6)
Injected packet length average = 1
Accepted packet length average = 1
Total in-flight flits = 80 (80 measured)
latency change    = 0.00344574
throughput change = 0.0122291
Draining all recorded packets ...
Draining remaining packets ...
Time taken is 6074 cycles
Class 0:
Packet latency average = 20.3003
	minimum = 7
	maximum = 57
Network latency average = 20.2669
	minimum = 7
	maximum = 57
Slowest packet = 1877362
Flit latency average = 20.2669
	minimum = 7
	maximum = 57
Slowest flit = 1877362
Fragmentation average = 0
	minimum = 0
	maximum = 0
Injected packet rate average = 0.201313
	minimum = 0.177 (at node 14)
	maximum = 0.228 (at node 15)
Accepted packet rate average = 0.196437
	minimum = 0.175 (at node 4)
	maximum = 0.219 (at node 9)
Injected flit rate average = 0.201313
	minimum = 0.177 (at node 14)
	maximum = 0.228 (at node 15)
Accepted flit rate average= 0.196437
	minimum = 0.175 (at node 4)
	maximum = 0.219 (at node 9)
Injected packet length average = 1
Accepted packet length average = 1
Total in-flight flits = 78 (0 measured)
latency change    = 1
throughput change = 1
Class 0:
Packet latency average = 20.3173
	minimum = 7
	maximum = 57
Network latency average = 20.2933
	minimum = 7
	maximum = 57
Slowest packet = 1877362
Flit latency average = 20.2933
	minimum = 7
	maximum = 57
Slowest flit = 1877362
Fragmentation average = 0
	minimum = 0
	maximum = 0
Injected packet rate average = 0.198406
	minimum = 0.182 (at node 14)
	maximum = 0.2085 (at node 3)
Accepted packet rate average = 0.196156
	minimum = 0.179 (at node 4)
	maximum = 0.208 (at node 5)
Injected flit rate average = 0.198406
	minimum = 0.182 (at node 14)
	maximum = 0.2085 (at node 3)
Accepted flit rate average= 0.196156
	minimum = 0.179 (at node 4)
	maximum = 0.208 (at node 5)
Injected packet length average = 1
Accepted packet length average = 1
Total in-flight flits = 72 (0 measured)
latency change    = 0.000836677
throughput change = 0.00143381
Class 0:
Packet latency average = 20.2726
	minimum = 7
	maximum = 50
Network latency average = 20.2422
	minimum = 7
	maximum = 49
Slowest packet = 1881599
Flit latency average = 20.2422
	minimum = 7
	maximum = 49
Slowest flit = 1881599
Fragmentation average = 0
	minimum = 0
	maximum = 0
Injected packet rate average = 0.196125
	minimum = 0.172 (at node 7)
	maximum = 0.21 (at node 10)
Accepted packet rate average = 0.197187
	minimum = 0.157 (at node 5)
	maximum = 0.221 (at node 14)
Injected flit rate average = 0.196125
	minimum = 0.172 (at node 7)
	maximum = 0.21 (at node 10)
Accepted flit rate average= 0.197187
	minimum = 0.157 (at node 5)
	maximum = 0.221 (at node 14)
Injected packet length average = 1
Accepted packet length average = 1
Total in-flight flits = 55 (0 measured)
latency change    = 0.0022082
throughput change = 0.00522979
Warmed up ...Time used is 3000 cycles
Class 0:
Packet latency average = 19.9603
	minimum = 7
	maximum = 48
Network latency average = 19.9446
	minimum = 7
	maximum = 48
Slowest packet = 1886674
Flit latency average = 19.9817
	minimum = 7
	maximum = 48
Slowest flit = 1886674
Fragmentation average = 0
	minimum = 0
	maximum = 0
Injected packet rate average = 0.20325
	minimum = 0.171 (at node 4)
	maximum = 0.228 (at node 6)
Accepted packet rate average = 0.202
	minimum = 0.18 (at node 8)
	maximum = 0.225 (at node 2)
Injected flit rate average = 0.20325
	minimum = 0.171 (at node 4)
	maximum = 0.228 (at node 6)
Accepted flit rate average= 0.202
	minimum = 0.18 (at node 8)
	maximum = 0.225 (at node 2)
Injected packet length average = 1
Accepted packet length average = 1
Total in-flight flits = 75 (75 measured)
latency change    = 0.0156432
throughput change = 0.0238243
Class 0:
Packet latency average = 20.2283
	minimum = 7
	maximum = 72
Network latency average = 20.208
	minimum = 7
	maximum = 72
Slowest packet = 1890354
Flit latency average = 20.2244
	minimum = 7
	maximum = 72
Slowest flit = 1890354
Fragmentation average = 0
	minimum = 0
	maximum = 0
Injected packet rate average = 0.202063
	minimum = 0.173 (at node 12)
	maximum = 0.223 (at node 6)
Accepted packet rate average = 0.201687
	minimum = 0.184 (at node 14)
	maximum = 0.2205 (at node 6)
Injected flit rate average = 0.202063
	minimum = 0.173 (at node 12)
	maximum = 0.223 (at node 6)
Accepted flit rate average= 0.201687
	minimum = 0.184 (at node 14)
	maximum = 0.2205 (at node 6)
Injected packet length average = 1
Accepted packet length average = 1
Total in-flight flits = 67 (67 measured)
latency change    = 0.0132476
throughput change = 0.00154943
Class 0:
Packet latency average = 20.3027
	minimum = 7
	maximum = 72
Network latency average = 20.2832
	minimum = 7
	maximum = 72
Slowest packet = 1890354
Flit latency average = 20.2938
	minimum = 7
	maximum = 72
Slowest flit = 1890354
Fragmentation average = 0
	minimum = 0
	maximum = 0
Injected packet rate average = 0.199396
	minimum = 0.182667 (at node 12)
	maximum = 0.216667 (at node 15)
Accepted packet rate average = 0.198958
	minimum = 0.184667 (at node 9)
	maximum = 0.218333 (at node 6)
Injected flit rate average = 0.199396
	minimum = 0.182667 (at node 12)
	maximum = 0.216667 (at node 15)
Accepted flit rate average= 0.198958
	minimum = 0.184667 (at node 9)
	maximum = 0.218333 (at node 6)
Injected packet length average = 1
Accepted packet length average = 1
Total in-flight flits = 76 (76 measured)
latency change    = 0.003663
throughput change = 0.0137173
Draining all recorded packets ...
Draining remaining packets ...
Time taken is 6076 cycles
Class 0:
Packet latency average = 20.3891
	minimum = 7
	maximum = 56
Network latency average = 20.3763
	minimum = 7
	maximum = 56
Slowest packet = 1896524
Flit latency average = 20.3763
	minimum = 7
	maximum = 56
Slowest flit = 1896524
Fragmentation average = 0
	minimum = 0
	maximum = 0
Injected packet rate average = 0.193875
	minimum = 0.18 (at node 5)
	maximum = 0.217 (at node 15)
Accepted packet rate average = 0.190188
	minimum = 0.167 (at node 10)
	maximum = 0.22 (at node 12)
Injected flit rate average = 0.193875
	minimum = 0.18 (at node 5)
	maximum = 0.217 (at node 15)
Accepted flit rate average= 0.190188
	minimum = 0.167 (at node 10)
	maximum = 0.22 (at node 12)
Injected packet length average = 1
Accepted packet length average = 1
Total in-flight flits = 59 (0 measured)
latency change    = 1
throughput change = 1
Class 0:
Packet latency average = 20.473
	minimum = 7
	maximum = 56
Network latency average = 20.4561
	minimum = 7
	maximum = 56
Slowest packet = 1896524
Flit latency average = 20.4561
	minimum = 7
	maximum = 56
Slowest flit = 1896524
Fragmentation average = 0
	minimum = 0
	maximum = 0
Injected packet rate average = 0.201094
	minimum = 0.18 (at node 6)
	maximum = 0.221 (at node 15)
Accepted packet rate average = 0.198781
	minimum = 0.186 (at node 3)
	maximum = 0.2195 (at node 12)
Injected flit rate average = 0.201094
	minimum = 0.18 (at node 6)
	maximum = 0.221 (at node 15)
Accepted flit rate average= 0.198781
	minimum = 0.186 (at node 3)
	maximum = 0.2195 (at node 12)
Injected packet length average = 1
Accepted packet length average = 1
Total in-flight flits = 74 (0 measured)
latency change    = 0.00410047
throughput change = 0.0432322
Class 0:
Packet latency average = 20.5245
	minimum = 7
	maximum = 59
Network latency average = 20.5103
	minimum = 7
	maximum = 59
Slowest packet = 1902647
Flit latency average = 20.5103
	minimum = 7
	maximum = 59
Slowest flit = 1902647
Fragmentation average = 0
	minimum = 0
	maximum = 0
Injected packet rate average = 0.198375
	minimum = 0.18 (at node 8)
	maximum = 0.213 (at node 2)
Accepted packet rate average = 0.197937
	minimum = 0.178 (at node 2)
	maximum = 0.229 (at node 12)
Injected flit rate average = 0.198375
	minimum = 0.18 (at node 8)
	maximum = 0.213 (at node 2)
Accepted flit rate average= 0.197937
	minimum = 0.178 (at node 2)
	maximum = 0.229 (at node 12)
Injected packet length average = 1
Accepted packet length average = 1
Total in-flight flits = 81 (0 measured)
latency change    = 0.0025059
throughput change = 0.00426271
Warmed up ...Time used is 3000 cycles
Class 0:
Packet latency average = 20.24
	minimum = 7
	maximum = 46
Network latency average = 20.2222
	minimum = 7
	maximum = 46
Slowest packet = 1905763
Flit latency average = 20.3698
	minimum = 7
	maximum = 47
Slowest flit = 1903468
Fragmentation average = 0
	minimum = 0
	maximum = 0
Injected packet rate average = 0.196875
	minimum = 0.166 (at node 15)
	maximum = 0.229 (at node 4)
Accepted packet rate average = 0.198063
	minimum = 0.181 (at node 4)
	maximum = 0.216 (at node 10)
Injected flit rate average = 0.196875
	minimum = 0.166 (at node 15)
	maximum = 0.229 (at node 4)
Accepted flit rate average= 0.198063
	minimum = 0.181 (at node 4)
	maximum = 0.216 (at node 10)
Injected packet length average = 1
Accepted packet length average = 1
Total in-flight flits = 62 (62 measured)
latency change    = 0.0140568
throughput change = 0.000631114
Class 0:
Packet latency average = 20.1906
	minimum = 7
	maximum = 46
Network latency average = 20.1736
	minimum = 7
	maximum = 46
Slowest packet = 1905763
Flit latency average = 20.2474
	minimum = 7
	maximum = 47
Slowest flit = 1903468
Fragmentation average = 0
	minimum = 0
	maximum = 0
Injected packet rate average = 0.199656
	minimum = 0.184 (at node 15)
	maximum = 0.2215 (at node 4)
Accepted packet rate average = 0.199969
	minimum = 0.1865 (at node 0)
	maximum = 0.215 (at node 10)
Injected flit rate average = 0.199656
	minimum = 0.184 (at node 15)
	maximum = 0.2215 (at node 4)
Accepted flit rate average= 0.199969
	minimum = 0.1865 (at node 0)
	maximum = 0.215 (at node 10)
Injected packet length average = 1
Accepted packet length average = 1
Total in-flight flits = 71 (71 measured)
latency change    = 0.00244641
throughput change = 0.00953274
Class 0:
Packet latency average = 20.2243
	minimum = 7
	maximum = 52
Network latency average = 20.2101
	minimum = 7
	maximum = 52
Slowest packet = 1912689
Flit latency average = 20.2593
	minimum = 7
	maximum = 52
Slowest flit = 1912689
Fragmentation average = 0
	minimum = 0
	maximum = 0
Injected packet rate average = 0.197813
	minimum = 0.184 (at node 15)
	maximum = 0.211 (at node 3)
Accepted packet rate average = 0.198354
	minimum = 0.188 (at node 0)
	maximum = 0.217333 (at node 3)
Injected flit rate average = 0.197813
	minimum = 0.184 (at node 15)
	maximum = 0.211 (at node 3)
Accepted flit rate average= 0.198354
	minimum = 0.188 (at node 0)
	maximum = 0.217333 (at node 3)
Injected packet length average = 1
Accepted packet length average = 1
Total in-flight flits = 55 (55 measured)
latency change    = 0.00166591
throughput change = 0.0081399
Draining all recorded packets ...
Draining remaining packets ...
Time taken is 6072 cycles
Class 0:
Packet latency average = 20.3223
	minimum = 7
	maximum = 49
Network latency average = 20.3137
	minimum = 7
	maximum = 49
Slowest packet = 1914551
Flit latency average = 20.3137
	minimum = 7
	maximum = 49
Slowest flit = 1914551
Fragmentation average = 0
	minimum = 0
	maximum = 0
Injected packet rate average = 0.200625
	minimum = 0.181 (at node 5)
	maximum = 0.223 (at node 14)
Accepted packet rate average = 0.196625
	minimum = 0.182 (at node 2)
	maximum = 0.215 (at node 4)
Injected flit rate average = 0.200625
	minimum = 0.181 (at node 5)
	maximum = 0.223 (at node 14)
Accepted flit rate average= 0.196625
	minimum = 0.182 (at node 2)
	maximum = 0.215 (at node 4)
Injected packet length average = 1
Accepted packet length average = 1
Total in-flight flits = 64 (0 measured)
latency change    = 1
throughput change = 1
Class 0:
Packet latency average = 20.3371
	minimum = 7
	maximum = 49
Network latency average = 20.3278
	minimum = 7
	maximum = 49
Slowest packet = 1914551
Flit latency average = 20.3278
	minimum = 7
	maximum = 49
Slowest flit = 1914551
Fragmentation average = 0
	minimum = 0
	maximum = 0
Injected packet rate average = 0.197313
	minimum = 0.187 (at node 3)
	maximum = 0.207 (at node 14)
Accepted packet rate average = 0.195156
	minimum = 0.177 (at node 2)
	maximum = 0.203 (at node 0)
Injected flit rate average = 0.197313
	minimum = 0.187 (at node 3)
	maximum = 0.207 (at node 14)
Accepted flit rate average= 0.195156
	minimum = 0.177 (at node 2)
	maximum = 0.203 (at node 0)
Injected packet length average = 1
Accepted packet length average = 1
Total in-flight flits = 69 (0 measured)
latency change    = 0.000725552
throughput change = 0.00752602
Class 0:
Packet latency average = 20.2242
	minimum = 7
	maximum = 49
Network latency average = 20.2115
	minimum = 7
	maximum = 49
Slowest packet = 1921991
Flit latency average = 20.2115
	minimum = 7
	maximum = 49
Slowest flit = 1921991
Fragmentation average = 0
	minimum = 0
	maximum = 0
Injected packet rate average = 0.201187
	minimum = 0.182 (at node 15)
	maximum = 0.226 (at node 2)
Accepted packet rate average = 0.201563
	minimum = 0.182 (at node 13)
	maximum = 0.227 (at node 5)
Injected flit rate average = 0.201187
	minimum = 0.182 (at node 15)
	maximum = 0.226 (at node 2)
Accepted flit rate average= 0.201563
	minimum = 0.182 (at node 13)
	maximum = 0.227 (at node 5)
Injected packet length average = 1
Accepted packet length average = 1
Total in-flight flits = 63 (0 measured)
latency change    = 0.00558161
throughput change = 0.0317829
Warmed up ...Time used is 3000 cycles
Class 0:
Packet latency average = 20.1885
	minimum = 7
	maximum = 53
Network latency average = 20.1569
	minimum = 7
	maximum = 53
Slowest packet = 1925089
Flit latency average = 20.2426
	minimum = 7
	maximum = 53
Slowest flit = 1925089
Fragmentation average = 0
	minimum = 0
	maximum = 0
Injected packet rate average = 0.196375
	minimum = 0.181 (at node 8)
	maximum = 0.21 (at node 7)
Accepted packet rate average = 0.195563
	minimum = 0.17 (at node 2)
	maximum = 0.235 (at node 12)
Injected flit rate average = 0.196375
	minimum = 0.181 (at node 8)
	maximum = 0.21 (at node 7)
Accepted flit rate average= 0.195563
	minimum = 0.17 (at node 2)
	maximum = 0.235 (at node 12)
Injected packet length average = 1
Accepted packet length average = 1
Total in-flight flits = 76 (76 measured)
latency change    = 0.00176669
throughput change = 0.0306807
Class 0:
Packet latency average = 20.1604
	minimum = 7
	maximum = 53
Network latency average = 20.1369
	minimum = 7
	maximum = 53
Slowest packet = 1925089
Flit latency average = 20.1795
	minimum = 7
	maximum = 53
Slowest flit = 1925089
Fragmentation average = 0
	minimum = 0
	maximum = 0
Injected packet rate average = 0.198187
	minimum = 0.1805 (at node 8)
	maximum = 0.2165 (at node 5)
Accepted packet rate average = 0.198
	minimum = 0.184 (at node 0)
	maximum = 0.217 (at node 12)
Injected flit rate average = 0.198187
	minimum = 0.1805 (at node 8)
	maximum = 0.2165 (at node 5)
Accepted flit rate average= 0.198
	minimum = 0.184 (at node 0)
	maximum = 0.217 (at node 12)
Injected packet length average = 1
Accepted packet length average = 1
Total in-flight flits = 69 (69 measured)
latency change    = 0.00139627
throughput change = 0.0123106
Class 0:
Packet latency average = 20.2085
	minimum = 7
	maximum = 53
Network latency average = 20.1887
	minimum = 7
	maximum = 53
Slowest packet = 1925089
Flit latency average = 20.2167
	minimum = 7
	maximum = 53
Slowest flit = 1925089
Fragmentation average = 0
	minimum = 0
	maximum = 0
Injected packet rate average = 0.198167
	minimum = 0.189667 (at node 12)
	maximum = 0.21 (at node 5)
Accepted packet rate average = 0.198229
	minimum = 0.189333 (at node 0)
	maximum = 0.212667 (at node 7)
Injected flit rate average = 0.198167
	minimum = 0.189667 (at node 12)
	maximum = 0.21 (at node 5)
Accepted flit rate average= 0.198229
	minimum = 0.189333 (at node 0)
	maximum = 0.212667 (at node 7)
Injected packet length average = 1
Accepted packet length average = 1
Total in-flight flits = 60 (60 measured)
latency change    = 0.00238303
throughput change = 0.00115607
Draining all recorded packets ...
Draining remaining packets ...
Time taken is 6066 cycles
====== Overall Traffic Statistics ======
====== Traffic class 0 ======
Packet latency average = 20.3745 (100 samples)
	minimum = 7 (100 samples)
	maximum = 57.69 (100 samples)
Network latency average = 20.3558 (100 samples)
	minimum = 7 (100 samples)
	maximum = 57.5 (100 samples)
Flit latency average = 20.3728 (100 samples)
	minimum = 7 (100 samples)
	maximum = 57.54 (100 samples)
Fragmentation average = 0 (100 samples)
	minimum = 0 (100 samples)
	maximum = 0 (100 samples)
Injected packet rate average = 0.200204 (100 samples)
	minimum = 0.187023 (100 samples)
	maximum = 0.213573 (100 samples)
Accepted packet rate average = 0.200216 (100 samples)
	minimum = 0.186487 (100 samples)
	maximum = 0.214823 (100 samples)
Injected flit rate average = 0.200204 (100 samples)
	minimum = 0.187023 (100 samples)
	maximum = 0.213573 (100 samples)
Accepted flit rate average = 0.200216 (100 samples)
	minimum = 0.186487 (100 samples)
	maximum = 0.214823 (100 samples)
Injected packet size average = 1 (100 samples)
Accepted packet size average = 1 (100 samples)
Hops average = 3.49879 (100 samples)
Total run time 16.5801
