BEGIN Configuration File: /tmp/tmputgeo0rk.cfg
topology = mesh;
k = 4;
n = 2;
routing_function = planar_adapt;
num_vcs = 4;
vc_buf_size = 4;
wait_for_tail_credit = 1;
vc_allocator = islip;
sw_allocator = islip;
alloc_iters = 1;
credit_delay = 2;
routing_delay = 1;
vc_alloc_delay = 1;
sw_alloc_delay = 1;
input_speedup = 2;
output_speedup = 1;
internal_speedup = 1.0;
traffic = transpose;
packet_size = 1;
sim_type = latency;
injection_rate = 0.01;
warmup_periods = 3;
sample_period = 1000;
sim_count = 100;
seed = 4;

END Configuration File: /tmp/tmputgeo0rk.cfg
Class 0:
Packet latency average = 19.9085
	minimum = 7
	maximum = 47
Network latency average = 19.9085
	minimum = 7
	maximum = 47
Slowest packet = 40
Flit latency average = 19.9085
	minimum = 7
	maximum = 47
Slowest flit = 40
Fragmentation average = 0
	minimum = 0
	maximum = 0
Injected packet rate average = 0.0103125
	minimum = 0.005 (at node 0)
	maximum = 0.015 (at node 10)
Accepted packet rate average = 0.01025
	minimum = 0.005 (at node 0)
	maximum = 0.015 (at node 10)
Injected flit rate average = 0.0103125
	minimum = 0.005 (at node 0)
	maximum = 0.015 (at node 10)
Accepted flit rate average= 0.01025
	minimum = 0.005 (at node 0)
	maximum = 0.015 (at node 10)
Injected packet length average = 1
Accepted packet length average = 1
Total in-flight flits = 1 (0 measured)
latency change    = 1
throughput change = 1
Class 0:
Packet latency average = 20.0505
	minimum = 7
	maximum = 47
Network latency average = 20.0505
	minimum = 7
	maximum = 47
Slowest packet = 40
Flit latency average = 20.0505
	minimum = 7
	maximum = 47
Slowest flit = 40
Fragmentation average = 0
	minimum = 0
	maximum = 0
Injected packet rate average = 0.0099375
	minimum = 0.0055 (at node 11)
	maximum = 0.015 (at node 4)
Accepted packet rate average = 0.00990625
	minimum = 0.0055 (at node 14)
	maximum = 0.015 (at node 1)
Injected flit rate average = 0.0099375
	minimum = 0.0055 (at node 11)
	maximum = 0.015 (at node 4)
Accepted flit rate average= 0.00990625
	minimum = 0.0055 (at node 14)
	maximum = 0.015 (at node 1)
Injected packet length average = 1
Accepted packet length average = 1
Total in-flight flits = 1 (0 measured)
latency change    = 0.00707897
throughput change = 0.0347003
Class 0:
Packet latency average = 20.9776
	minimum = 7
	maximum = 40
Network latency average = 20.9776
	minimum = 7
	maximum = 40
Slowest packet = 355
Flit latency average = 20.9776
	minimum = 7
	maximum = 40
Slowest flit = 355
Fragmentation average = 0
	minimum = 0
	maximum = 0
Injected packet rate average = 0.0085625
	minimum = 0.004 (at node 6)
	maximum = 0.015 (at node 7)
Accepted packet rate average = 0.008375
	minimum = 0.003 (at node 9)
	maximum = 0.015 (at node 3)
Injected flit rate average = 0.0085625
	minimum = 0.004 (at node 6)
	maximum = 0.015 (at node 7)
Accepted flit rate average= 0.008375
	minimum = 0.003 (at node 9)
	maximum = 0.015 (at node 3)
Injected packet length average = 1
Accepted packet length average = 1
Total in-flight flits = 4 (0 measured)
latency change    = 0.0441966
throughput change = 0.182836
Warmed up ...Time used is 3000 cycles
Class 0:
Packet latency average = 19.2822
	minimum = 7
	maximum = 37
Network latency average = 19.2822
	minimum = 7
	maximum = 37
Slowest packet = 457
Flit latency average = 19.1677
	minimum = 7
	maximum = 37
Slowest flit = 457
Fragmentation average = 0
	minimum = 0
	maximum = 0
Injected packet rate average = 0.0104375
	minimum = 0.004 (at node 12)
	maximum = 0.018 (at node 6)
Accepted packet rate average = 0.0104375
	minimum = 0.004 (at node 3)
	maximum = 0.019 (at node 9)
Injected flit rate average = 0.0104375
	minimum = 0.004 (at node 12)
	maximum = 0.018 (at node 6)
Accepted flit rate average= 0.0104375
	minimum = 0.004 (at node 3)
	maximum = 0.019 (at node 9)
Injected packet length average = 1
Accepted packet length average = 1
Total in-flight flits = 4 (4 measured)
latency change    = 0.0879258
throughput change = 0.197605
Class 0:
Packet latency average = 19.2618
	minimum = 7
	maximum = 38
Network latency average = 19.2618
	minimum = 7
	maximum = 38
Slowest packet = 705
Flit latency average = 19.2064
	minimum = 7
	maximum = 38
Slowest flit = 705
Fragmentation average = 0
	minimum = 0
	maximum = 0
Injected packet rate average = 0.0108125
	minimum = 0.0055 (at node 4)
	maximum = 0.0155 (at node 6)
Accepted packet rate average = 0.01075
	minimum = 0.0055 (at node 1)
	maximum = 0.016 (at node 9)
Injected flit rate average = 0.0108125
	minimum = 0.0055 (at node 4)
	maximum = 0.0155 (at node 6)
Accepted flit rate average= 0.01075
	minimum = 0.0055 (at node 1)
	maximum = 0.016 (at node 9)
Injected packet length average = 1
Accepted packet length average = 1
Total in-flight flits = 6 (6 measured)
latency change    = 0.00106137
throughput change = 0.0290698
Class 0:
Packet latency average = 18.998
	minimum = 7
	maximum = 38
Network latency average = 18.998
	minimum = 7
	maximum = 38
Slowest packet = 705
Flit latency average = 18.9623
	minimum = 7
	maximum = 38
Slowest flit = 705
Fragmentation average = 0
	minimum = 0
	maximum = 0
Injected packet rate average = 0.0104792
	minimum = 0.00633333 (at node 4)
	maximum = 0.0143333 (at node 14)
Accepted packet rate average = 0.0105
	minimum = 0.00633333 (at node 1)
	maximum = 0.0146667 (at node 11)
Injected flit rate average = 0.0104792
	minimum = 0.00633333 (at node 4)
	maximum = 0.0143333 (at node 14)
Accepted flit rate average= 0.0105
	minimum = 0.00633333 (at node 1)
	maximum = 0.0146667 (at node 11)
Injected packet length average = 1
Accepted packet length average = 1
Total in-flight flits = 3 (3 measured)
latency change    = 0.0138838
throughput change = 0.0238095
Class 0:
Packet latency average = 19.437
	minimum = 7
	maximum = 42
Network latency average = 19.437
	minimum = 7
	maximum = 42
Slowest packet = 1088
Flit latency average = 19.408
	minimum = 7
	maximum = 42
Slowest flit = 1088
Fragmentation average = 0
	minimum = 0
	maximum = 0
Injected packet rate average = 0.0106094
	minimum = 0.0075 (at node 4)
	maximum = 0.01375 (at node 10)
Accepted packet rate average = 0.0106094
	minimum = 0.0075 (at node 1)
	maximum = 0.014 (at node 10)
Injected flit rate average = 0.0106094
	minimum = 0.0075 (at node 4)
	maximum = 0.01375 (at node 10)
Accepted flit rate average= 0.0106094
	minimum = 0.0075 (at node 1)
	maximum = 0.014 (at node 10)
Injected packet length average = 1
Accepted packet length average = 1
Total in-flight flits = 4 (4 measured)
latency change    = 0.0225877
throughput change = 0.0103093
Draining all recorded packets ...
Draining remaining packets ...
Time taken is 7050 cycles
Class 0:
Packet latency average = 19.477
	minimum = 7
	maximum = 38
Network latency average = 19.477
	minimum = 7
	maximum = 38
Slowest packet = 1211
Flit latency average = 19.477
	minimum = 7
	maximum = 38
Slowest flit = 1211
Fragmentation average = 0
	minimum = 0
	maximum = 0
Injected packet rate average = 0.010875
	minimum = 0.006 (at node 2)
	maximum = 0.016 (at node 10)
Accepted packet rate average = 0.010875
	minimum = 0.006 (at node 8)
	maximum = 0.016 (at node 10)
Injected flit rate average = 0.010875
	minimum = 0.006 (at node 2)
	maximum = 0.016 (at node 10)
Accepted flit rate average= 0.010875
	minimum = 0.006 (at node 8)
	maximum = 0.016 (at node 10)
Injected packet length average = 1
Accepted packet length average = 1
Total in-flight flits = 0 (0 measured)
latency change    = 1
throughput change = 1
Class 0:
Packet latency average = 19.3191
	minimum = 7
	maximum = 38
Network latency average = 19.3191
	minimum = 7
	maximum = 38
Slowest packet = 1211
Flit latency average = 19.3191
	minimum = 7
	maximum = 38
Slowest flit = 1211
Fragmentation average = 0
	minimum = 0
	maximum = 0
Injected packet rate average = 0.0104688
	minimum = 0.0065 (at node 15)
	maximum = 0.0135 (at node 10)
Accepted packet rate average = 0.0102813
	minimum = 0.006 (at node 15)
	maximum = 0.0135 (at node 10)
Injected flit rate average = 0.0104688
	minimum = 0.0065 (at node 15)
	maximum = 0.0135 (at node 10)
Accepted flit rate average= 0.0102813
	minimum = 0.006 (at node 15)
	maximum = 0.0135 (at node 10)
Injected packet length average = 1
Accepted packet length average = 1
Total in-flight flits = 6 (0 measured)
latency change    = 0.0081713
throughput change = 0.0577508
Class 0:
Packet latency average = 18.7987
	minimum = 7
	maximum = 38
Network latency average = 18.7987
	minimum = 7
	maximum = 38
Slowest packet = 1565
Flit latency average = 18.7987
	minimum = 7
	maximum = 38
Slowest flit = 1565
Fragmentation average = 0
	minimum = 0
	maximum = 0
Injected packet rate average = 0.0093125
	minimum = 0.005 (at node 0)
	maximum = 0.015 (at node 15)
Accepted packet rate average = 0.009625
	minimum = 0.005 (at node 0)
	maximum = 0.016 (at node 15)
Injected flit rate average = 0.0093125
	minimum = 0.005 (at node 0)
	maximum = 0.015 (at node 15)
Accepted flit rate average= 0.009625
	minimum = 0.005 (at node 0)
	maximum = 0.016 (at node 15)
Injected packet length average = 1
Accepted packet length average = 1
Total in-flight flits = 1 (0 measured)
latency change    = 0.0276853
throughput change = 0.0681818
Warmed up ...Time used is 3000 cycles
Class 0:
Packet latency average = 18.5197
	minimum = 7
	maximum = 37
Network latency average = 18.5197
	minimum = 7
	maximum = 37
Slowest packet = 1638
Flit latency average = 18.5752
	minimum = 7
	maximum = 37
Slowest flit = 1638
Fragmentation average = 0
	minimum = 0
	maximum = 0
Injected packet rate average = 0.0096875
	minimum = 0.005 (at node 12)
	maximum = 0.015 (at node 10)
Accepted packet rate average = 0.0095625
	minimum = 0.005 (at node 3)
	maximum = 0.015 (at node 10)
Injected flit rate average = 0.0096875
	minimum = 0.005 (at node 12)
	maximum = 0.015 (at node 10)
Accepted flit rate average= 0.0095625
	minimum = 0.005 (at node 3)
	maximum = 0.015 (at node 10)
Injected packet length average = 1
Accepted packet length average = 1
Total in-flight flits = 3 (3 measured)
latency change    = 0.0150631
throughput change = 0.00653595
Class 0:
Packet latency average = 18.7655
	minimum = 7
	maximum = 38
Network latency average = 18.7655
	minimum = 7
	maximum = 38
Slowest packet = 1855
Flit latency average = 18.7938
	minimum = 7
	maximum = 38
Slowest flit = 1855
Fragmentation average = 0
	minimum = 0
	maximum = 0
Injected packet rate average = 0.0091875
	minimum = 0.0065 (at node 12)
	maximum = 0.013 (at node 5)
Accepted packet rate average = 0.00909375
	minimum = 0.0065 (at node 3)
	maximum = 0.013 (at node 5)
Injected flit rate average = 0.0091875
	minimum = 0.0065 (at node 12)
	maximum = 0.013 (at node 5)
Accepted flit rate average= 0.00909375
	minimum = 0.0065 (at node 3)
	maximum = 0.013 (at node 5)
Injected packet length average = 1
Accepted packet length average = 1
Total in-flight flits = 4 (4 measured)
latency change    = 0.0130974
throughput change = 0.0515464
Class 0:
Packet latency average = 18.6231
	minimum = 7
	maximum = 38
Network latency average = 18.6231
	minimum = 7
	maximum = 38
Slowest packet = 1855
Flit latency average = 18.6416
	minimum = 7
	maximum = 38
Slowest flit = 1855
Fragmentation average = 0
	minimum = 0
	maximum = 0
Injected packet rate average = 0.00941667
	minimum = 0.00633333 (at node 7)
	maximum = 0.0136667 (at node 5)
Accepted packet rate average = 0.00941667
	minimum = 0.00633333 (at node 13)
	maximum = 0.0136667 (at node 5)
Injected flit rate average = 0.00941667
	minimum = 0.00633333 (at node 7)
	maximum = 0.0136667 (at node 5)
Accepted flit rate average= 0.00941667
	minimum = 0.00633333 (at node 13)
	maximum = 0.0136667 (at node 5)
Injected packet length average = 1
Accepted packet length average = 1
Total in-flight flits = 1 (1 measured)
latency change    = 0.00764951
throughput change = 0.034292
Class 0:
Packet latency average = 18.5801
	minimum = 7
	maximum = 38
Network latency average = 18.5801
	minimum = 7
	maximum = 38
Slowest packet = 1855
Flit latency average = 18.5938
	minimum = 7
	maximum = 38
Slowest flit = 1855
Fragmentation average = 0
	minimum = 0
	maximum = 0
Injected packet rate average = 0.00965625
	minimum = 0.007 (at node 12)
	maximum = 0.01275 (at node 5)
Accepted packet rate average = 0.00957812
	minimum = 0.007 (at node 3)
	maximum = 0.0125 (at node 5)
Injected flit rate average = 0.00965625
	minimum = 0.007 (at node 12)
	maximum = 0.01275 (at node 5)
Accepted flit rate average= 0.00957812
	minimum = 0.007 (at node 3)
	maximum = 0.0125 (at node 5)
Injected packet length average = 1
Accepted packet length average = 1
Total in-flight flits = 6 (6 measured)
latency change    = 0.00231401
throughput change = 0.016857
Class 0:
Packet latency average = 18.8427
	minimum = 7
	maximum = 45
Network latency average = 18.8427
	minimum = 7
	maximum = 45
Slowest packet = 2272
Flit latency average = 18.8537
	minimum = 7
	maximum = 45
Slowest flit = 2272
Fragmentation average = 0
	minimum = 0
	maximum = 0
Injected packet rate average = 0.0093125
	minimum = 0.0064 (at node 12)
	maximum = 0.0116 (at node 8)
Accepted packet rate average = 0.0093125
	minimum = 0.0064 (at node 3)
	maximum = 0.0116 (at node 2)
Injected flit rate average = 0.0093125
	minimum = 0.0064 (at node 12)
	maximum = 0.0116 (at node 8)
Accepted flit rate average= 0.0093125
	minimum = 0.0064 (at node 3)
	maximum = 0.0116 (at node 2)
Injected packet length average = 1
Accepted packet length average = 1
Total in-flight flits = 1 (1 measured)
latency change    = 0.0139405
throughput change = 0.0285235
Draining all recorded packets ...
Draining remaining packets ...
Time taken is 8069 cycles
Class 0:
Packet latency average = 19.5636
	minimum = 7
	maximum = 37
Network latency average = 19.5636
	minimum = 7
	maximum = 37
Slowest packet = 2381
Flit latency average = 19.5636
	minimum = 7
	maximum = 37
Slowest flit = 2381
Fragmentation average = 0
	minimum = 0
	maximum = 0
Injected packet rate average = 0.0108125
	minimum = 0.007 (at node 4)
	maximum = 0.015 (at node 7)
Accepted packet rate average = 0.0103125
	minimum = 0.007 (at node 1)
	maximum = 0.014 (at node 13)
Injected flit rate average = 0.0108125
	minimum = 0.007 (at node 4)
	maximum = 0.015 (at node 7)
Accepted flit rate average= 0.0103125
	minimum = 0.007 (at node 1)
	maximum = 0.014 (at node 13)
Injected packet length average = 1
Accepted packet length average = 1
Total in-flight flits = 8 (0 measured)
latency change    = 1
throughput change = 1
Class 0:
Packet latency average = 19.6686
	minimum = 7
	maximum = 44
Network latency average = 19.6686
	minimum = 7
	maximum = 44
Slowest packet = 2622
Flit latency average = 19.6686
	minimum = 7
	maximum = 44
Slowest flit = 2622
Fragmentation average = 0
	minimum = 0
	maximum = 0
Injected packet rate average = 0.0106563
	minimum = 0.008 (at node 6)
	maximum = 0.015 (at node 12)
Accepted packet rate average = 0.0105625
	minimum = 0.0075 (at node 9)
	maximum = 0.015 (at node 3)
Injected flit rate average = 0.0106563
	minimum = 0.008 (at node 6)
	maximum = 0.015 (at node 12)
Accepted flit rate average= 0.0105625
	minimum = 0.0075 (at node 9)
	maximum = 0.015 (at node 3)
Injected packet length average = 1
Accepted packet length average = 1
Total in-flight flits = 3 (0 measured)
latency change    = 0.00533858
throughput change = 0.0236686
Class 0:
Packet latency average = 18.7805
	minimum = 7
	maximum = 37
Network latency average = 18.7805
	minimum = 7
	maximum = 37
Slowest packet = 2721
Flit latency average = 18.7805
	minimum = 7
	maximum = 37
Slowest flit = 2721
Fragmentation average = 0
	minimum = 0
	maximum = 0
Injected packet rate average = 0.0103125
	minimum = 0.004 (at node 2)
	maximum = 0.018 (at node 15)
Accepted packet rate average = 0.01025
	minimum = 0.004 (at node 8)
	maximum = 0.018 (at node 15)
Injected flit rate average = 0.0103125
	minimum = 0.004 (at node 2)
	maximum = 0.018 (at node 15)
Accepted flit rate average= 0.01025
	minimum = 0.004 (at node 8)
	maximum = 0.018 (at node 15)
Injected packet length average = 1
Accepted packet length average = 1
Total in-flight flits = 4 (0 measured)
latency change    = 0.0472912
throughput change = 0.0304878
Warmed up ...Time used is 3000 cycles
Class 0:
Packet latency average = 19.3353
	minimum = 7
	maximum = 41
Network latency average = 19.3353
	minimum = 7
	maximum = 41
Slowest packet = 2921
Flit latency average = 19.454
	minimum = 7
	maximum = 41
Slowest flit = 2921
Fragmentation average = 0
	minimum = 0
	maximum = 0
Injected packet rate average = 0.01075
	minimum = 0.004 (at node 14)
	maximum = 0.018 (at node 7)
Accepted packet rate average = 0.010875
	minimum = 0.004 (at node 11)
	maximum = 0.018 (at node 0)
Injected flit rate average = 0.01075
	minimum = 0.004 (at node 14)
	maximum = 0.018 (at node 7)
Accepted flit rate average= 0.010875
	minimum = 0.004 (at node 11)
	maximum = 0.018 (at node 0)
Injected packet length average = 1
Accepted packet length average = 1
Total in-flight flits = 2 (2 measured)
latency change    = 0.028694
throughput change = 0.0574713
Class 0:
Packet latency average = 19.7418
	minimum = 7
	maximum = 41
Network latency average = 19.7418
	minimum = 7
	maximum = 41
Slowest packet = 2921
Flit latency average = 19.7977
	minimum = 7
	maximum = 41
Slowest flit = 2921
Fragmentation average = 0
	minimum = 0
	maximum = 0
Injected packet rate average = 0.0105625
	minimum = 0.007 (at node 5)
	maximum = 0.0145 (at node 4)
Accepted packet rate average = 0.0106563
	minimum = 0.007 (at node 5)
	maximum = 0.015 (at node 1)
Injected flit rate average = 0.0105625
	minimum = 0.007 (at node 5)
	maximum = 0.0145 (at node 4)
Accepted flit rate average= 0.0106563
	minimum = 0.007 (at node 5)
	maximum = 0.015 (at node 1)
Injected packet length average = 1
Accepted packet length average = 1
Total in-flight flits = 1 (1 measured)
latency change    = 0.0205931
throughput change = 0.0205279
Class 0:
Packet latency average = 19.5514
	minimum = 7
	maximum = 41
Network latency average = 19.5514
	minimum = 7
	maximum = 41
Slowest packet = 2921
Flit latency average = 19.5902
	minimum = 7
	maximum = 41
Slowest flit = 2921
Fragmentation average = 0
	minimum = 0
	maximum = 0
Injected packet rate average = 0.0105625
	minimum = 0.007 (at node 5)
	maximum = 0.0146667 (at node 4)
Accepted packet rate average = 0.010625
	minimum = 0.007 (at node 5)
	maximum = 0.015 (at node 1)
Injected flit rate average = 0.0105625
	minimum = 0.007 (at node 5)
	maximum = 0.0146667 (at node 4)
Accepted flit rate average= 0.010625
	minimum = 0.007 (at node 5)
	maximum = 0.015 (at node 1)
Injected packet length average = 1
Accepted packet length average = 1
Total in-flight flits = 1 (1 measured)
latency change    = 0.00974132
throughput change = 0.00294118
Class 0:
Packet latency average = 19.3422
	minimum = 7
	maximum = 41
Network latency average = 19.3422
	minimum = 7
	maximum = 41
Slowest packet = 2921
Flit latency average = 19.3726
	minimum = 7
	maximum = 41
Slowest flit = 2921
Fragmentation average = 0
	minimum = 0
	maximum = 0
Injected packet rate average = 0.0105938
	minimum = 0.0075 (at node 5)
	maximum = 0.01525 (at node 4)
Accepted packet rate average = 0.0106094
	minimum = 0.0075 (at node 5)
	maximum = 0.0155 (at node 1)
Injected flit rate average = 0.0105938
	minimum = 0.0075 (at node 5)
	maximum = 0.01525 (at node 4)
Accepted flit rate average= 0.0106094
	minimum = 0.0075 (at node 5)
	maximum = 0.0155 (at node 1)
Injected packet length average = 1
Accepted packet length average = 1
Total in-flight flits = 3 (3 measured)
latency change    = 0.0108137
throughput change = 0.00147275
Draining all recorded packets ...
Draining remaining packets ...
Time taken is 7024 cycles
Class 0:
Packet latency average = 19.1714
	minimum = 7
	maximum = 41
Network latency average = 19.1714
	minimum = 7
	maximum = 41
Slowest packet = 3565
Flit latency average = 19.1714
	minimum = 7
	maximum = 41
Slowest flit = 3565
Fragmentation average = 0
	minimum = 0
	maximum = 0
Injected packet rate average = 0.0089375
	minimum = 0.004 (at node 6)
	maximum = 0.016 (at node 15)
Accepted packet rate average = 0.00875
	minimum = 0.004 (at node 9)
	maximum = 0.016 (at node 15)
Injected flit rate average = 0.0089375
	minimum = 0.004 (at node 6)
	maximum = 0.016 (at node 15)
Accepted flit rate average= 0.00875
	minimum = 0.004 (at node 9)
	maximum = 0.016 (at node 15)
Injected packet length average = 1
Accepted packet length average = 1
Total in-flight flits = 3 (0 measured)
latency change    = 1
throughput change = 1
Class 0:
Packet latency average = 19.4503
	minimum = 7
	maximum = 41
Network latency average = 19.4503
	minimum = 7
	maximum = 41
Slowest packet = 3565
Flit latency average = 19.4503
	minimum = 7
	maximum = 41
Slowest flit = 3565
Fragmentation average = 0
	minimum = 0
	maximum = 0
Injected packet rate average = 0.0095
	minimum = 0.0045 (at node 7)
	maximum = 0.0135 (at node 15)
Accepted packet rate average = 0.0094375
	minimum = 0.0045 (at node 13)
	maximum = 0.0135 (at node 15)
Injected flit rate average = 0.0095
	minimum = 0.0045 (at node 7)
	maximum = 0.0135 (at node 15)
Accepted flit rate average= 0.0094375
	minimum = 0.0045 (at node 13)
	maximum = 0.0135 (at node 15)
Injected packet length average = 1
Accepted packet length average = 1
Total in-flight flits = 2 (0 measured)
latency change    = 0.0143392
throughput change = 0.0728477
Class 0:
Packet latency average = 20.546
	minimum = 7
	maximum = 45
Network latency average = 20.546
	minimum = 7
	maximum = 45
Slowest packet = 3867
Flit latency average = 20.546
	minimum = 7
	maximum = 45
Slowest flit = 3867
Fragmentation average = 0
	minimum = 0
	maximum = 0
Injected packet rate average = 0.0103125
	minimum = 0.005 (at node 9)
	maximum = 0.016 (at node 8)
Accepted packet rate average = 0.0101875
	minimum = 0.004 (at node 6)
	maximum = 0.016 (at node 2)
Injected flit rate average = 0.0103125
	minimum = 0.005 (at node 9)
	maximum = 0.016 (at node 8)
Accepted flit rate average= 0.0101875
	minimum = 0.004 (at node 6)
	maximum = 0.016 (at node 2)
Injected packet length average = 1
Accepted packet length average = 1
Total in-flight flits = 4 (0 measured)
latency change    = 0.0533282
throughput change = 0.0736196
Warmed up ...Time used is 3000 cycles
Class 0:
Packet latency average = 18.5436
	minimum = 7
	maximum = 37
Network latency average = 18.5436
	minimum = 7
	maximum = 37
Slowest packet = 4031
Flit latency average = 18.634
	minimum = 7
	maximum = 37
Slowest flit = 4028
Fragmentation average = 0
	minimum = 0
	maximum = 0
Injected packet rate average = 0.0095
	minimum = 0.006 (at node 3)
	maximum = 0.014 (at node 13)
Accepted packet rate average = 0.0095625
	minimum = 0.006 (at node 9)
	maximum = 0.015 (at node 7)
Injected flit rate average = 0.0095
	minimum = 0.006 (at node 3)
	maximum = 0.014 (at node 13)
Accepted flit rate average= 0.0095625
	minimum = 0.006 (at node 9)
	maximum = 0.015 (at node 7)
Injected packet length average = 1
Accepted packet length average = 1
Total in-flight flits = 3 (3 measured)
latency change    = 0.107983
throughput change = 0.0653595
Class 0:
Packet latency average = 19.0453
	minimum = 7
	maximum = 37
Network latency average = 19.0453
	minimum = 7
	maximum = 37
Slowest packet = 4031
Flit latency average = 19.0831
	minimum = 7
	maximum = 37
Slowest flit = 4028
Fragmentation average = 0
	minimum = 0
	maximum = 0
Injected packet rate average = 0.00971875
	minimum = 0.0075 (at node 3)
	maximum = 0.013 (at node 14)
Accepted packet rate average = 0.00978125
	minimum = 0.008 (at node 3)
	maximum = 0.0125 (at node 11)
Injected flit rate average = 0.00971875
	minimum = 0.0075 (at node 3)
	maximum = 0.013 (at node 14)
Accepted flit rate average= 0.00978125
	minimum = 0.008 (at node 3)
	maximum = 0.0125 (at node 11)
Injected packet length average = 1
Accepted packet length average = 1
Total in-flight flits = 2 (2 measured)
latency change    = 0.0263416
throughput change = 0.0223642
Class 0:
Packet latency average = 19.2577
	minimum = 7
	maximum = 37
Network latency average = 19.2577
	minimum = 7
	maximum = 37
Slowest packet = 4031
Flit latency average = 19.2802
	minimum = 7
	maximum = 37
Slowest flit = 4028
Fragmentation average = 0
	minimum = 0
	maximum = 0
Injected packet rate average = 0.010125
	minimum = 0.008 (at node 12)
	maximum = 0.012 (at node 7)
Accepted packet rate average = 0.0101875
	minimum = 0.008 (at node 3)
	maximum = 0.012 (at node 13)
Injected flit rate average = 0.010125
	minimum = 0.008 (at node 12)
	maximum = 0.012 (at node 7)
Accepted flit rate average= 0.0101875
	minimum = 0.008 (at node 3)
	maximum = 0.012 (at node 13)
Injected packet length average = 1
Accepted packet length average = 1
Total in-flight flits = 1 (1 measured)
latency change    = 0.0110306
throughput change = 0.0398773
Class 0:
Packet latency average = 19.2593
	minimum = 7
	maximum = 37
Network latency average = 19.2593
	minimum = 7
	maximum = 37
Slowest packet = 4031
Flit latency average = 19.2762
	minimum = 7
	maximum = 37
Slowest flit = 4028
Fragmentation average = 0
	minimum = 0
	maximum = 0
Injected packet rate average = 0.0100938
	minimum = 0.008 (at node 3)
	maximum = 0.012 (at node 7)
Accepted packet rate average = 0.010125
	minimum = 0.00825 (at node 12)
	maximum = 0.012 (at node 13)
Injected flit rate average = 0.0100938
	minimum = 0.008 (at node 3)
	maximum = 0.012 (at node 7)
Accepted flit rate average= 0.010125
	minimum = 0.00825 (at node 12)
	maximum = 0.012 (at node 13)
Injected packet length average = 1
Accepted packet length average = 1
Total in-flight flits = 2 (2 measured)
latency change    = 8.2288e-05
throughput change = 0.00617284
Draining all recorded packets ...
Draining remaining packets ...
Time taken is 7037 cycles
Class 0:
Packet latency average = 19.8061
	minimum = 7
	maximum = 40
Network latency average = 19.8061
	minimum = 7
	maximum = 40
Slowest packet = 4757
Flit latency average = 19.8061
	minimum = 7
	maximum = 40
Slowest flit = 4757
Fragmentation average = 0
	minimum = 0
	maximum = 0
Injected packet rate average = 0.0103125
	minimum = 0.007 (at node 0)
	maximum = 0.016 (at node 6)
Accepted packet rate average = 0.0103125
	minimum = 0.007 (at node 0)
	maximum = 0.016 (at node 9)
Injected flit rate average = 0.0103125
	minimum = 0.007 (at node 0)
	maximum = 0.016 (at node 6)
Accepted flit rate average= 0.0103125
	minimum = 0.007 (at node 0)
	maximum = 0.016 (at node 9)
Injected packet length average = 1
Accepted packet length average = 1
Total in-flight flits = 0 (0 measured)
latency change    = 1
throughput change = 1
Class 0:
Packet latency average = 19.0898
	minimum = 7
	maximum = 40
Network latency average = 19.0898
	minimum = 7
	maximum = 40
Slowest packet = 4757
Flit latency average = 19.0898
	minimum = 7
	maximum = 40
Slowest flit = 4757
Fragmentation average = 0
	minimum = 0
	maximum = 0
Injected packet rate average = 0.0105625
	minimum = 0.0065 (at node 13)
	maximum = 0.017 (at node 6)
Accepted packet rate average = 0.0104375
	minimum = 0.0065 (at node 7)
	maximum = 0.017 (at node 9)
Injected flit rate average = 0.0105625
	minimum = 0.0065 (at node 13)
	maximum = 0.017 (at node 6)
Accepted flit rate average= 0.0104375
	minimum = 0.0065 (at node 7)
	maximum = 0.017 (at node 9)
Injected packet length average = 1
Accepted packet length average = 1
Total in-flight flits = 4 (0 measured)
latency change    = 0.0375195
throughput change = 0.011976
Class 0:
Packet latency average = 19.8621
	minimum = 7
	maximum = 37
Network latency average = 19.8621
	minimum = 7
	maximum = 37
Slowest packet = 5014
Flit latency average = 19.8621
	minimum = 7
	maximum = 37
Slowest flit = 5014
Fragmentation average = 0
	minimum = 0
	maximum = 0
Injected packet rate average = 0.0090625
	minimum = 0.002 (at node 4)
	maximum = 0.016 (at node 2)
Accepted packet rate average = 0.0090625
	minimum = 0.001 (at node 1)
	maximum = 0.014 (at node 8)
Injected flit rate average = 0.0090625
	minimum = 0.002 (at node 4)
	maximum = 0.016 (at node 2)
Accepted flit rate average= 0.0090625
	minimum = 0.001 (at node 1)
	maximum = 0.014 (at node 8)
Injected packet length average = 1
Accepted packet length average = 1
Total in-flight flits = 4 (0 measured)
latency change    = 0.0388806
throughput change = 0.151724
Warmed up ...Time used is 3000 cycles
Class 0:
Packet latency average = 18.5698
	minimum = 7
	maximum = 37
Network latency average = 18.5698
	minimum = 7
	maximum = 37
Slowest packet = 5165
Flit latency average = 18.6995
	minimum = 7
	maximum = 37
Slowest flit = 5165
Fragmentation average = 0
	minimum = 0
	maximum = 0
Injected packet rate average = 0.011375
	minimum = 0.005 (at node 3)
	maximum = 0.016 (at node 6)
Accepted packet rate average = 0.0114375
	minimum = 0.005 (at node 12)
	maximum = 0.016 (at node 9)
Injected flit rate average = 0.011375
	minimum = 0.005 (at node 3)
	maximum = 0.016 (at node 6)
Accepted flit rate average= 0.0114375
	minimum = 0.005 (at node 12)
	maximum = 0.016 (at node 9)
Injected packet length average = 1
Accepted packet length average = 1
Total in-flight flits = 3 (3 measured)
latency change    = 0.0695879
throughput change = 0.20765
Class 0:
Packet latency average = 19.2267
	minimum = 7
	maximum = 37
Network latency average = 19.2267
	minimum = 7
	maximum = 37
Slowest packet = 5165
Flit latency average = 19.2874
	minimum = 7
	maximum = 37
Slowest flit = 5165
Fragmentation average = 0
	minimum = 0
	maximum = 0
Injected packet rate average = 0.0108437
	minimum = 0.0065 (at node 8)
	maximum = 0.015 (at node 14)
Accepted packet rate average = 0.010875
	minimum = 0.0065 (at node 2)
	maximum = 0.015 (at node 11)
Injected flit rate average = 0.0108437
	minimum = 0.0065 (at node 8)
	maximum = 0.015 (at node 14)
Accepted flit rate average= 0.010875
	minimum = 0.0065 (at node 2)
	maximum = 0.015 (at node 11)
Injected packet length average = 1
Accepted packet length average = 1
Total in-flight flits = 3 (3 measured)
latency change    = 0.0341666
throughput change = 0.0517241
Class 0:
Packet latency average = 19.2288
	minimum = 7
	maximum = 38
Network latency average = 19.2288
	minimum = 7
	maximum = 38
Slowest packet = 5666
Flit latency average = 19.2691
	minimum = 7
	maximum = 38
Slowest flit = 5666
Fragmentation average = 0
	minimum = 0
	maximum = 0
Injected packet rate average = 0.010875
	minimum = 0.008 (at node 5)
	maximum = 0.0146667 (at node 11)
Accepted packet rate average = 0.0109167
	minimum = 0.008 (at node 5)
	maximum = 0.0146667 (at node 14)
Injected flit rate average = 0.010875
	minimum = 0.008 (at node 5)
	maximum = 0.0146667 (at node 11)
Accepted flit rate average= 0.0109167
	minimum = 0.008 (at node 5)
	maximum = 0.0146667 (at node 14)
Injected packet length average = 1
Accepted packet length average = 1
Total in-flight flits = 2 (2 measured)
latency change    = 0.000109313
throughput change = 0.00381679
Class 0:
Packet latency average = 19.4528
	minimum = 7
	maximum = 38
Network latency average = 19.4528
	minimum = 7
	maximum = 38
Slowest packet = 5666
Flit latency average = 19.482
	minimum = 7
	maximum = 38
Slowest flit = 5666
Fragmentation average = 0
	minimum = 0
	maximum = 0
Injected packet rate average = 0.0108594
	minimum = 0.00875 (at node 2)
	maximum = 0.0145 (at node 13)
Accepted packet rate average = 0.0108281
	minimum = 0.009 (at node 12)
	maximum = 0.0145 (at node 7)
Injected flit rate average = 0.0108594
	minimum = 0.00875 (at node 2)
	maximum = 0.0145 (at node 13)
Accepted flit rate average= 0.0108281
	minimum = 0.009 (at node 12)
	maximum = 0.0145 (at node 7)
Injected packet length average = 1
Accepted packet length average = 1
Total in-flight flits = 6 (6 measured)
latency change    = 0.0115142
throughput change = 0.00817701
Class 0:
Packet latency average = 19.4561
	minimum = 7
	maximum = 38
Network latency average = 19.4561
	minimum = 7
	maximum = 38
Slowest packet = 5666
Flit latency average = 19.4793
	minimum = 7
	maximum = 38
Slowest flit = 5666
Fragmentation average = 0
	minimum = 0
	maximum = 0
Injected packet rate average = 0.0108875
	minimum = 0.0086 (at node 3)
	maximum = 0.014 (at node 13)
Accepted packet rate average = 0.010875
	minimum = 0.0084 (at node 12)
	maximum = 0.0142 (at node 7)
Injected flit rate average = 0.0108875
	minimum = 0.0086 (at node 3)
	maximum = 0.014 (at node 13)
Accepted flit rate average= 0.010875
	minimum = 0.0084 (at node 12)
	maximum = 0.0142 (at node 7)
Injected packet length average = 1
Accepted packet length average = 1
Total in-flight flits = 5 (5 measured)
latency change    = 0.000169094
throughput change = 0.00431034
Draining all recorded packets ...
Draining remaining packets ...
Time taken is 8033 cycles
Class 0:
Packet latency average = 18.6752
	minimum = 7
	maximum = 38
Network latency average = 18.6752
	minimum = 7
	maximum = 38
Slowest packet = 6182
Flit latency average = 18.6752
	minimum = 7
	maximum = 38
Slowest flit = 6182
Fragmentation average = 0
	minimum = 0
	maximum = 0
Injected packet rate average = 0.0099375
	minimum = 0.005 (at node 7)
	maximum = 0.015 (at node 11)
Accepted packet rate average = 0.0098125
	minimum = 0.005 (at node 13)
	maximum = 0.015 (at node 14)
Injected flit rate average = 0.0099375
	minimum = 0.005 (at node 7)
	maximum = 0.015 (at node 11)
Accepted flit rate average= 0.0098125
	minimum = 0.005 (at node 13)
	maximum = 0.015 (at node 14)
Injected packet length average = 1
Accepted packet length average = 1
Total in-flight flits = 2 (0 measured)
latency change    = 1
throughput change = 1
Class 0:
Packet latency average = 19.1242
	minimum = 7
	maximum = 38
Network latency average = 19.1242
	minimum = 7
	maximum = 38
Slowest packet = 6182
Flit latency average = 19.1242
	minimum = 7
	maximum = 38
Slowest flit = 6182
Fragmentation average = 0
	minimum = 0
	maximum = 0
Injected packet rate average = 0.00965625
	minimum = 0.008 (at node 2)
	maximum = 0.014 (at node 11)
Accepted packet rate average = 0.0095625
	minimum = 0.008 (at node 1)
	maximum = 0.0135 (at node 14)
Injected flit rate average = 0.00965625
	minimum = 0.008 (at node 2)
	maximum = 0.014 (at node 11)
Accepted flit rate average= 0.0095625
	minimum = 0.008 (at node 1)
	maximum = 0.0135 (at node 14)
Injected packet length average = 1
Accepted packet length average = 1
Total in-flight flits = 3 (0 measured)
latency change    = 0.0234794
throughput change = 0.0261438
Class 0:
Packet latency average = 21.1509
	minimum = 7
	maximum = 46
Network latency average = 21.1509
	minimum = 7
	maximum = 46
Slowest packet = 6447
Flit latency average = 21.1509
	minimum = 7
	maximum = 46
Slowest flit = 6447
Fragmentation average = 0
	minimum = 0
	maximum = 0
Injected packet rate average = 0.01
	minimum = 0.005 (at node 13)
	maximum = 0.016 (at node 7)
Accepted packet rate average = 0.0099375
	minimum = 0.005 (at node 6)
	maximum = 0.016 (at node 13)
Injected flit rate average = 0.01
	minimum = 0.005 (at node 13)
	maximum = 0.016 (at node 7)
Accepted flit rate average= 0.0099375
	minimum = 0.005 (at node 6)
	maximum = 0.016 (at node 13)
Injected packet length average = 1
Accepted packet length average = 1
Total in-flight flits = 4 (0 measured)
latency change    = 0.0958236
throughput change = 0.0377358
Warmed up ...Time used is 3000 cycles
Class 0:
Packet latency average = 17.6646
	minimum = 7
	maximum = 37
Network latency average = 17.6646
	minimum = 7
	maximum = 37
Slowest packet = 6513
Flit latency average = 18.0121
	minimum = 7
	maximum = 37
Slowest flit = 6498
Fragmentation average = 0
	minimum = 0
	maximum = 0
Injected packet rate average = 0.0105
	minimum = 0.003 (at node 1)
	maximum = 0.019 (at node 0)
Accepted packet rate average = 0.0103125
	minimum = 0.003 (at node 4)
	maximum = 0.019 (at node 0)
Injected flit rate average = 0.0105
	minimum = 0.003 (at node 1)
	maximum = 0.019 (at node 0)
Accepted flit rate average= 0.0103125
	minimum = 0.003 (at node 4)
	maximum = 0.019 (at node 0)
Injected packet length average = 1
Accepted packet length average = 1
Total in-flight flits = 7 (7 measured)
latency change    = 0.197364
throughput change = 0.0363636
Class 0:
Packet latency average = 18.0549
	minimum = 7
	maximum = 43
Network latency average = 18.0549
	minimum = 7
	maximum = 43
Slowest packet = 6754
Flit latency average = 18.2065
	minimum = 7
	maximum = 43
Slowest flit = 6754
Fragmentation average = 0
	minimum = 0
	maximum = 0
Injected packet rate average = 0.0115625
	minimum = 0.0065 (at node 12)
	maximum = 0.018 (at node 0)
Accepted packet rate average = 0.0115
	minimum = 0.007 (at node 3)
	maximum = 0.018 (at node 0)
Injected flit rate average = 0.0115625
	minimum = 0.0065 (at node 12)
	maximum = 0.018 (at node 0)
Accepted flit rate average= 0.0115
	minimum = 0.007 (at node 3)
	maximum = 0.018 (at node 0)
Injected packet length average = 1
Accepted packet length average = 1
Total in-flight flits = 6 (6 measured)
latency change    = 0.02162
throughput change = 0.103261
Class 0:
Packet latency average = 18.4408
	minimum = 7
	maximum = 43
Network latency average = 18.4408
	minimum = 7
	maximum = 43
Slowest packet = 6754
Flit latency average = 18.5436
	minimum = 7
	maximum = 43
Slowest flit = 6754
Fragmentation average = 0
	minimum = 0
	maximum = 0
Injected packet rate average = 0.0109375
	minimum = 0.00566667 (at node 12)
	maximum = 0.0143333 (at node 0)
Accepted packet rate average = 0.011
	minimum = 0.006 (at node 3)
	maximum = 0.0143333 (at node 0)
Injected flit rate average = 0.0109375
	minimum = 0.00566667 (at node 12)
	maximum = 0.0143333 (at node 0)
Accepted flit rate average= 0.011
	minimum = 0.006 (at node 3)
	maximum = 0.0143333 (at node 0)
Injected packet length average = 1
Accepted packet length average = 1
Total in-flight flits = 1 (1 measured)
latency change    = 0.0209261
throughput change = 0.0454545
Class 0:
Packet latency average = 18.8017
	minimum = 7
	maximum = 45
Network latency average = 18.8017
	minimum = 7
	maximum = 45
Slowest packet = 7154
Flit latency average = 18.8783
	minimum = 7
	maximum = 45
Slowest flit = 7154
Fragmentation average = 0
	minimum = 0
	maximum = 0
Injected packet rate average = 0.0107656
	minimum = 0.0065 (at node 12)
	maximum = 0.01375 (at node 0)
Accepted packet rate average = 0.0107812
	minimum = 0.00675 (at node 3)
	maximum = 0.01375 (at node 0)
Injected flit rate average = 0.0107656
	minimum = 0.0065 (at node 12)
	maximum = 0.01375 (at node 0)
Accepted flit rate average= 0.0107812
	minimum = 0.00675 (at node 3)
	maximum = 0.01375 (at node 0)
Injected packet length average = 1
Accepted packet length average = 1
Total in-flight flits = 3 (3 measured)
latency change    = 0.0191955
throughput change = 0.0202899
Class 0:
Packet latency average = 19.0537
	minimum = 7
	maximum = 45
Network latency average = 19.0537
	minimum = 7
	maximum = 45
Slowest packet = 7154
Flit latency average = 19.1152
	minimum = 7
	maximum = 45
Slowest flit = 7154
Fragmentation average = 0
	minimum = 0
	maximum = 0
Injected packet rate average = 0.01055
	minimum = 0.0076 (at node 12)
	maximum = 0.013 (at node 7)
Accepted packet rate average = 0.010525
	minimum = 0.0072 (at node 3)
	maximum = 0.013 (at node 13)
Injected flit rate average = 0.01055
	minimum = 0.0076 (at node 12)
	maximum = 0.013 (at node 7)
Accepted flit rate average= 0.010525
	minimum = 0.0072 (at node 3)
	maximum = 0.013 (at node 13)
Injected packet length average = 1
Accepted packet length average = 1
Total in-flight flits = 6 (6 measured)
latency change    = 0.0132232
throughput change = 0.0243468
Draining all recorded packets ...
Draining remaining packets ...
Time taken is 8031 cycles
Class 0:
Packet latency average = 19.2716
	minimum = 7
	maximum = 42
Network latency average = 19.2716
	minimum = 7
	maximum = 42
Slowest packet = 7475
Flit latency average = 19.2716
	minimum = 7
	maximum = 42
Slowest flit = 7475
Fragmentation average = 0
	minimum = 0
	maximum = 0
Injected packet rate average = 0.0104375
	minimum = 0.007 (at node 0)
	maximum = 0.015 (at node 13)
Accepted packet rate average = 0.010125
	minimum = 0.007 (at node 0)
	maximum = 0.014 (at node 7)
Injected flit rate average = 0.0104375
	minimum = 0.007 (at node 0)
	maximum = 0.015 (at node 13)
Accepted flit rate average= 0.010125
	minimum = 0.007 (at node 0)
	maximum = 0.014 (at node 7)
Injected packet length average = 1
Accepted packet length average = 1
Total in-flight flits = 5 (0 measured)
latency change    = 1
throughput change = 1
Class 0:
Packet latency average = 19.4554
	minimum = 7
	maximum = 42
Network latency average = 19.4554
	minimum = 7
	maximum = 42
Slowest packet = 7475
Flit latency average = 19.4554
	minimum = 7
	maximum = 42
Slowest flit = 7475
Fragmentation average = 0
	minimum = 0
	maximum = 0
Injected packet rate average = 0.00990625
	minimum = 0.0075 (at node 0)
	maximum = 0.013 (at node 11)
Accepted packet rate average = 0.0098125
	minimum = 0.0075 (at node 0)
	maximum = 0.013 (at node 14)
Injected flit rate average = 0.00990625
	minimum = 0.0075 (at node 0)
	maximum = 0.013 (at node 11)
Accepted flit rate average= 0.0098125
	minimum = 0.0075 (at node 0)
	maximum = 0.013 (at node 14)
Injected packet length average = 1
Accepted packet length average = 1
Total in-flight flits = 3 (0 measured)
latency change    = 0.00944771
throughput change = 0.0318471
Class 0:
Packet latency average = 19.7536
	minimum = 7
	maximum = 45
Network latency average = 19.7536
	minimum = 7
	maximum = 45
Slowest packet = 7798
Flit latency average = 19.7536
	minimum = 7
	maximum = 45
Slowest flit = 7798
Fragmentation average = 0
	minimum = 0
	maximum = 0
Injected packet rate average = 0.0085625
	minimum = 0.004 (at node 3)
	maximum = 0.013 (at node 5)
Accepted packet rate average = 0.008625
	minimum = 0.004 (at node 12)
	maximum = 0.014 (at node 5)
Injected flit rate average = 0.0085625
	minimum = 0.004 (at node 3)
	maximum = 0.013 (at node 5)
Accepted flit rate average= 0.008625
	minimum = 0.004 (at node 12)
	maximum = 0.014 (at node 5)
Injected packet length average = 1
Accepted packet length average = 1
Total in-flight flits = 2 (0 measured)
latency change    = 0.0150964
throughput change = 0.137681
Warmed up ...Time used is 3000 cycles
Class 0:
Packet latency average = 20.6892
	minimum = 7
	maximum = 46
Network latency average = 20.6892
	minimum = 7
	maximum = 46
Slowest packet = 7875
Flit latency average = 20.7067
	minimum = 7
	maximum = 46
Slowest flit = 7875
Fragmentation average = 0
	minimum = 0
	maximum = 0
Injected packet rate average = 0.009375
	minimum = 0.003 (at node 8)
	maximum = 0.016 (at node 12)
Accepted packet rate average = 0.009375
	minimum = 0.004 (at node 0)
	maximum = 0.015 (at node 3)
Injected flit rate average = 0.009375
	minimum = 0.003 (at node 8)
	maximum = 0.016 (at node 12)
Accepted flit rate average= 0.009375
	minimum = 0.004 (at node 0)
	maximum = 0.015 (at node 3)
Injected packet length average = 1
Accepted packet length average = 1
Total in-flight flits = 2 (2 measured)
latency change    = 0.04522
throughput change = 0.08
Class 0:
Packet latency average = 20.3471
	minimum = 7
	maximum = 46
Network latency average = 20.3471
	minimum = 7
	maximum = 46
Slowest packet = 7875
Flit latency average = 20.3584
	minimum = 7
	maximum = 46
Slowest flit = 7875
Fragmentation average = 0
	minimum = 0
	maximum = 0
Injected packet rate average = 0.009125
	minimum = 0.0035 (at node 8)
	maximum = 0.013 (at node 6)
Accepted packet rate average = 0.00915625
	minimum = 0.004 (at node 2)
	maximum = 0.0135 (at node 9)
Injected flit rate average = 0.009125
	minimum = 0.0035 (at node 8)
	maximum = 0.013 (at node 6)
Accepted flit rate average= 0.00915625
	minimum = 0.004 (at node 2)
	maximum = 0.0135 (at node 9)
Injected packet length average = 1
Accepted packet length average = 1
Total in-flight flits = 1 (1 measured)
latency change    = 0.0168137
throughput change = 0.0238908
Class 0:
Packet latency average = 20.1642
	minimum = 7
	maximum = 46
Network latency average = 20.1642
	minimum = 7
	maximum = 46
Slowest packet = 7875
Flit latency average = 20.1719
	minimum = 7
	maximum = 46
Slowest flit = 7875
Fragmentation average = 0
	minimum = 0
	maximum = 0
Injected packet rate average = 0.00991667
	minimum = 0.00633333 (at node 8)
	maximum = 0.0123333 (at node 13)
Accepted packet rate average = 0.0099375
	minimum = 0.00633333 (at node 6)
	maximum = 0.0123333 (at node 7)
Injected flit rate average = 0.00991667
	minimum = 0.00633333 (at node 8)
	maximum = 0.0123333 (at node 13)
Accepted flit rate average= 0.0099375
	minimum = 0.00633333 (at node 6)
	maximum = 0.0123333 (at node 7)
Injected packet length average = 1
Accepted packet length average = 1
Total in-flight flits = 1 (1 measured)
latency change    = 0.00906896
throughput change = 0.0786164
Class 0:
Packet latency average = 20.0932
	minimum = 7
	maximum = 46
Network latency average = 20.0932
	minimum = 7
	maximum = 46
Slowest packet = 7875
Flit latency average = 20.0991
	minimum = 7
	maximum = 46
Slowest flit = 7875
Fragmentation average = 0
	minimum = 0
	maximum = 0
Injected packet rate average = 0.0100938
	minimum = 0.00625 (at node 9)
	maximum = 0.014 (at node 3)
Accepted packet rate average = 0.0100938
	minimum = 0.00625 (at node 6)
	maximum = 0.014 (at node 12)
Injected flit rate average = 0.0100938
	minimum = 0.00625 (at node 9)
	maximum = 0.014 (at node 3)
Accepted flit rate average= 0.0100938
	minimum = 0.00625 (at node 6)
	maximum = 0.014 (at node 12)
Injected packet length average = 1
Accepted packet length average = 1
Total in-flight flits = 2 (2 measured)
latency change    = 0.00353567
throughput change = 0.0154799
Class 0:
Packet latency average = 19.8197
	minimum = 7
	maximum = 46
Network latency average = 19.8197
	minimum = 7
	maximum = 46
Slowest packet = 7875
Flit latency average = 19.8254
	minimum = 7
	maximum = 46
Slowest flit = 7875
Fragmentation average = 0
	minimum = 0
	maximum = 0
Injected packet rate average = 0.009675
	minimum = 0.0062 (at node 8)
	maximum = 0.0136 (at node 3)
Accepted packet rate average = 0.0096625
	minimum = 0.0062 (at node 6)
	maximum = 0.0134 (at node 12)
Injected flit rate average = 0.009675
	minimum = 0.0062 (at node 8)
	maximum = 0.0136 (at node 3)
Accepted flit rate average= 0.0096625
	minimum = 0.0062 (at node 6)
	maximum = 0.0134 (at node 12)
Injected packet length average = 1
Accepted packet length average = 1
Total in-flight flits = 3 (3 measured)
latency change    = 0.013797
throughput change = 0.0446313
Class 0:
Packet latency average = 19.834
	minimum = 7
	maximum = 46
Network latency average = 19.834
	minimum = 7
	maximum = 46
Slowest packet = 7875
Flit latency average = 19.8387
	minimum = 7
	maximum = 46
Slowest flit = 7875
Fragmentation average = 0
	minimum = 0
	maximum = 0
Injected packet rate average = 0.00978125
	minimum = 0.007 (at node 8)
	maximum = 0.0135 (at node 3)
Accepted packet rate average = 0.00975
	minimum = 0.007 (at node 2)
	maximum = 0.0133333 (at node 12)
Injected flit rate average = 0.00978125
	minimum = 0.007 (at node 8)
	maximum = 0.0135 (at node 3)
Accepted flit rate average= 0.00975
	minimum = 0.007 (at node 2)
	maximum = 0.0133333 (at node 12)
Injected packet length average = 1
Accepted packet length average = 1
Total in-flight flits = 5 (5 measured)
latency change    = 0.000722619
throughput change = 0.00897436
Draining all recorded packets ...
Draining remaining packets ...
Time taken is 9049 cycles
Class 0:
Packet latency average = 19.8881
	minimum = 7
	maximum = 37
Network latency average = 19.8881
	minimum = 7
	maximum = 37
Slowest packet = 8749
Flit latency average = 19.8881
	minimum = 7
	maximum = 37
Slowest flit = 8749
Fragmentation average = 0
	minimum = 0
	maximum = 0
Injected packet rate average = 0.009125
	minimum = 0.005 (at node 6)
	maximum = 0.015 (at node 12)
Accepted packet rate average = 0.0089375
	minimum = 0.004 (at node 2)
	maximum = 0.015 (at node 3)
Injected flit rate average = 0.009125
	minimum = 0.005 (at node 6)
	maximum = 0.015 (at node 12)
Accepted flit rate average= 0.0089375
	minimum = 0.004 (at node 2)
	maximum = 0.015 (at node 3)
Injected packet length average = 1
Accepted packet length average = 1
Total in-flight flits = 3 (0 measured)
latency change    = 1
throughput change = 1
Class 0:
Packet latency average = 20.2867
	minimum = 7
	maximum = 37
Network latency average = 20.2867
	minimum = 7
	maximum = 37
Slowest packet = 8749
Flit latency average = 20.2867
	minimum = 7
	maximum = 37
Slowest flit = 8749
Fragmentation average = 0
	minimum = 0
	maximum = 0
Injected packet rate average = 0.00921875
	minimum = 0.0065 (at node 6)
	maximum = 0.014 (at node 12)
Accepted packet rate average = 0.00915625
	minimum = 0.0065 (at node 9)
	maximum = 0.0135 (at node 3)
Injected flit rate average = 0.00921875
	minimum = 0.0065 (at node 6)
	maximum = 0.014 (at node 12)
Accepted flit rate average= 0.00915625
	minimum = 0.0065 (at node 9)
	maximum = 0.0135 (at node 3)
Injected packet length average = 1
Accepted packet length average = 1
Total in-flight flits = 2 (0 measured)
latency change    = 0.0196472
throughput change = 0.0238908
Class 0:
Packet latency average = 20.2876
	minimum = 7
	maximum = 39
Network latency average = 20.2876
	minimum = 7
	maximum = 39
Slowest packet = 9145
Flit latency average = 20.2876
	minimum = 7
	maximum = 39
Slowest flit = 9145
Fragmentation average = 0
	minimum = 0
	maximum = 0
Injected packet rate average = 0.009625
	minimum = 0.004 (at node 5)
	maximum = 0.015 (at node 13)
Accepted packet rate average = 0.0095625
	minimum = 0.004 (at node 5)
	maximum = 0.014 (at node 7)
Injected flit rate average = 0.009625
	minimum = 0.004 (at node 5)
	maximum = 0.015 (at node 13)
Accepted flit rate average= 0.0095625
	minimum = 0.004 (at node 5)
	maximum = 0.014 (at node 7)
Injected packet length average = 1
Accepted packet length average = 1
Total in-flight flits = 3 (0 measured)
latency change    = 4.39816e-05
throughput change = 0.0424837
Warmed up ...Time used is 3000 cycles
Class 0:
Packet latency average = 18.9937
	minimum = 7
	maximum = 41
Network latency average = 18.9937
	minimum = 7
	maximum = 41
Slowest packet = 9309
Flit latency average = 19.0185
	minimum = 7
	maximum = 41
Slowest flit = 9309
Fragmentation average = 0
	minimum = 0
	maximum = 0
Injected packet rate average = 0.010125
	minimum = 0.006 (at node 0)
	maximum = 0.017 (at node 9)
Accepted packet rate average = 0.010125
	minimum = 0.006 (at node 0)
	maximum = 0.016 (at node 6)
Injected flit rate average = 0.010125
	minimum = 0.006 (at node 0)
	maximum = 0.017 (at node 9)
Accepted flit rate average= 0.010125
	minimum = 0.006 (at node 0)
	maximum = 0.016 (at node 6)
Injected packet length average = 1
Accepted packet length average = 1
Total in-flight flits = 3 (3 measured)
latency change    = 0.068121
throughput change = 0.0555556
Class 0:
Packet latency average = 18.8777
	minimum = 7
	maximum = 41
Network latency average = 18.8777
	minimum = 7
	maximum = 41
Slowest packet = 9309
Flit latency average = 18.8913
	minimum = 7
	maximum = 41
Slowest flit = 9309
Fragmentation average = 0
	minimum = 0
	maximum = 0
Injected packet rate average = 0.0100313
	minimum = 0.006 (at node 12)
	maximum = 0.0155 (at node 9)
Accepted packet rate average = 0.0100625
	minimum = 0.006 (at node 3)
	maximum = 0.0155 (at node 6)
Injected flit rate average = 0.0100313
	minimum = 0.006 (at node 12)
	maximum = 0.0155 (at node 9)
Accepted flit rate average= 0.0100625
	minimum = 0.006 (at node 3)
	maximum = 0.0155 (at node 6)
Injected packet length average = 1
Accepted packet length average = 1
Total in-flight flits = 2 (2 measured)
latency change    = 0.00614309
throughput change = 0.00621118
Class 0:
Packet latency average = 18.8565
	minimum = 7
	maximum = 41
Network latency average = 18.8565
	minimum = 7
	maximum = 41
Slowest packet = 9309
Flit latency average = 18.8661
	minimum = 7
	maximum = 41
Slowest flit = 9309
Fragmentation average = 0
	minimum = 0
	maximum = 0
Injected packet rate average = 0.009625
	minimum = 0.00633333 (at node 12)
	maximum = 0.0136667 (at node 9)
Accepted packet rate average = 0.00964583
	minimum = 0.00633333 (at node 3)
	maximum = 0.0133333 (at node 6)
Injected flit rate average = 0.009625
	minimum = 0.00633333 (at node 12)
	maximum = 0.0136667 (at node 9)
Accepted flit rate average= 0.00964583
	minimum = 0.00633333 (at node 3)
	maximum = 0.0133333 (at node 6)
Injected packet length average = 1
Accepted packet length average = 1
Total in-flight flits = 2 (2 measured)
latency change    = 0.0011254
throughput change = 0.0431965
Class 0:
Packet latency average = 19.1522
	minimum = 7
	maximum = 41
Network latency average = 19.1522
	minimum = 7
	maximum = 41
Slowest packet = 9309
Flit latency average = 19.1579
	minimum = 7
	maximum = 41
Slowest flit = 9309
Fragmentation average = 0
	minimum = 0
	maximum = 0
Injected packet rate average = 0.00979688
	minimum = 0.0075 (at node 12)
	maximum = 0.012 (at node 9)
Accepted packet rate average = 0.00979688
	minimum = 0.0075 (at node 3)
	maximum = 0.01175 (at node 6)
Injected flit rate average = 0.00979688
	minimum = 0.0075 (at node 12)
	maximum = 0.012 (at node 9)
Accepted flit rate average= 0.00979688
	minimum = 0.0075 (at node 3)
	maximum = 0.01175 (at node 6)
Injected packet length average = 1
Accepted packet length average = 1
Total in-flight flits = 3 (3 measured)
latency change    = 0.0154406
throughput change = 0.0154173
Draining all recorded packets ...
Draining remaining packets ...
Time taken is 7052 cycles
Class 0:
Packet latency average = 19.1037
	minimum = 7
	maximum = 37
Network latency average = 19.1037
	minimum = 7
	maximum = 37
Slowest packet = 9836
Flit latency average = 19.1037
	minimum = 7
	maximum = 37
Slowest flit = 9836
Fragmentation average = 0
	minimum = 0
	maximum = 0
Injected packet rate average = 0.010375
	minimum = 0.005 (at node 3)
	maximum = 0.015 (at node 8)
Accepted packet rate average = 0.01025
	minimum = 0.004 (at node 12)
	maximum = 0.015 (at node 2)
Injected flit rate average = 0.010375
	minimum = 0.005 (at node 3)
	maximum = 0.015 (at node 8)
Accepted flit rate average= 0.01025
	minimum = 0.004 (at node 12)
	maximum = 0.015 (at node 2)
Injected packet length average = 1
Accepted packet length average = 1
Total in-flight flits = 2 (0 measured)
latency change    = 1
throughput change = 1
Class 0:
Packet latency average = 18.6317
	minimum = 7
	maximum = 37
Network latency average = 18.6317
	minimum = 7
	maximum = 37
Slowest packet = 9836
Flit latency average = 18.6317
	minimum = 7
	maximum = 37
Slowest flit = 9836
Fragmentation average = 0
	minimum = 0
	maximum = 0
Injected packet rate average = 0.0105625
	minimum = 0.0065 (at node 3)
	maximum = 0.013 (at node 8)
Accepted packet rate average = 0.0104375
	minimum = 0.0065 (at node 12)
	maximum = 0.013 (at node 2)
Injected flit rate average = 0.0105625
	minimum = 0.0065 (at node 3)
	maximum = 0.013 (at node 8)
Accepted flit rate average= 0.0104375
	minimum = 0.0065 (at node 12)
	maximum = 0.013 (at node 2)
Injected packet length average = 1
Accepted packet length average = 1
Total in-flight flits = 4 (0 measured)
latency change    = 0.0253289
throughput change = 0.0179641
Class 0:
Packet latency average = 20.1928
	minimum = 7
	maximum = 37
Network latency average = 20.1928
	minimum = 7
	maximum = 37
Slowest packet = 10171
Flit latency average = 20.1928
	minimum = 7
	maximum = 37
Slowest flit = 10171
Fragmentation average = 0
	minimum = 0
	maximum = 0
Injected packet rate average = 0.010375
	minimum = 0.007 (at node 0)
	maximum = 0.015 (at node 7)
Accepted packet rate average = 0.010375
	minimum = 0.007 (at node 0)
	maximum = 0.014 (at node 13)
Injected flit rate average = 0.010375
	minimum = 0.007 (at node 0)
	maximum = 0.015 (at node 7)
Accepted flit rate average= 0.010375
	minimum = 0.007 (at node 0)
	maximum = 0.014 (at node 13)
Injected packet length average = 1
Accepted packet length average = 1
Total in-flight flits = 4 (0 measured)
latency change    = 0.0773066
throughput change = 0.0060241
Warmed up ...Time used is 3000 cycles
Class 0:
Packet latency average = 18.5714
	minimum = 7
	maximum = 37
Network latency average = 18.5714
	minimum = 7
	maximum = 37
Slowest packet = 10332
Flit latency average = 18.7361
	minimum = 7
	maximum = 37
Slowest flit = 10332
Fragmentation average = 0
	minimum = 0
	maximum = 0
Injected packet rate average = 0.0089375
	minimum = 0.004 (at node 4)
	maximum = 0.014 (at node 2)
Accepted packet rate average = 0.009
	minimum = 0.004 (at node 1)
	maximum = 0.015 (at node 8)
Injected flit rate average = 0.0089375
	minimum = 0.004 (at node 4)
	maximum = 0.014 (at node 2)
Accepted flit rate average= 0.009
	minimum = 0.004 (at node 1)
	maximum = 0.015 (at node 8)
Injected packet length average = 1
Accepted packet length average = 1
Total in-flight flits = 3 (3 measured)
latency change    = 0.0873031
throughput change = 0.152778
Class 0:
Packet latency average = 18.4723
	minimum = 7
	maximum = 38
Network latency average = 18.4723
	minimum = 7
	maximum = 38
Slowest packet = 10569
Flit latency average = 18.5498
	minimum = 7
	maximum = 38
Slowest flit = 10569
Fragmentation average = 0
	minimum = 0
	maximum = 0
Injected packet rate average = 0.00975
	minimum = 0.0055 (at node 3)
	maximum = 0.0135 (at node 0)
Accepted packet rate average = 0.00971875
	minimum = 0.005 (at node 12)
	maximum = 0.0135 (at node 0)
Injected flit rate average = 0.00975
	minimum = 0.0055 (at node 3)
	maximum = 0.0135 (at node 0)
Accepted flit rate average= 0.00971875
	minimum = 0.005 (at node 12)
	maximum = 0.0135 (at node 0)
Injected packet length average = 1
Accepted packet length average = 1
Total in-flight flits = 5 (5 measured)
latency change    = 0.00536564
throughput change = 0.073955
Class 0:
Packet latency average = 19.1685
	minimum = 7
	maximum = 38
Network latency average = 19.1685
	minimum = 7
	maximum = 38
Slowest packet = 10569
Flit latency average = 19.2141
	minimum = 7
	maximum = 38
Slowest flit = 10569
Fragmentation average = 0
	minimum = 0
	maximum = 0
Injected packet rate average = 0.00966667
	minimum = 0.00733333 (at node 8)
	maximum = 0.012 (at node 1)
Accepted packet rate average = 0.00972917
	minimum = 0.00733333 (at node 2)
	maximum = 0.012 (at node 4)
Injected flit rate average = 0.00966667
	minimum = 0.00733333 (at node 8)
	maximum = 0.012 (at node 1)
Accepted flit rate average= 0.00972917
	minimum = 0.00733333 (at node 2)
	maximum = 0.012 (at node 4)
Injected packet length average = 1
Accepted packet length average = 1
Total in-flight flits = 1 (1 measured)
latency change    = 0.0363177
throughput change = 0.00107066
Class 0:
Packet latency average = 19.3339
	minimum = 7
	maximum = 38
Network latency average = 19.3339
	minimum = 7
	maximum = 38
Slowest packet = 10569
Flit latency average = 19.367
	minimum = 7
	maximum = 38
Slowest flit = 10569
Fragmentation average = 0
	minimum = 0
	maximum = 0
Injected packet rate average = 0.00971875
	minimum = 0.0075 (at node 13)
	maximum = 0.012 (at node 7)
Accepted packet rate average = 0.00975
	minimum = 0.0075 (at node 7)
	maximum = 0.01225 (at node 13)
Injected flit rate average = 0.00971875
	minimum = 0.0075 (at node 13)
	maximum = 0.012 (at node 7)
Accepted flit rate average= 0.00975
	minimum = 0.0075 (at node 7)
	maximum = 0.01225 (at node 13)
Injected packet length average = 1
Accepted packet length average = 1
Total in-flight flits = 2 (2 measured)
latency change    = 0.00855516
throughput change = 0.00213675
Class 0:
Packet latency average = 19.4812
	minimum = 7
	maximum = 40
Network latency average = 19.4812
	minimum = 7
	maximum = 40
Slowest packet = 11021
Flit latency average = 19.5071
	minimum = 7
	maximum = 40
Slowest flit = 11021
Fragmentation average = 0
	minimum = 0
	maximum = 0
Injected packet rate average = 0.009675
	minimum = 0.0078 (at node 13)
	maximum = 0.0114 (at node 7)
Accepted packet rate average = 0.0097125
	minimum = 0.0078 (at node 7)
	maximum = 0.0116 (at node 13)
Injected flit rate average = 0.009675
	minimum = 0.0078 (at node 13)
	maximum = 0.0114 (at node 7)
Accepted flit rate average= 0.0097125
	minimum = 0.0078 (at node 7)
	maximum = 0.0116 (at node 13)
Injected packet length average = 1
Accepted packet length average = 1
Total in-flight flits = 1 (1 measured)
latency change    = 0.00756476
throughput change = 0.003861
Draining all recorded packets ...
Draining remaining packets ...
Time taken is 8024 cycles
Class 0:
Packet latency average = 19.9937
	minimum = 7
	maximum = 39
Network latency average = 19.9937
	minimum = 7
	maximum = 39
Slowest packet = 11222
Flit latency average = 19.9937
	minimum = 7
	maximum = 39
Slowest flit = 11222
Fragmentation average = 0
	minimum = 0
	maximum = 0
Injected packet rate average = 0.010125
	minimum = 0.004 (at node 5)
	maximum = 0.014 (at node 1)
Accepted packet rate average = 0.0099375
	minimum = 0.004 (at node 5)
	maximum = 0.014 (at node 4)
Injected flit rate average = 0.010125
	minimum = 0.004 (at node 5)
	maximum = 0.014 (at node 1)
Accepted flit rate average= 0.0099375
	minimum = 0.004 (at node 5)
	maximum = 0.014 (at node 4)
Injected packet length average = 1
Accepted packet length average = 1
Total in-flight flits = 3 (0 measured)
latency change    = 1
throughput change = 1
Class 0:
Packet latency average = 19.5764
	minimum = 7
	maximum = 39
Network latency average = 19.5764
	minimum = 7
	maximum = 39
Slowest packet = 11222
Flit latency average = 19.5764
	minimum = 7
	maximum = 39
Slowest flit = 11222
Fragmentation average = 0
	minimum = 0
	maximum = 0
Injected packet rate average = 0.009875
	minimum = 0.0075 (at node 5)
	maximum = 0.012 (at node 6)
Accepted packet rate average = 0.0098125
	minimum = 0.007 (at node 5)
	maximum = 0.012 (at node 9)
Injected flit rate average = 0.009875
	minimum = 0.0075 (at node 5)
	maximum = 0.012 (at node 6)
Accepted flit rate average= 0.0098125
	minimum = 0.007 (at node 5)
	maximum = 0.012 (at node 9)
Injected packet length average = 1
Accepted packet length average = 1
Total in-flight flits = 2 (0 measured)
latency change    = 0.0213153
throughput change = 0.0127389
Class 0:
Packet latency average = 19.3393
	minimum = 7
	maximum = 37
Network latency average = 19.3393
	minimum = 7
	maximum = 37
Slowest packet = 11432
Flit latency average = 19.3393
	minimum = 7
	maximum = 37
Slowest flit = 11432
Fragmentation average = 0
	minimum = 0
	maximum = 0
Injected packet rate average = 0.0105625
	minimum = 0.006 (at node 13)
	maximum = 0.019 (at node 7)
Accepted packet rate average = 0.0105
	minimum = 0.006 (at node 7)
	maximum = 0.019 (at node 13)
Injected flit rate average = 0.0105625
	minimum = 0.006 (at node 13)
	maximum = 0.019 (at node 7)
Accepted flit rate average= 0.0105
	minimum = 0.006 (at node 7)
	maximum = 0.019 (at node 13)
Injected packet length average = 1
Accepted packet length average = 1
Total in-flight flits = 3 (0 measured)
latency change    = 0.0122625
throughput change = 0.0654762
Warmed up ...Time used is 3000 cycles
Class 0:
Packet latency average = 19.5562
	minimum = 7
	maximum = 37
Network latency average = 19.5562
	minimum = 7
	maximum = 37
Slowest packet = 11603
Flit latency average = 19.816
	minimum = 7
	maximum = 37
Slowest flit = 11588
Fragmentation average = 0
	minimum = 0
	maximum = 0
Injected packet rate average = 0.01025
	minimum = 0.005 (at node 15)
	maximum = 0.015 (at node 1)
Accepted packet rate average = 0.0101875
	minimum = 0.005 (at node 15)
	maximum = 0.015 (at node 4)
Injected flit rate average = 0.01025
	minimum = 0.005 (at node 15)
	maximum = 0.015 (at node 1)
Accepted flit rate average= 0.0101875
	minimum = 0.005 (at node 15)
	maximum = 0.015 (at node 4)
Injected packet length average = 1
Accepted packet length average = 1
Total in-flight flits = 4 (4 measured)
latency change    = 0.0110944
throughput change = 0.0306748
Class 0:
Packet latency average = 19.6398
	minimum = 7
	maximum = 39
Network latency average = 19.6398
	minimum = 7
	maximum = 39
Slowest packet = 11891
Flit latency average = 19.7692
	minimum = 7
	maximum = 39
Slowest flit = 11891
Fragmentation average = 0
	minimum = 0
	maximum = 0
Injected packet rate average = 0.0101875
	minimum = 0.0055 (at node 10)
	maximum = 0.0145 (at node 7)
Accepted packet rate average = 0.0101563
	minimum = 0.0055 (at node 10)
	maximum = 0.014 (at node 13)
Injected flit rate average = 0.0101875
	minimum = 0.0055 (at node 10)
	maximum = 0.0145 (at node 7)
Accepted flit rate average= 0.0101563
	minimum = 0.0055 (at node 10)
	maximum = 0.014 (at node 13)
Injected packet length average = 1
Accepted packet length average = 1
Total in-flight flits = 4 (4 measured)
latency change    = 0.00425166
throughput change = 0.00307692
Class 0:
Packet latency average = 19.8124
	minimum = 7
	maximum = 39
Network latency average = 19.8124
	minimum = 7
	maximum = 39
Slowest packet = 11891
Flit latency average = 19.8975
	minimum = 7
	maximum = 39
Slowest flit = 11891
Fragmentation average = 0
	minimum = 0
	maximum = 0
Injected packet rate average = 0.0102292
	minimum = 0.008 (at node 6)
	maximum = 0.013 (at node 1)
Accepted packet rate average = 0.0101667
	minimum = 0.008 (at node 6)
	maximum = 0.013 (at node 4)
Injected flit rate average = 0.0102292
	minimum = 0.008 (at node 6)
	maximum = 0.013 (at node 1)
Accepted flit rate average= 0.0101667
	minimum = 0.008 (at node 6)
	maximum = 0.013 (at node 4)
Injected packet length average = 1
Accepted packet length average = 1
Total in-flight flits = 6 (6 measured)
latency change    = 0.00871272
throughput change = 0.00102459
Draining all recorded packets ...
Draining remaining packets ...
Time taken is 6047 cycles
Class 0:
Packet latency average = 18.7464
	minimum = 7
	maximum = 37
Network latency average = 18.7464
	minimum = 7
	maximum = 37
Slowest packet = 12097
Flit latency average = 18.7464
	minimum = 7
	maximum = 37
Slowest flit = 12097
Fragmentation average = 0
	minimum = 0
	maximum = 0
Injected packet rate average = 0.00875
	minimum = 0.005 (at node 3)
	maximum = 0.014 (at node 1)
Accepted packet rate average = 0.008625
	minimum = 0.004 (at node 12)
	maximum = 0.014 (at node 4)
Injected flit rate average = 0.00875
	minimum = 0.005 (at node 3)
	maximum = 0.014 (at node 1)
Accepted flit rate average= 0.008625
	minimum = 0.004 (at node 12)
	maximum = 0.014 (at node 4)
Injected packet length average = 1
Accepted packet length average = 1
Total in-flight flits = 2 (0 measured)
latency change    = 1
throughput change = 1
Class 0:
Packet latency average = 19.0108
	minimum = 7
	maximum = 37
Network latency average = 19.0108
	minimum = 7
	maximum = 37
Slowest packet = 12097
Flit latency average = 19.0108
	minimum = 7
	maximum = 37
Slowest flit = 12097
Fragmentation average = 0
	minimum = 0
	maximum = 0
Injected packet rate average = 0.00878125
	minimum = 0.0045 (at node 13)
	maximum = 0.0115 (at node 1)
Accepted packet rate average = 0.00871875
	minimum = 0.0045 (at node 7)
	maximum = 0.0115 (at node 4)
Injected flit rate average = 0.00878125
	minimum = 0.0045 (at node 13)
	maximum = 0.0115 (at node 1)
Accepted flit rate average= 0.00871875
	minimum = 0.0045 (at node 7)
	maximum = 0.0115 (at node 4)
Injected packet length average = 1
Accepted packet length average = 1
Total in-flight flits = 2 (0 measured)
latency change    = 0.0139066
throughput change = 0.0107527
Class 0:
Packet latency average = 19.162
	minimum = 7
	maximum = 38
Network latency average = 19.162
	minimum = 7
	maximum = 38
Slowest packet = 12472
Flit latency average = 19.162
	minimum = 7
	maximum = 38
Slowest flit = 12472
Fragmentation average = 0
	minimum = 0
	maximum = 0
Injected packet rate average = 0.01125
	minimum = 0.007 (at node 6)
	maximum = 0.017 (at node 5)
Accepted packet rate average = 0.0111875
	minimum = 0.007 (at node 9)
	maximum = 0.017 (at node 5)
Injected flit rate average = 0.01125
	minimum = 0.007 (at node 6)
	maximum = 0.017 (at node 5)
Accepted flit rate average= 0.0111875
	minimum = 0.007 (at node 9)
	maximum = 0.017 (at node 5)
Injected packet length average = 1
Accepted packet length average = 1
Total in-flight flits = 3 (0 measured)
latency change    = 0.00789366
throughput change = 0.22067
Warmed up ...Time used is 3000 cycles
Class 0:
Packet latency average = 20.526
	minimum = 7
	maximum = 37
Network latency average = 20.526
	minimum = 7
	maximum = 37
Slowest packet = 12553
Flit latency average = 20.586
	minimum = 7
	maximum = 37
Slowest flit = 12553
Fragmentation average = 0
	minimum = 0
	maximum = 0
Injected packet rate average = 0.009875
	minimum = 0.005 (at node 2)
	maximum = 0.014 (at node 7)
Accepted packet rate average = 0.0098125
	minimum = 0.004 (at node 8)
	maximum = 0.014 (at node 3)
Injected flit rate average = 0.009875
	minimum = 0.005 (at node 2)
	maximum = 0.014 (at node 7)
Accepted flit rate average= 0.0098125
	minimum = 0.004 (at node 8)
	maximum = 0.014 (at node 3)
Injected packet length average = 1
Accepted packet length average = 1
Total in-flight flits = 4 (4 measured)
latency change    = 0.0664506
throughput change = 0.140127
Class 0:
Packet latency average = 19.8957
	minimum = 7
	maximum = 37
Network latency average = 19.8957
	minimum = 7
	maximum = 37
Slowest packet = 12553
Flit latency average = 19.9301
	minimum = 7
	maximum = 37
Slowest flit = 12553
Fragmentation average = 0
	minimum = 0
	maximum = 0
Injected packet rate average = 0.0102813
	minimum = 0.0075 (at node 15)
	maximum = 0.0135 (at node 12)
Accepted packet rate average = 0.0102813
	minimum = 0.0075 (at node 15)
	maximum = 0.0135 (at node 3)
Injected flit rate average = 0.0102813
	minimum = 0.0075 (at node 15)
	maximum = 0.0135 (at node 12)
Accepted flit rate average= 0.0102813
	minimum = 0.0075 (at node 15)
	maximum = 0.0135 (at node 3)
Injected packet length average = 1
Accepted packet length average = 1
Total in-flight flits = 3 (3 measured)
latency change    = 0.0316786
throughput change = 0.0455927
Class 0:
Packet latency average = 19.4068
	minimum = 7
	maximum = 37
Network latency average = 19.4068
	minimum = 7
	maximum = 37
Slowest packet = 12553
Flit latency average = 19.4337
	minimum = 7
	maximum = 37
Slowest flit = 12553
Fragmentation average = 0
	minimum = 0
	maximum = 0
Injected packet rate average = 0.009875
	minimum = 0.006 (at node 2)
	maximum = 0.0133333 (at node 8)
Accepted packet rate average = 0.00989583
	minimum = 0.006 (at node 8)
	maximum = 0.0136667 (at node 2)
Injected flit rate average = 0.009875
	minimum = 0.006 (at node 2)
	maximum = 0.0133333 (at node 8)
Accepted flit rate average= 0.00989583
	minimum = 0.006 (at node 8)
	maximum = 0.0136667 (at node 2)
Injected packet length average = 1
Accepted packet length average = 1
Total in-flight flits = 2 (2 measured)
latency change    = 0.0251936
throughput change = 0.0389474
Class 0:
Packet latency average = 19.4701
	minimum = 7
	maximum = 37
Network latency average = 19.4701
	minimum = 7
	maximum = 37
Slowest packet = 12553
Flit latency average = 19.4898
	minimum = 7
	maximum = 37
Slowest flit = 12553
Fragmentation average = 0
	minimum = 0
	maximum = 0
Injected packet rate average = 0.00995313
	minimum = 0.00675 (at node 2)
	maximum = 0.0135 (at node 8)
Accepted packet rate average = 0.00998438
	minimum = 0.00675 (at node 8)
	maximum = 0.01375 (at node 2)
Injected flit rate average = 0.00995313
	minimum = 0.00675 (at node 2)
	maximum = 0.0135 (at node 8)
Accepted flit rate average= 0.00998438
	minimum = 0.00675 (at node 8)
	maximum = 0.01375 (at node 2)
Injected packet length average = 1
Accepted packet length average = 1
Total in-flight flits = 1 (1 measured)
latency change    = 0.0032535
throughput change = 0.00886802
Draining all recorded packets ...
Draining remaining packets ...
Time taken is 7060 cycles
Class 0:
Packet latency average = 19.2586
	minimum = 7
	maximum = 43
Network latency average = 19.2586
	minimum = 7
	maximum = 43
Slowest packet = 13288
Flit latency average = 19.2586
	minimum = 7
	maximum = 43
Slowest flit = 13288
Fragmentation average = 0
	minimum = 0
	maximum = 0
Injected packet rate average = 0.0111875
	minimum = 0.007 (at node 9)
	maximum = 0.015 (at node 4)
Accepted packet rate average = 0.010875
	minimum = 0.007 (at node 6)
	maximum = 0.015 (at node 1)
Injected flit rate average = 0.0111875
	minimum = 0.007 (at node 9)
	maximum = 0.015 (at node 4)
Accepted flit rate average= 0.010875
	minimum = 0.007 (at node 6)
	maximum = 0.015 (at node 1)
Injected packet length average = 1
Accepted packet length average = 1
Total in-flight flits = 5 (0 measured)
latency change    = 1
throughput change = 1
Class 0:
Packet latency average = 19.3077
	minimum = 7
	maximum = 43
Network latency average = 19.3077
	minimum = 7
	maximum = 43
Slowest packet = 13288
Flit latency average = 19.3077
	minimum = 7
	maximum = 43
Slowest flit = 13288
Fragmentation average = 0
	minimum = 0
	maximum = 0
Injected packet rate average = 0.0102188
	minimum = 0.007 (at node 6)
	maximum = 0.014 (at node 7)
Accepted packet rate average = 0.0101563
	minimum = 0.007 (at node 9)
	maximum = 0.014 (at node 13)
Injected flit rate average = 0.0102188
	minimum = 0.007 (at node 6)
	maximum = 0.014 (at node 7)
Accepted flit rate average= 0.0101563
	minimum = 0.007 (at node 9)
	maximum = 0.014 (at node 13)
Injected packet length average = 1
Accepted packet length average = 1
Total in-flight flits = 2 (0 measured)
latency change    = 0.00254156
throughput change = 0.0707692
Class 0:
Packet latency average = 20.2115
	minimum = 7
	maximum = 37
Network latency average = 20.2115
	minimum = 7
	maximum = 37
Slowest packet = 13518
Flit latency average = 20.2115
	minimum = 7
	maximum = 37
Slowest flit = 13518
Fragmentation average = 0
	minimum = 0
	maximum = 0
Injected packet rate average = 0.00975
	minimum = 0.006 (at node 7)
	maximum = 0.014 (at node 8)
Accepted packet rate average = 0.00975
	minimum = 0.006 (at node 13)
	maximum = 0.014 (at node 2)
Injected flit rate average = 0.00975
	minimum = 0.006 (at node 7)
	maximum = 0.014 (at node 8)
Accepted flit rate average= 0.00975
	minimum = 0.006 (at node 13)
	maximum = 0.014 (at node 2)
Injected packet length average = 1
Accepted packet length average = 1
Total in-flight flits = 2 (0 measured)
latency change    = 0.0447193
throughput change = 0.0416667
Warmed up ...Time used is 3000 cycles
Class 0:
Packet latency average = 20.4083
	minimum = 7
	maximum = 37
Network latency average = 20.4083
	minimum = 7
	maximum = 37
Slowest packet = 13683
Flit latency average = 20.4269
	minimum = 7
	maximum = 37
Slowest flit = 13677
Fragmentation average = 0
	minimum = 0
	maximum = 0
Injected packet rate average = 0.0106875
	minimum = 0.004 (at node 11)
	maximum = 0.016 (at node 6)
Accepted packet rate average = 0.0106875
	minimum = 0.004 (at node 14)
	maximum = 0.016 (at node 9)
Injected flit rate average = 0.0106875
	minimum = 0.004 (at node 11)
	maximum = 0.016 (at node 6)
Accepted flit rate average= 0.0106875
	minimum = 0.004 (at node 14)
	maximum = 0.016 (at node 9)
Injected packet length average = 1
Accepted packet length average = 1
Total in-flight flits = 2 (2 measured)
latency change    = 0.00964048
throughput change = 0.0877193
Class 0:
Packet latency average = 20.1415
	minimum = 7
	maximum = 37
Network latency average = 20.1415
	minimum = 7
	maximum = 37
Slowest packet = 13683
Flit latency average = 20.1529
	minimum = 7
	maximum = 37
Slowest flit = 13677
Fragmentation average = 0
	minimum = 0
	maximum = 0
Injected packet rate average = 0.0101563
	minimum = 0.005 (at node 11)
	maximum = 0.014 (at node 3)
Accepted packet rate average = 0.0102188
	minimum = 0.005 (at node 14)
	maximum = 0.0145 (at node 12)
Injected flit rate average = 0.0101563
	minimum = 0.005 (at node 11)
	maximum = 0.014 (at node 3)
Accepted flit rate average= 0.0102188
	minimum = 0.005 (at node 14)
	maximum = 0.0145 (at node 12)
Injected packet length average = 1
Accepted packet length average = 1
Total in-flight flits = 0 (0 measured)
latency change    = 0.0132436
throughput change = 0.0458716
Class 0:
Packet latency average = 20.2636
	minimum = 7
	maximum = 40
Network latency average = 20.2636
	minimum = 7
	maximum = 40
Slowest packet = 14165
Flit latency average = 20.2703
	minimum = 7
	maximum = 40
Slowest flit = 14165
Fragmentation average = 0
	minimum = 0
	maximum = 0
Injected packet rate average = 0.0108958
	minimum = 0.00766667 (at node 7)
	maximum = 0.017 (at node 3)
Accepted packet rate average = 0.0107917
	minimum = 0.00766667 (at node 13)
	maximum = 0.0163333 (at node 12)
Injected flit rate average = 0.0108958
	minimum = 0.00766667 (at node 7)
	maximum = 0.017 (at node 3)
Accepted flit rate average= 0.0107917
	minimum = 0.00766667 (at node 13)
	maximum = 0.0163333 (at node 12)
Injected packet length average = 1
Accepted packet length average = 1
Total in-flight flits = 7 (7 measured)
latency change    = 0.00602201
throughput change = 0.0530888
Class 0:
Packet latency average = 20.1814
	minimum = 7
	maximum = 40
Network latency average = 20.1814
	minimum = 7
	maximum = 40
Slowest packet = 14165
Flit latency average = 20.1868
	minimum = 7
	maximum = 40
Slowest flit = 14165
Fragmentation average = 0
	minimum = 0
	maximum = 0
Injected packet rate average = 0.010625
	minimum = 0.008 (at node 5)
	maximum = 0.01475 (at node 3)
Accepted packet rate average = 0.010625
	minimum = 0.008 (at node 5)
	maximum = 0.015 (at node 12)
Injected flit rate average = 0.010625
	minimum = 0.008 (at node 5)
	maximum = 0.01475 (at node 3)
Accepted flit rate average= 0.010625
	minimum = 0.008 (at node 5)
	maximum = 0.015 (at node 12)
Injected packet length average = 1
Accepted packet length average = 1
Total in-flight flits = 2 (2 measured)
latency change    = 0.00407057
throughput change = 0.0156863
Class 0:
Packet latency average = 19.9159
	minimum = 7
	maximum = 40
Network latency average = 19.9159
	minimum = 7
	maximum = 40
Slowest packet = 14165
Flit latency average = 19.9211
	minimum = 7
	maximum = 40
Slowest flit = 14165
Fragmentation average = 0
	minimum = 0
	maximum = 0
Injected packet rate average = 0.010125
	minimum = 0.0082 (at node 5)
	maximum = 0.0134 (at node 3)
Accepted packet rate average = 0.0101375
	minimum = 0.0082 (at node 5)
	maximum = 0.0134 (at node 12)
Injected flit rate average = 0.010125
	minimum = 0.0082 (at node 5)
	maximum = 0.0134 (at node 3)
Accepted flit rate average= 0.0101375
	minimum = 0.0082 (at node 5)
	maximum = 0.0134 (at node 12)
Injected packet length average = 1
Accepted packet length average = 1
Total in-flight flits = 1 (1 measured)
latency change    = 0.0133295
throughput change = 0.0480888
Class 0:
Packet latency average = 19.5916
	minimum = 7
	maximum = 41
Network latency average = 19.5916
	minimum = 7
	maximum = 41
Slowest packet = 14519
Flit latency average = 19.5965
	minimum = 7
	maximum = 41
Slowest flit = 14519
Fragmentation average = 0
	minimum = 0
	maximum = 0
Injected packet rate average = 0.0102188
	minimum = 0.008 (at node 7)
	maximum = 0.0121667 (at node 3)
Accepted packet rate average = 0.0101979
	minimum = 0.008 (at node 13)
	maximum = 0.0123333 (at node 12)
Injected flit rate average = 0.0102188
	minimum = 0.008 (at node 7)
	maximum = 0.0121667 (at node 3)
Accepted flit rate average= 0.0101979
	minimum = 0.008 (at node 13)
	maximum = 0.0123333 (at node 12)
Injected packet length average = 1
Accepted packet length average = 1
Total in-flight flits = 4 (4 measured)
latency change    = 0.016555
throughput change = 0.00592441
Draining all recorded packets ...
Draining remaining packets ...
Time taken is 9035 cycles
Class 0:
Packet latency average = 18.6748
	minimum = 7
	maximum = 37
Network latency average = 18.6748
	minimum = 7
	maximum = 37
Slowest packet = 14670
Flit latency average = 18.6748
	minimum = 7
	maximum = 37
Slowest flit = 14670
Fragmentation average = 0
	minimum = 0
	maximum = 0
Injected packet rate average = 0.0105625
	minimum = 0.002 (at node 13)
	maximum = 0.015 (at node 11)
Accepted packet rate average = 0.0101875
	minimum = 0.002 (at node 7)
	maximum = 0.014 (at node 6)
Injected flit rate average = 0.0105625
	minimum = 0.002 (at node 13)
	maximum = 0.015 (at node 11)
Accepted flit rate average= 0.0101875
	minimum = 0.002 (at node 7)
	maximum = 0.014 (at node 6)
Injected packet length average = 1
Accepted packet length average = 1
Total in-flight flits = 6 (0 measured)
latency change    = 1
[...]
Fragmentation average = 0
	minimum = 0
	maximum = 0
Injected packet rate average = 0.0105
	minimum = 0.004 (at node 8)
	maximum = 0.014 (at node 0)
Accepted packet rate average = 0.01025
	minimum = 0.004 (at node 2)
	maximum = 0.014 (at node 0)
Injected flit rate average = 0.0105
	minimum = 0.004 (at node 8)
	maximum = 0.014 (at node 0)
Accepted flit rate average= 0.01025
	minimum = 0.004 (at node 2)
	maximum = 0.014 (at node 0)
Injected packet length average = 1
Accepted packet length average = 1
Total in-flight flits = 4 (4 measured)
latency change    = 0.0521839
throughput change = 0.0304878
Class 0:
Packet latency average = 19.387
	minimum = 7
	maximum = 39
Network latency average = 19.387
	minimum = 7
	maximum = 39
Slowest packet = 117548
Flit latency average = 19.387
	minimum = 7
	maximum = 39
Slowest flit = 117548
Fragmentation average = 0
	minimum = 0
	maximum = 0
Injected packet rate average = 0.01025
	minimum = 0.0065 (at node 8)
	maximum = 0.013 (at node 0)
Accepted packet rate average = 0.0100938
	minimum = 0.0055 (at node 2)
	maximum = 0.013 (at node 0)
Injected flit rate average = 0.01025
	minimum = 0.0065 (at node 8)
	maximum = 0.013 (at node 0)
Accepted flit rate average= 0.0100938
	minimum = 0.0055 (at node 2)
	maximum = 0.013 (at node 0)
Injected packet length average = 1
Accepted packet length average = 1
Total in-flight flits = 5 (5 measured)
latency change    = 0.0168369
throughput change = 0.0154799
Class 0:
Packet latency average = 19.8562
	minimum = 7
	maximum = 39
Network latency average = 19.8562
	minimum = 7
	maximum = 39
Slowest packet = 117548
Flit latency average = 19.8562
	minimum = 7
	maximum = 39
Slowest flit = 117548
Fragmentation average = 0
	minimum = 0
	maximum = 0
Injected packet rate average = 0.0099375
	minimum = 0.00833333 (at node 14)
	maximum = 0.012 (at node 2)
Accepted packet rate average = 0.00985417
	minimum = 0.008 (at node 1)
	maximum = 0.012 (at node 8)
Injected flit rate average = 0.0099375
	minimum = 0.00833333 (at node 14)
	maximum = 0.012 (at node 2)
Accepted flit rate average= 0.00985417
	minimum = 0.008 (at node 1)
	maximum = 0.012 (at node 8)
Injected packet length average = 1
Accepted packet length average = 1
Total in-flight flits = 4 (4 measured)
latency change    = 0.0236319
throughput change = 0.0243129
Class 0:
Packet latency average = 19.6645
	minimum = 7
	maximum = 39
Network latency average = 19.6645
	minimum = 7
	maximum = 39
Slowest packet = 117548
Flit latency average = 19.6645
	minimum = 7
	maximum = 39
Slowest flit = 117548
Fragmentation average = 0
	minimum = 0
	maximum = 0
Injected packet rate average = 0.0096875
	minimum = 0.008 (at node 4)
	maximum = 0.01125 (at node 3)
Accepted packet rate average = 0.00964062
	minimum = 0.008 (at node 1)
	maximum = 0.011 (at node 12)
Injected flit rate average = 0.0096875
	minimum = 0.008 (at node 4)
	maximum = 0.01125 (at node 3)
Accepted flit rate average= 0.00964062
	minimum = 0.008 (at node 1)
	maximum = 0.011 (at node 12)
Injected packet length average = 1
Accepted packet length average = 1
Total in-flight flits = 3 (3 measured)
latency change    = 0.00975011
throughput change = 0.0221502
Draining all recorded packets ...
Draining remaining packets ...
Time taken is 7043 cycles
Class 0:
Packet latency average = 17.8261
	minimum = 7
	maximum = 38
Network latency average = 17.8261
	minimum = 7
	maximum = 38
Slowest packet = 118172
Flit latency average = 17.8261
	minimum = 7
	maximum = 38
Slowest flit = 118172
Fragmentation average = 0
	minimum = 0
	maximum = 0
Injected packet rate average = 0.0103125
	minimum = 0.005 (at node 7)
	maximum = 0.019 (at node 15)
Accepted packet rate average = 0.0100625
	minimum = 0.005 (at node 13)
	maximum = 0.019 (at node 15)
Injected flit rate average = 0.0103125
	minimum = 0.005 (at node 7)
	maximum = 0.019 (at node 15)
Accepted flit rate average= 0.0100625
	minimum = 0.005 (at node 13)
	maximum = 0.019 (at node 15)
Injected packet length average = 1
Accepted packet length average = 1
Total in-flight flits = 4 (0 measured)
latency change    = 1
throughput change = 1
Class 0:
Packet latency average = 18.0833
	minimum = 7
	maximum = 38
Network latency average = 18.0833
	minimum = 7
	maximum = 38
Slowest packet = 118172
Flit latency average = 18.0833
	minimum = 7
	maximum = 38
Slowest flit = 118172
Fragmentation average = 0
	minimum = 0
	maximum = 0
Injected packet rate average = 0.00978125
	minimum = 0.006 (at node 12)
	maximum = 0.0155 (at node 15)
Accepted packet rate average = 0.00975
	minimum = 0.0055 (at node 3)
	maximum = 0.0155 (at node 15)
Injected flit rate average = 0.00978125
	minimum = 0.006 (at node 12)
	maximum = 0.0155 (at node 15)
Accepted flit rate average= 0.00975
	minimum = 0.0055 (at node 3)
	maximum = 0.0155 (at node 15)
Injected packet length average = 1
Accepted packet length average = 1
Total in-flight flits = 1 (0 measured)
latency change    = 0.0142256
throughput change = 0.0320513
Class 0:
Packet latency average = 20.897
	minimum = 7
	maximum = 42
Network latency average = 20.897
	minimum = 7
	maximum = 42
Slowest packet = 118379
Flit latency average = 20.897
	minimum = 7
	maximum = 42
Slowest flit = 118379
Fragmentation average = 0
	minimum = 0
	maximum = 0
Injected packet rate average = 0.0103125
	minimum = 0.007 (at node 10)
	maximum = 0.017 (at node 7)
Accepted packet rate average = 0.0103125
	minimum = 0.007 (at node 7)
	maximum = 0.017 (at node 13)
Injected flit rate average = 0.0103125
	minimum = 0.007 (at node 10)
	maximum = 0.017 (at node 7)
Accepted flit rate average= 0.0103125
	minimum = 0.007 (at node 7)
	maximum = 0.017 (at node 13)
Injected packet length average = 1
Accepted packet length average = 1
Total in-flight flits = 1 (0 measured)
latency change    = 0.134643
throughput change = 0.0545455
Warmed up ...Time used is 3000 cycles
Class 0:
Packet latency average = 19.6567
	minimum = 7
	maximum = 43
Network latency average = 19.6567
	minimum = 7
	maximum = 43
Slowest packet = 118571
Flit latency average = 19.637
	minimum = 7
	maximum = 43
Slowest flit = 118571
Fragmentation average = 0
	minimum = 0
	maximum = 0
Injected packet rate average = 0.0086875
	minimum = 0.003 (at node 10)
	maximum = 0.013 (at node 3)
Accepted packet rate average = 0.0084375
	minimum = 0.003 (at node 10)
	maximum = 0.013 (at node 12)
Injected flit rate average = 0.0086875
	minimum = 0.003 (at node 10)
	maximum = 0.013 (at node 3)
Accepted flit rate average= 0.0084375
	minimum = 0.003 (at node 10)
	maximum = 0.013 (at node 12)
Injected packet length average = 1
Accepted packet length average = 1
Total in-flight flits = 5 (5 measured)
latency change    = 0.0630956
throughput change = 0.222222
Class 0:
Packet latency average = 20.0906
	minimum = 7
	maximum = 43
Network latency average = 20.0906
	minimum = 7
	maximum = 43
Slowest packet = 118571
Flit latency average = 20.081
	minimum = 7
	maximum = 43
Slowest flit = 118571
Fragmentation average = 0
	minimum = 0
	maximum = 0
Injected packet rate average = 0.0100625
	minimum = 0.0065 (at node 14)
	maximum = 0.013 (at node 3)
Accepted packet rate average = 0.0100313
	minimum = 0.0065 (at node 11)
	maximum = 0.013 (at node 12)
Injected flit rate average = 0.0100625
	minimum = 0.0065 (at node 14)
	maximum = 0.013 (at node 3)
Accepted flit rate average= 0.0100313
	minimum = 0.0065 (at node 11)
	maximum = 0.013 (at node 12)
Injected packet length average = 1
Accepted packet length average = 1
Total in-flight flits = 2 (2 measured)
latency change    = 0.0215976
throughput change = 0.158879
Class 0:
Packet latency average = 20.0956
	minimum = 7
	maximum = 43
Network latency average = 20.0956
	minimum = 7
	maximum = 43
Slowest packet = 118571
Flit latency average = 20.0892
	minimum = 7
	maximum = 43
Slowest flit = 118571
Fragmentation average = 0
	minimum = 0
	maximum = 0
Injected packet rate average = 0.0100625
	minimum = 0.007 (at node 14)
	maximum = 0.0123333 (at node 3)
Accepted packet rate average = 0.0100417
	minimum = 0.007 (at node 11)
	maximum = 0.0123333 (at node 4)
Injected flit rate average = 0.0100625
	minimum = 0.007 (at node 14)
	maximum = 0.0123333 (at node 3)
Accepted flit rate average= 0.0100417
	minimum = 0.007 (at node 11)
	maximum = 0.0123333 (at node 4)
Injected packet length average = 1
Accepted packet length average = 1
Total in-flight flits = 2 (2 measured)
latency change    = 0.000249263
throughput change = 0.00103734
Class 0:
Packet latency average = 19.9391
	minimum = 7
	maximum = 46
Network latency average = 19.9391
	minimum = 7
	maximum = 46
Slowest packet = 119051
Flit latency average = 19.9343
	minimum = 7
	maximum = 46
Slowest flit = 119051
Fragmentation average = 0
	minimum = 0
	maximum = 0
Injected packet rate average = 0.0095625
	minimum = 0.00725 (at node 6)
	maximum = 0.0115 (at node 9)
Accepted packet rate average = 0.00951562
	minimum = 0.00725 (at node 9)
	maximum = 0.0115 (at node 6)
Injected flit rate average = 0.0095625
	minimum = 0.00725 (at node 6)
	maximum = 0.0115 (at node 9)
Accepted flit rate average= 0.00951562
	minimum = 0.00725 (at node 9)
	maximum = 0.0115 (at node 6)
Injected packet length average = 1
Accepted packet length average = 1
Total in-flight flits = 4 (4 measured)
latency change    = 0.00784835
throughput change = 0.0552819
Class 0:
Packet latency average = 20.3034
	minimum = 7
	maximum = 46
Network latency average = 20.3034
	minimum = 7
	maximum = 46
Slowest packet = 119051
Flit latency average = 20.2991
	minimum = 7
	maximum = 46
Slowest flit = 119051
Fragmentation average = 0
	minimum = 0
	maximum = 0
Injected packet rate average = 0.0096375
	minimum = 0.008 (at node 6)
	maximum = 0.0116 (at node 13)
Accepted packet rate average = 0.0096125
	minimum = 0.008 (at node 9)
	maximum = 0.0114 (at node 7)
Injected flit rate average = 0.0096375
	minimum = 0.008 (at node 6)
	maximum = 0.0116 (at node 13)
Accepted flit rate average= 0.0096125
	minimum = 0.008 (at node 9)
	maximum = 0.0114 (at node 7)
Injected packet length average = 1
Accepted packet length average = 1
Total in-flight flits = 3 (3 measured)
latency change    = 0.0179399
throughput change = 0.010078
Class 0:
Packet latency average = 20.2015
	minimum = 7
	maximum = 46
Network latency average = 20.2015
	minimum = 7
	maximum = 46
Slowest packet = 119051
Flit latency average = 20.198
	minimum = 7
	maximum = 46
Slowest flit = 119051
Fragmentation average = 0
	minimum = 0
	maximum = 0
Injected packet rate average = 0.00957292
	minimum = 0.008 (at node 5)
	maximum = 0.0118333 (at node 13)
Accepted packet rate average = 0.00957292
	minimum = 0.008 (at node 5)
	maximum = 0.0118333 (at node 7)
Injected flit rate average = 0.00957292
	minimum = 0.008 (at node 5)
	maximum = 0.0118333 (at node 13)
Accepted flit rate average= 0.00957292
	minimum = 0.008 (at node 5)
	maximum = 0.0118333 (at node 7)
Injected packet length average = 1
Accepted packet length average = 1
Total in-flight flits = 1 (1 measured)
latency change    = 0.00504221
throughput change = 0.00413493
Class 0:
Packet latency average = 20.1158
	minimum = 7
	maximum = 46
Network latency average = 20.1158
	minimum = 7
	maximum = 46
Slowest packet = 119051
Flit latency average = 20.113
	minimum = 7
	maximum = 46
Slowest flit = 119051
Fragmentation average = 0
	minimum = 0
	maximum = 0
Injected packet rate average = 0.00966964
	minimum = 0.008 (at node 5)
	maximum = 0.012 (at node 13)
Accepted packet rate average = 0.00964286
	minimum = 0.008 (at node 5)
	maximum = 0.0117143 (at node 7)
Injected flit rate average = 0.00966964
	minimum = 0.008 (at node 5)
	maximum = 0.012 (at node 13)
Accepted flit rate average= 0.00964286
	minimum = 0.008 (at node 5)
	maximum = 0.0117143 (at node 7)
Injected packet length average = 1
Accepted packet length average = 1
Total in-flight flits = 4 (4 measured)
latency change    = 0.00425918
throughput change = 0.00725309
Draining all recorded packets ...
Draining remaining packets ...
Time taken is 10030 cycles
Class 0:
Packet latency average = 20.6267
	minimum = 7
	maximum = 38
Network latency average = 20.6267
	minimum = 7
	maximum = 38
Slowest packet = 119595
Flit latency average = 20.6267
	minimum = 7
	maximum = 38
Slowest flit = 119595
Fragmentation average = 0
	minimum = 0
	maximum = 0
Injected packet rate average = 0.0096875
	minimum = 0.005 (at node 0)
	maximum = 0.02 (at node 7)
Accepted packet rate average = 0.009375
	minimum = 0.005 (at node 0)
	maximum = 0.02 (at node 13)
Injected flit rate average = 0.0096875
	minimum = 0.005 (at node 0)
	maximum = 0.02 (at node 7)
Accepted flit rate average= 0.009375
	minimum = 0.005 (at node 0)
	maximum = 0.02 (at node 13)
Injected packet length average = 1
Accepted packet length average = 1
Total in-flight flits = 5 (0 measured)
latency change    = 1
throughput change = 1
Class 0:
Packet latency average = 20.612
	minimum = 7
	maximum = 54
Network latency average = 20.612
	minimum = 7
	maximum = 54
Slowest packet = 119846
Flit latency average = 20.612
	minimum = 7
	maximum = 54
Slowest flit = 119846
Fragmentation average = 0
	minimum = 0
	maximum = 0
Injected packet rate average = 0.0100313
	minimum = 0.0065 (at node 0)
	maximum = 0.0155 (at node 7)
Accepted packet rate average = 0.00990625
	minimum = 0.0065 (at node 0)
	maximum = 0.0155 (at node 13)
Injected flit rate average = 0.0100313
	minimum = 0.0065 (at node 0)
	maximum = 0.0155 (at node 7)
Accepted flit rate average= 0.00990625
	minimum = 0.0065 (at node 0)
	maximum = 0.0155 (at node 13)
Injected packet length average = 1
Accepted packet length average = 1
Total in-flight flits = 4 (0 measured)
latency change    = 0.000712172
throughput change = 0.0536278
Class 0:
Packet latency average = 19.2629
	minimum = 7
	maximum = 38
Network latency average = 19.2629
	minimum = 7
	maximum = 38
Slowest packet = 120042
Flit latency average = 19.2629
	minimum = 7
	maximum = 38
Slowest flit = 120042
Fragmentation average = 0
	minimum = 0
	maximum = 0
Injected packet rate average = 0.012125
	minimum = 0.007 (at node 12)
	maximum = 0.019 (at node 13)
Accepted packet rate average = 0.012125
	minimum = 0.008 (at node 13)
	maximum = 0.018 (at node 7)
Injected flit rate average = 0.012125
	minimum = 0.007 (at node 12)
	maximum = 0.019 (at node 13)
Accepted flit rate average= 0.012125
	minimum = 0.008 (at node 13)
	maximum = 0.018 (at node 7)
Injected packet length average = 1
Accepted packet length average = 1
Total in-flight flits = 4 (0 measured)
latency change    = 0.0700363
throughput change = 0.18299
Warmed up ...Time used is 3000 cycles
Class 0:
Packet latency average = 18.9804
	minimum = 7
	maximum = 38
Network latency average = 18.9804
	minimum = 7
	maximum = 38
Slowest packet = 120152
Flit latency average = 19.121
	minimum = 7
	maximum = 38
Slowest flit = 120152
Fragmentation average = 0
	minimum = 0
	maximum = 0
Injected packet rate average = 0.00975
	minimum = 0.005 (at node 3)
	maximum = 0.017 (at node 8)
Accepted packet rate average = 0.0098125
	minimum = 0.005 (at node 4)
	maximum = 0.018 (at node 2)
Injected flit rate average = 0.00975
	minimum = 0.005 (at node 3)
	maximum = 0.017 (at node 8)
Accepted flit rate average= 0.0098125
	minimum = 0.005 (at node 4)
	maximum = 0.018 (at node 2)
Injected packet length average = 1
Accepted packet length average = 1
Total in-flight flits = 3 (3 measured)
latency change    = 0.0148835
throughput change = 0.235669
Class 0:
Packet latency average = 18.9696
	minimum = 7
	maximum = 38
Network latency average = 18.9696
	minimum = 7
	maximum = 38
Slowest packet = 120152
Flit latency average = 19.036
	minimum = 7
	maximum = 38
Slowest flit = 120152
Fragmentation average = 0
	minimum = 0
	maximum = 0
Injected packet rate average = 0.0103438
	minimum = 0.0065 (at node 7)
	maximum = 0.014 (at node 8)
Accepted packet rate average = 0.0104063
	minimum = 0.0065 (at node 13)
	maximum = 0.0145 (at node 2)
Injected flit rate average = 0.0103438
	minimum = 0.0065 (at node 7)
	maximum = 0.014 (at node 8)
Accepted flit rate average= 0.0104063
	minimum = 0.0065 (at node 13)
	maximum = 0.0145 (at node 2)
Injected packet length average = 1
Accepted packet length average = 1
Total in-flight flits = 2 (2 measured)
latency change    = 0.000568662
throughput change = 0.0570571
Class 0:
Packet latency average = 18.9031
	minimum = 7
	maximum = 38
Network latency average = 18.9031
	minimum = 7
	maximum = 38
Slowest packet = 120152
Flit latency average = 18.9489
	minimum = 7
	maximum = 38
Slowest flit = 120152
Fragmentation average = 0
	minimum = 0
	maximum = 0
Injected packet rate average = 0.010125
	minimum = 0.00666667 (at node 6)
	maximum = 0.013 (at node 8)
Accepted packet rate average = 0.0101875
	minimum = 0.00666667 (at node 9)
	maximum = 0.0133333 (at node 2)
Injected flit rate average = 0.010125
	minimum = 0.00666667 (at node 6)
	maximum = 0.013 (at node 8)
Accepted flit rate average= 0.0101875
	minimum = 0.00666667 (at node 9)
	maximum = 0.0133333 (at node 2)
Injected packet length average = 1
Accepted packet length average = 1
Total in-flight flits = 1 (1 measured)
latency change    = 0.00351858
throughput change = 0.0214724
Class 0:
Packet latency average = 18.843
	minimum = 7
	maximum = 38
Network latency average = 18.843
	minimum = 7
	maximum = 38
Slowest packet = 120152
Flit latency average = 18.8773
	minimum = 7
	maximum = 38
Slowest flit = 120152
Fragmentation average = 0
	minimum = 0
	maximum = 0
Injected packet rate average = 0.0102969
	minimum = 0.00775 (at node 3)
	maximum = 0.0125 (at node 8)
Accepted packet rate average = 0.0103125
	minimum = 0.008 (at node 12)
	maximum = 0.01275 (at node 2)
Injected flit rate average = 0.0102969
	minimum = 0.00775 (at node 3)
	maximum = 0.0125 (at node 8)
Accepted flit rate average= 0.0103125
	minimum = 0.008 (at node 12)
	maximum = 0.01275 (at node 2)
Injected packet length average = 1
Accepted packet length average = 1
Total in-flight flits = 3 (3 measured)
latency change    = 0.00318978
throughput change = 0.0121212
Class 0:
Packet latency average = 18.9728
	minimum = 7
	maximum = 38
Network latency average = 18.9728
	minimum = 7
	maximum = 38
Slowest packet = 120152
Flit latency average = 19
	minimum = 7
	maximum = 38
Slowest flit = 120152
Fragmentation average = 0
	minimum = 0
	maximum = 0
Injected packet rate average = 0.010175
	minimum = 0.007 (at node 3)
	maximum = 0.0124 (at node 8)
Accepted packet rate average = 0.0101625
	minimum = 0.0072 (at node 12)
	maximum = 0.0126 (at node 2)
Injected flit rate average = 0.010175
	minimum = 0.007 (at node 3)
	maximum = 0.0124 (at node 8)
Accepted flit rate average= 0.0101625
	minimum = 0.0072 (at node 12)
	maximum = 0.0126 (at node 2)
Injected packet length average = 1
Accepted packet length average = 1
Total in-flight flits = 5 (5 measured)
latency change    = 0.00684233
throughput change = 0.0147601
Draining all recorded packets ...
Draining remaining packets ...
Time taken is 8051 cycles
====== Overall Traffic Statistics ======
====== Traffic class 0 ======
Packet latency average = 19.5681 (100 samples)
	minimum = 7 (100 samples)
	maximum = 42.12 (100 samples)
Network latency average = 19.5681 (100 samples)
	minimum = 7 (100 samples)
	maximum = 42.12 (100 samples)
Flit latency average = 19.5816 (100 samples)
	minimum = 7 (100 samples)
	maximum = 42.13 (100 samples)
Fragmentation average = 0 (100 samples)
	minimum = 0 (100 samples)
	maximum = 0 (100 samples)
Injected packet rate average = 0.0100329 (100 samples)
	minimum = 0.00753867 (100 samples)
	maximum = 0.0127198 (100 samples)
Accepted packet rate average = 0.0100289 (100 samples)
	minimum = 0.00754717 (100 samples)
	maximum = 0.0127346 (100 samples)
Injected flit rate average = 0.0100329 (100 samples)
	minimum = 0.00753867 (100 samples)
	maximum = 0.0127198 (100 samples)
Accepted flit rate average = 0.0100289 (100 samples)
	minimum = 0.00754717 (100 samples)
	maximum = 0.0127346 (100 samples)
Injected packet size average = 1 (100 samples)
Accepted packet size average = 1 (100 samples)
Hops average = 3.50068 (100 samples)
Total run time 4.37467
