BEGIN Configuration File: /tmp/tmppkf0cqv8.cfg
topology = mesh;
k = 4;
n = 2;
routing_function = romm;
num_vcs = 4;
vc_buf_size = 4;
wait_for_tail_credit = 1;
vc_allocator = islip;
sw_allocator = islip;
alloc_iters = 1;
credit_delay = 2;
routing_delay = 1;
vc_alloc_delay = 1;
sw_alloc_delay = 1;
input_speedup = 2;
output_speedup = 1;
internal_speedup = 1.0;
traffic = transpose;
packet_size = 1;
sim_type = latency;
injection_rate = 0.2;
warmup_periods = 3;
sample_period = 1000;
sim_count = 100;
seed = 1;

END Configuration File: /tmp/tmppkf0cqv8.cfg
Class 0:
Packet latency average = 69.6614
	minimum = 7
	maximum = 594
Network latency average = 30.6858
	minimum = 7
	maximum = 247
Slowest packet = 403
Flit latency average = 30.6858
	minimum = 7
	maximum = 247
Slowest flit = 809
Fragmentation average = 0
	minimum = 0
	maximum = 0
Injected packet rate average = 0.171313
	minimum = 0.084 (at node 12)
	maximum = 0.215 (at node 4)
Accepted packet rate average = 0.166687
	minimum = 0.077 (at node 3)
	maximum = 0.209 (at node 1)
Injected flit rate average = 0.171313
	minimum = 0.084 (at node 12)
	maximum = 0.215 (at node 4)
Accepted flit rate average= 0.166687
	minimum = 0.077 (at node 3)
	maximum = 0.209 (at node 1)
Injected packet length average = 1
Accepted packet length average = 1
Total in-flight flits = 80 (0 measured)
latency change    = 1
throughput change = 1
Class 0:
Packet latency average = 119.279
	minimum = 7
	maximum = 1237
Network latency average = 31.2775
	minimum = 7
	maximum = 365
Slowest packet = 403
Flit latency average = 31.2775
	minimum = 7
	maximum = 365
Slowest flit = 3718
Fragmentation average = 0
	minimum = 0
	maximum = 0
Injected packet rate average = 0.168406
	minimum = 0.0775 (at node 12)
	maximum = 0.2135 (at node 4)
Accepted packet rate average = 0.165906
	minimum = 0.0745 (at node 3)
	maximum = 0.212 (at node 1)
Injected flit rate average = 0.168406
	minimum = 0.0775 (at node 12)
	maximum = 0.2135 (at node 4)
Accepted flit rate average= 0.165906
	minimum = 0.0745 (at node 3)
	maximum = 0.212 (at node 1)
Injected packet length average = 1
Accepted packet length average = 1
Total in-flight flits = 87 (0 measured)
latency change    = 0.41598
throughput change = 0.00470898
Class 0:
Packet latency average = 274.799
	minimum = 7
	maximum = 1834
Network latency average = 31.0959
	minimum = 7
	maximum = 315
Slowest packet = 5229
Flit latency average = 31.0959
	minimum = 7
	maximum = 315
Slowest flit = 7188
Fragmentation average = 0
	minimum = 0
	maximum = 0
Injected packet rate average = 0.173187
	minimum = 0.077 (at node 3)
	maximum = 0.223 (at node 5)
Accepted packet rate average = 0.172687
	minimum = 0.074 (at node 12)
	maximum = 0.224 (at node 5)
Injected flit rate average = 0.173187
	minimum = 0.077 (at node 3)
	maximum = 0.223 (at node 5)
Accepted flit rate average= 0.172687
	minimum = 0.074 (at node 12)
	maximum = 0.224 (at node 5)
Injected packet length average = 1
Accepted packet length average = 1
Total in-flight flits = 93 (0 measured)
latency change    = 0.56594
throughput change = 0.0392689
Warmed up ...Time used is 3000 cycles
Class 0:
Packet latency average = 363.037
	minimum = 7
	maximum = 2441
Network latency average = 29.8623
	minimum = 7
	maximum = 301
Slowest packet = 8166
Flit latency average = 30.8007
	minimum = 7
	maximum = 303
Slowest flit = 7313
Fragmentation average = 0
	minimum = 0
	maximum = 0
Injected packet rate average = 0.174313
	minimum = 0.073 (at node 3)
	maximum = 0.217 (at node 5)
Accepted packet rate average = 0.174687
	minimum = 0.076 (at node 12)
	maximum = 0.218 (at node 5)
Injected flit rate average = 0.174313
	minimum = 0.073 (at node 3)
	maximum = 0.217 (at node 5)
Accepted flit rate average= 0.174687
	minimum = 0.076 (at node 12)
	maximum = 0.218 (at node 5)
Injected packet length average = 1
Accepted packet length average = 1
Total in-flight flits = 88 (88 measured)
latency change    = 0.243057
throughput change = 0.011449
Class 0:
Packet latency average = 396.381
	minimum = 7
	maximum = 3127
Network latency average = 30.504
	minimum = 7
	maximum = 301
Slowest packet = 8166
Flit latency average = 30.9619
	minimum = 7
	maximum = 303
Slowest flit = 7313
Fragmentation average = 0
	minimum = 0
	maximum = 0
Injected packet rate average = 0.174594
	minimum = 0.073 (at node 12)
	maximum = 0.2215 (at node 5)
Accepted packet rate average = 0.174906
	minimum = 0.0735 (at node 3)
	maximum = 0.221 (at node 5)
Injected flit rate average = 0.174594
	minimum = 0.073 (at node 12)
	maximum = 0.2215 (at node 5)
Accepted flit rate average= 0.174906
	minimum = 0.0735 (at node 3)
	maximum = 0.221 (at node 5)
Injected packet length average = 1
Accepted packet length average = 1
Total in-flight flits = 84 (84 measured)
latency change    = 0.0841197
throughput change = 0.00125067
Class 0:
Packet latency average = 428.375
	minimum = 7
	maximum = 3810
Network latency average = 30.7093
	minimum = 7
	maximum = 336
Slowest packet = 8166
Flit latency average = 31.0119
	minimum = 7
	maximum = 336
Slowest flit = 15037
Fragmentation average = 0
	minimum = 0
	maximum = 0
Injected packet rate average = 0.175042
	minimum = 0.0763333 (at node 12)
	maximum = 0.217667 (at node 0)
Accepted packet rate average = 0.175146
	minimum = 0.0756667 (at node 3)
	maximum = 0.217667 (at node 0)
Injected flit rate average = 0.175042
	minimum = 0.0763333 (at node 12)
	maximum = 0.217667 (at node 0)
Accepted flit rate average= 0.175146
	minimum = 0.0756667 (at node 3)
	maximum = 0.217667 (at node 0)
Injected packet length average = 1
Accepted packet length average = 1
Total in-flight flits = 90 (90 measured)
latency change    = 0.0746874
throughput change = 0.00136791
Class 0:
Packet latency average = 471.21
	minimum = 7
	maximum = 4465
Network latency average = 31.0697
	minimum = 7
	maximum = 336
Slowest packet = 8166
Flit latency average = 31.2962
	minimum = 7
	maximum = 336
Slowest flit = 15037
Fragmentation average = 0
	minimum = 0
	maximum = 0
Injected packet rate average = 0.173234
	minimum = 0.07475 (at node 12)
	maximum = 0.216 (at node 0)
Accepted packet rate average = 0.173156
	minimum = 0.07475 (at node 3)
	maximum = 0.216 (at node 0)
Injected flit rate average = 0.173234
	minimum = 0.07475 (at node 12)
	maximum = 0.216 (at node 0)
Accepted flit rate average= 0.173156
	minimum = 0.07475 (at node 3)
	maximum = 0.216 (at node 0)
Injected packet length average = 1
Accepted packet length average = 1
Total in-flight flits = 100 (100 measured)
latency change    = 0.0909043
throughput change = 0.0114901
Class 0:
Packet latency average = 525.282
	minimum = 7
	maximum = 5073
Network latency average = 31.1204
	minimum = 7
	maximum = 336
Slowest packet = 8166
Flit latency average = 31.3014
	minimum = 7
	maximum = 336
Slowest flit = 15037
Fragmentation average = 0
	minimum = 0
	maximum = 0
Injected packet rate average = 0.173237
	minimum = 0.0754 (at node 12)
	maximum = 0.218 (at node 0)
Accepted packet rate average = 0.173137
	minimum = 0.075 (at node 3)
	maximum = 0.2178 (at node 0)
Injected flit rate average = 0.173237
	minimum = 0.0754 (at node 12)
	maximum = 0.218 (at node 0)
Accepted flit rate average= 0.173137
	minimum = 0.075 (at node 3)
	maximum = 0.2178 (at node 0)
Injected packet length average = 1
Accepted packet length average = 1
Total in-flight flits = 101 (101 measured)
latency change    = 0.102938
throughput change = 0.000108295
Average latency for class 0 exceeded 500 cycles. Aborting simulation.
Too many sample periods needed to converge
Simulation unstable, ending ...
Total run time 0.46612
