BEGIN Configuration File: /tmp/test_planar_8x8_transpose.cfg
topology = mesh;
k = 8;
n = 2;
routing_function = planar_adapt;
num_vcs = 4;
vc_buf_size = 4;
wait_for_tail_credit = 1;
priority = local_age;
sim_type = latency;
warmup_periods = 3;
sample_period = 1000;
sim_count = 100;
print_csv_results = 1;
traffic = transpose;
injection_rate = 0.01;
packet_size = 1;

END Configuration File: /tmp/test_planar_8x8_transpose.cfg
Class 0:
Packet latency average = 32.9983
	minimum = 7
	maximum = 81
Network latency average = 32.9983
	minimum = 7
	maximum = 81
Slowest packet = 222
Flit latency average = 32.9983
	minimum = 7
	maximum = 81
Slowest flit = 222
Fragmentation average = 0
	minimum = 0
	maximum = 0
Injected packet rate average = 0.00960937
	minimum = 0.003 (at node 21)
	maximum = 0.015 (at node 18)
Accepted packet rate average = 0.009375
	minimum = 0.003 (at node 42)
	maximum = 0.015 (at node 11)
Injected flit rate average = 0.00960937
	minimum = 0.003 (at node 21)
	maximum = 0.015 (at node 18)
Accepted flit rate average= 0.009375
	minimum = 0.003 (at node 42)
	maximum = 0.015 (at node 11)
Injected packet length average = 1
Accepted packet length average = 1
Total in-flight flits = 15 (0 measured)
latency change    = 1
throughput change = 1
Class 0:
Packet latency average = 33.0668
	minimum = 7
	maximum = 83
Network latency average = 33.0668
	minimum = 7
	maximum = 83
Slowest packet = 993
Flit latency average = 33.0668
	minimum = 7
	maximum = 83
Slowest flit = 993
Fragmentation average = 0
	minimum = 0
	maximum = 0
Injected packet rate average = 0.00977344
	minimum = 0.0045 (at node 55)
	maximum = 0.015 (at node 42)
Accepted packet rate average = 0.00959375
	minimum = 0.0045 (at node 62)
	maximum = 0.015 (at node 45)
Injected flit rate average = 0.00977344
	minimum = 0.0045 (at node 55)
	maximum = 0.015 (at node 42)
Accepted flit rate average= 0.00959375
	minimum = 0.0045 (at node 62)
	maximum = 0.015 (at node 45)
Injected packet length average = 1
Accepted packet length average = 1
Total in-flight flits = 23 (0 measured)
latency change    = 0.00206981
throughput change = 0.0228013
Class 0:
Packet latency average = 32.9181
	minimum = 7
	maximum = 87
Network latency average = 32.9181
	minimum = 7
	maximum = 87
Slowest packet = 1815
Flit latency average = 32.9181
	minimum = 7
	maximum = 87
Slowest flit = 1815
Fragmentation average = 0
	minimum = 0
	maximum = 0
Injected packet rate average = 0.0103281
	minimum = 0.003 (at node 22)
	maximum = 0.022 (at node 1)
Accepted packet rate average = 0.0102969
	minimum = 0.003 (at node 50)
	maximum = 0.024 (at node 8)
Injected flit rate average = 0.0103281
	minimum = 0.003 (at node 22)
	maximum = 0.022 (at node 1)
Accepted flit rate average= 0.0102969
	minimum = 0.003 (at node 50)
	maximum = 0.024 (at node 8)
Injected packet length average = 1
Accepted packet length average = 1
Total in-flight flits = 25 (0 measured)
latency change    = 0.00451781
throughput change = 0.0682853
Warmed up ...Time used is 3000 cycles
Class 0:
Packet latency average = 33.2319
	minimum = 7
	maximum = 80
Network latency average = 33.2319
	minimum = 7
	maximum = 80
Slowest packet = 1925
Flit latency average = 33.6548
	minimum = 7
	maximum = 80
Slowest flit = 1925
Fragmentation average = 0
	minimum = 0
	maximum = 0
Injected packet rate average = 0.0100469
	minimum = 0.003 (at node 30)
	maximum = 0.017 (at node 23)
Accepted packet rate average = 0.0100938
	minimum = 0.003 (at node 51)
	maximum = 0.018 (at node 58)
Injected flit rate average = 0.0100469
	minimum = 0.003 (at node 30)
	maximum = 0.017 (at node 23)
Accepted flit rate average= 0.0100938
	minimum = 0.003 (at node 51)
	maximum = 0.018 (at node 58)
Injected packet length average = 1
Accepted packet length average = 1
Total in-flight flits = 22 (22 measured)
latency change    = 0.00944353
throughput change = 0.0201238
Class 0:
Packet latency average = 32.9992
	minimum = 7
	maximum = 87
Network latency average = 32.9992
	minimum = 7
	maximum = 87
Slowest packet = 2706
Flit latency average = 33.2213
	minimum = 7
	maximum = 87
Slowest flit = 2706
Fragmentation average = 0
	minimum = 0
	maximum = 0
Injected packet rate average = 0.00976562
	minimum = 0.004 (at node 30)
	maximum = 0.016 (at node 43)
Accepted packet rate average = 0.0098125
	minimum = 0.004 (at node 51)
	maximum = 0.017 (at node 29)
Injected flit rate average = 0.00976562
	minimum = 0.004 (at node 30)
	maximum = 0.016 (at node 43)
Accepted flit rate average= 0.0098125
	minimum = 0.004 (at node 51)
	maximum = 0.017 (at node 29)
Injected packet length average = 1
Accepted packet length average = 1
Total in-flight flits = 19 (19 measured)
latency change    = 0.00705158
throughput change = 0.0286624
Class 0:
Packet latency average = 32.8628
	minimum = 7
	maximum = 87
Network latency average = 32.8628
	minimum = 7
	maximum = 87
Slowest packet = 2706
Flit latency average = 33.0145
	minimum = 7
	maximum = 87
Slowest flit = 2706
Fragmentation average = 0
	minimum = 0
	maximum = 0
Injected packet rate average = 0.00970833
	minimum = 0.005 (at node 30)
	maximum = 0.0136667 (at node 37)
Accepted packet rate average = 0.00969792
	minimum = 0.00466667 (at node 51)
	maximum = 0.014 (at node 29)
Injected flit rate average = 0.00970833
	minimum = 0.005 (at node 30)
	maximum = 0.0136667 (at node 37)
Accepted flit rate average= 0.00969792
	minimum = 0.00466667 (at node 51)
	maximum = 0.014 (at node 29)
Injected packet length average = 1
Accepted packet length average = 1
Total in-flight flits = 27 (27 measured)
latency change    = 0.00414961
throughput change = 0.0118153
Draining all recorded packets ...
Draining remaining packets ...
Time taken is 6121 cycles
Class 0:
Packet latency average = 33.4327
	minimum = 7
	maximum = 80
Network latency average = 33.4327
	minimum = 7
	maximum = 80
Slowest packet = 3834
Flit latency average = 33.4327
	minimum = 7
	maximum = 80
Slowest flit = 3834
Fragmentation average = 0
	minimum = 0
	maximum = 0
Injected packet rate average = 0.01
	minimum = 0.003 (at node 42)
	maximum = 0.017 (at node 29)
Accepted packet rate average = 0.00964062
	minimum = 0.003 (at node 21)
	maximum = 0.016 (at node 43)
Injected flit rate average = 0.01
	minimum = 0.003 (at node 42)
	maximum = 0.017 (at node 29)
Accepted flit rate average= 0.00964062
	minimum = 0.003 (at node 21)
	maximum = 0.016 (at node 43)
Injected packet length average = 1
Accepted packet length average = 1
Total in-flight flits = 23 (0 measured)
latency change    = 1
throughput change = 1
Class 0:
Packet latency average = 33.3917
	minimum = 7
	maximum = 84
Network latency average = 33.3917
	minimum = 7
	maximum = 84
Slowest packet = 4452
Flit latency average = 33.3917
	minimum = 7
	maximum = 84
Slowest flit = 4452
Fragmentation average = 0
	minimum = 0
	maximum = 0
Injected packet rate average = 0.010125
	minimum = 0.0055 (at node 12)
	maximum = 0.0145 (at node 8)
Accepted packet rate average = 0.00995313
	minimum = 0.005 (at node 33)
	maximum = 0.0145 (at node 1)
Injected flit rate average = 0.010125
	minimum = 0.0055 (at node 12)
	maximum = 0.0145 (at node 8)
Accepted flit rate average= 0.00995313
	minimum = 0.005 (at node 33)
	maximum = 0.0145 (at node 1)
Injected packet length average = 1
Accepted packet length average = 1
Total in-flight flits = 22 (0 measured)
latency change    = 0.00122963
throughput change = 0.0313972
Class 0:
Packet latency average = 32.8817
	minimum = 7
	maximum = 77
Network latency average = 32.8817
	minimum = 7
	maximum = 77
Slowest packet = 5074
Flit latency average = 32.8817
	minimum = 7
	maximum = 77
Slowest flit = 5074
Fragmentation average = 0
	minimum = 0
	maximum = 0
Injected packet rate average = 0.00942187
	minimum = 0.002 (at node 37)
	maximum = 0.02 (at node 28)
Accepted packet rate average = 0.009375
	minimum = 0.003 (at node 44)
	maximum = 0.02 (at node 35)
Injected flit rate average = 0.00942187
	minimum = 0.002 (at node 37)
	maximum = 0.02 (at node 28)
Accepted flit rate average= 0.009375
	minimum = 0.003 (at node 44)
	maximum = 0.02 (at node 35)
Injected packet length average = 1
Accepted packet length average = 1
Total in-flight flits = 25 (0 measured)
latency change    = 0.0155106
throughput change = 0.0616667
Warmed up ...Time used is 3000 cycles
Class 0:
Packet latency average = 34.0798
	minimum = 7
	maximum = 84
Network latency average = 34.0798
	minimum = 7
	maximum = 84
Slowest packet = 6199
Flit latency average = 34.6103
	minimum = 7
	maximum = 84
Slowest flit = 6199
Fragmentation average = 0
	minimum = 0
	maximum = 0
Injected packet rate average = 0.00992188
	minimum = 0.005 (at node 1)
	maximum = 0.016 (at node 44)
Accepted packet rate average = 0.00998438
	minimum = 0.005 (at node 8)
	maximum = 0.016 (at node 37)
Injected flit rate average = 0.00992188
	minimum = 0.005 (at node 1)
	maximum = 0.016 (at node 44)
Accepted flit rate average= 0.00998438
	minimum = 0.005 (at node 8)
	maximum = 0.016 (at node 37)
Injected packet length average = 1
Accepted packet length average = 1
Total in-flight flits = 21 (21 measured)
latency change    = 0.0351568
throughput change = 0.0610329
Class 0:
Packet latency average = 34.0102
	minimum = 7
	maximum = 84
Network latency average = 34.0102
	minimum = 7
	maximum = 84
Slowest packet = 6199
Flit latency average = 34.2729
	minimum = 7
	maximum = 84
Slowest flit = 6199
Fragmentation average = 0
	minimum = 0
	maximum = 0
Injected packet rate average = 0.010125
	minimum = 0.005 (at node 60)
	maximum = 0.015 (at node 58)
Accepted packet rate average = 0.0101328
	minimum = 0.005 (at node 39)
	maximum = 0.0145 (at node 23)
Injected flit rate average = 0.010125
	minimum = 0.005 (at node 60)
	maximum = 0.015 (at node 58)
Accepted flit rate average= 0.0101328
	minimum = 0.005 (at node 39)
	maximum = 0.0145 (at node 23)
Injected packet length average = 1
Accepted packet length average = 1
Total in-flight flits = 24 (24 measured)
latency change    = 0.00204599
throughput change = 0.0146492
Class 0:
Packet latency average = 34.1691
	minimum = 7
	maximum = 100
Network latency average = 34.1691
	minimum = 7
	maximum = 100
Slowest packet = 7308
Flit latency average = 34.3394
	minimum = 7
	maximum = 100
Slowest flit = 7308
Fragmentation average = 0
	minimum = 0
	maximum = 0
Injected packet rate average = 0.0102917
	minimum = 0.005 (at node 60)
	maximum = 0.0146667 (at node 15)
Accepted packet rate average = 0.0102969
	minimum = 0.00466667 (at node 39)
	maximum = 0.0146667 (at node 57)
Injected flit rate average = 0.0102917
	minimum = 0.005 (at node 60)
	maximum = 0.0146667 (at node 15)
Accepted flit rate average= 0.0102969
	minimum = 0.00466667 (at node 39)
	maximum = 0.0146667 (at node 57)
Injected packet length average = 1
Accepted packet length average = 1
Total in-flight flits = 24 (24 measured)
latency change    = 0.00464857
throughput change = 0.0159332
Class 0:
Packet latency average = 34.0242
	minimum = 7
	maximum = 100
Network latency average = 34.0242
	minimum = 7
	maximum = 100
Slowest packet = 7308
Flit latency average = 34.1539
	minimum = 7
	maximum = 100
Slowest flit = 7308
Fragmentation average = 0
	minimum = 0
	maximum = 0
Injected packet rate average = 0.0102344
	minimum = 0.00675 (at node 60)
	maximum = 0.0135 (at node 4)
Accepted packet rate average = 0.0102539
	minimum = 0.00675 (at node 39)
	maximum = 0.01375 (at node 32)
Injected flit rate average = 0.0102344
	minimum = 0.00675 (at node 60)
	maximum = 0.0135 (at node 4)
Accepted flit rate average= 0.0102539
	minimum = 0.00675 (at node 39)
	maximum = 0.01375 (at node 32)
Injected packet length average = 1
Accepted packet length average = 1
Total in-flight flits = 20 (20 measured)
latency change    = 0.00425657
throughput change = 0.00419048
Draining all recorded packets ...
Draining remaining packets ...
Time taken is 7122 cycles
Class 0:
Packet latency average = 34.1373
	minimum = 7
	maximum = 84
Network latency average = 34.1373
	minimum = 7
	maximum = 84
Slowest packet = 8399
Flit latency average = 34.1373
	minimum = 7
	maximum = 84
Slowest flit = 8399
Fragmentation average = 0
	minimum = 0
	maximum = 0
Injected packet rate average = 0.00951562
	minimum = 0.004 (at node 17)
	maximum = 0.017 (at node 46)
Accepted packet rate average = 0.00921875
	minimum = 0.003 (at node 10)
	maximum = 0.017 (at node 53)
Injected flit rate average = 0.00951562
	minimum = 0.004 (at node 17)
	maximum = 0.017 (at node 46)
Accepted flit rate average= 0.00921875
	minimum = 0.003 (at node 10)
	maximum = 0.017 (at node 53)
Injected packet length average = 1
Accepted packet length average = 1
Total in-flight flits = 19 (0 measured)
latency change    = 1
throughput change = 1
Class 0:
Packet latency average = 34.2156
	minimum = 7
	maximum = 84
Network latency average = 34.2156
	minimum = 7
	maximum = 84
Slowest packet = 8399
Flit latency average = 34.2156
	minimum = 7
	maximum = 84
Slowest flit = 8399
Fragmentation average = 0
	minimum = 0
	maximum = 0
Injected packet rate average = 0.00958594
	minimum = 0.0045 (at node 19)
	maximum = 0.015 (at node 51)
Accepted packet rate average = 0.00942187
	minimum = 0.0045 (at node 26)
	maximum = 0.015 (at node 30)
Injected flit rate average = 0.00958594
	minimum = 0.0045 (at node 19)
	maximum = 0.015 (at node 51)
Accepted flit rate average= 0.00942187
	minimum = 0.0045 (at node 26)
	maximum = 0.015 (at node 30)
Injected packet length average = 1
Accepted packet length average = 1
Total in-flight flits = 21 (0 measured)
latency change    = 0.00228845
throughput change = 0.0215589
Class 0:
Packet latency average = 33.8596
	minimum = 7
	maximum = 77
Network latency average = 33.8596
	minimum = 7
	maximum = 77
Slowest packet = 9590
Flit latency average = 33.8596
	minimum = 7
	maximum = 77
Slowest flit = 9590
Fragmentation average = 0
	minimum = 0
	maximum = 0
Injected packet rate average = 0.0100156
	minimum = 0.005 (at node 15)
	maximum = 0.018 (at node 12)
Accepted packet rate average = 0.0100156
	minimum = 0.005 (at node 10)
	maximum = 0.019 (at node 33)
Injected flit rate average = 0.0100156
	minimum = 0.005 (at node 15)
	maximum = 0.018 (at node 12)
Accepted flit rate average= 0.0100156
	minimum = 0.005 (at node 10)
	maximum = 0.019 (at node 33)
Injected packet length average = 1
Accepted packet length average = 1
Total in-flight flits = 21 (0 measured)
latency change    = 0.0105138
throughput change = 0.0592824
Warmed up ...Time used is 3000 cycles
Class 0:
Packet latency average = 31.9932
	minimum = 7
	maximum = 84
Network latency average = 31.9932
	minimum = 7
	maximum = 84
Slowest packet = 10516
Flit latency average = 32.482
	minimum = 7
	maximum = 84
Slowest flit = 10516
Fragmentation average = 0
	minimum = 0
	maximum = 0
Injected packet rate average = 0.00951562
	minimum = 0.003 (at node 44)
	maximum = 0.021 (at node 47)
Accepted packet rate average = 0.00953125
	minimum = 0.002 (at node 57)
	maximum = 0.022 (at node 61)
Injected flit rate average = 0.00951562
	minimum = 0.003 (at node 44)
	maximum = 0.021 (at node 47)
Accepted flit rate average= 0.00953125
	minimum = 0.002 (at node 57)
	maximum = 0.022 (at node 61)
Injected packet length average = 1
Accepted packet length average = 1
Total in-flight flits = 20 (20 measured)
latency change    = 0.0583369
throughput change = 0.0508197
Class 0:
Packet latency average = 33.0849
	minimum = 7
	maximum = 84
Network latency average = 33.0849
	minimum = 7
	maximum = 84
Slowest packet = 10516
Flit latency average = 33.2998
	minimum = 7
	maximum = 84
Slowest flit = 10516
Fragmentation average = 0
	minimum = 0
	maximum = 0
Injected packet rate average = 0.01
	minimum = 0.004 (at node 30)
	maximum = 0.0155 (at node 47)
Accepted packet rate average = 0.0100078
	minimum = 0.004 (at node 51)
	maximum = 0.016 (at node 61)
Injected flit rate average = 0.01
	minimum = 0.004 (at node 30)
	maximum = 0.0155 (at node 47)
Accepted flit rate average= 0.0100078
	minimum = 0.004 (at node 51)
	maximum = 0.016 (at node 61)
Injected packet length average = 1
Accepted packet length average = 1
Total in-flight flits = 20 (20 measured)
latency change    = 0.0329973
throughput change = 0.047619
Class 0:
Packet latency average = 33.2467
	minimum = 7
	maximum = 84
Network latency average = 33.2467
	minimum = 7
	maximum = 84
Slowest packet = 10516
Flit latency average = 33.3893
	minimum = 7
	maximum = 84
Slowest flit = 10516
Fragmentation average = 0
	minimum = 0
	maximum = 0
Injected packet rate average = 0.00993229
	minimum = 0.00566667 (at node 30)
	maximum = 0.0136667 (at node 47)
Accepted packet rate average = 0.00992708
	minimum = 0.00566667 (at node 51)
	maximum = 0.014 (at node 61)
Injected flit rate average = 0.00993229
	minimum = 0.00566667 (at node 30)
	maximum = 0.0136667 (at node 47)
Accepted flit rate average= 0.00992708
	minimum = 0.00566667 (at node 51)
	maximum = 0.014 (at node 61)
Injected packet length average = 1
Accepted packet length average = 1
Total in-flight flits = 22 (22 measured)
latency change    = 0.00486556
throughput change = 0.00813221
Class 0:
Packet latency average = 33.18
	minimum = 7
	maximum = 84
Network latency average = 33.18
	minimum = 7
	maximum = 84
Slowest packet = 10516
Flit latency average = 33.287
	minimum = 7
	maximum = 84
Slowest flit = 10516
Fragmentation average = 0
	minimum = 0
	maximum = 0
Injected packet rate average = 0.00999219
	minimum = 0.00625 (at node 30)
	maximum = 0.014 (at node 47)
Accepted packet rate average = 0.00997656
	minimum = 0.006 (at node 51)
	maximum = 0.01425 (at node 61)
Injected flit rate average = 0.00999219
	minimum = 0.00625 (at node 30)
	maximum = 0.014 (at node 47)
Accepted flit rate average= 0.00997656
	minimum = 0.006 (at node 51)
	maximum = 0.01425 (at node 61)
Injected packet length average = 1
Accepted packet length average = 1
Total in-flight flits = 25 (25 measured)
latency change    = 0.00200906
throughput change = 0.00495954
Draining all recorded packets ...
Draining remaining packets ...
Time taken is 7124 cycles
Class 0:
Packet latency average = 32.5561
	minimum = 7
	maximum = 77
Network latency average = 32.5561
	minimum = 7
	maximum = 77
Slowest packet = 12843
Flit latency average = 32.5561
	minimum = 7
	maximum = 77
Slowest flit = 12843
Fragmentation average = 0
	minimum = 0
	maximum = 0
Injected packet rate average = 0.00990625
	minimum = 0.005 (at node 26)
	maximum = 0.018 (at node 19)
Accepted packet rate average = 0.00960937
	minimum = 0.005 (at node 19)
	maximum = 0.017 (at node 26)
Injected flit rate average = 0.00990625
	minimum = 0.005 (at node 26)
	maximum = 0.018 (at node 19)
Accepted flit rate average= 0.00960937
	minimum = 0.005 (at node 19)
	maximum = 0.017 (at node 26)
Injected packet length average = 1
Accepted packet length average = 1
Total in-flight flits = 19 (0 measured)
latency change    = 1
throughput change = 1
Class 0:
Packet latency average = 32.4548
	minimum = 7
	maximum = 78
Network latency average = 32.4548
	minimum = 7
	maximum = 78
Slowest packet = 13835
Flit latency average = 32.4548
	minimum = 7
	maximum = 78
Slowest flit = 13835
Fragmentation average = 0
	minimum = 0
	maximum = 0
Injected packet rate average = 0.0101328
	minimum = 0.006 (at node 14)
	maximum = 0.016 (at node 19)
Accepted packet rate average = 0.00994531
	minimum = 0.006 (at node 3)
	maximum = 0.016 (at node 26)
Injected flit rate average = 0.0101328
	minimum = 0.006 (at node 14)
	maximum = 0.016 (at node 19)
Accepted flit rate average= 0.00994531
	minimum = 0.006 (at node 3)
	maximum = 0.016 (at node 26)
Injected packet length average = 1
Accepted packet length average = 1
Total in-flight flits = 24 (0 measured)
latency change    = 0.00312023
throughput change = 0.0337785
Class 0:
Packet latency average = 32.6924
	minimum = 7
	maximum = 82
Network latency average = 32.6924
	minimum = 7
	maximum = 82
Slowest packet = 14551
Flit latency average = 32.6924
	minimum = 7
	maximum = 82
Slowest flit = 14551
Fragmentation average = 0
	minimum = 0
	maximum = 0
Injected packet rate average = 0.009625
	minimum = 0.003 (at node 34)
	maximum = 0.017 (at node 3)
Accepted packet rate average = 0.00970312
	minimum = 0.004 (at node 56)
	maximum = 0.017 (at node 7)
Injected flit rate average = 0.009625
	minimum = 0.003 (at node 34)
	maximum = 0.017 (at node 3)
Accepted flit rate average= 0.00970312
	minimum = 0.004 (at node 56)
	maximum = 0.017 (at node 7)
Injected packet length average = 1
Accepted packet length average = 1
Total in-flight flits = 19 (0 measured)
latency change    = 0.00726775
throughput change = 0.0249597
Warmed up ...Time used is 3000 cycles
Class 0:
Packet latency average = 33.695
	minimum = 7
	maximum = 78
Network latency average = 33.695
	minimum = 7
	maximum = 78
Slowest packet = 14888
Flit latency average = 34.0738
	minimum = 7
	maximum = 78
Slowest flit = 14888
Fragmentation average = 0
	minimum = 0
	maximum = 0
Injected packet rate average = 0.00954687
	minimum = 0.002 (at node 12)
	maximum = 0.017 (at node 15)
Accepted packet rate average = 0.0093125
	minimum = 0.002 (at node 33)
	maximum = 0.017 (at node 57)
Injected flit rate average = 0.00954687
	minimum = 0.002 (at node 12)
	maximum = 0.017 (at node 15)
Accepted flit rate average= 0.0093125
	minimum = 0.002 (at node 33)
	maximum = 0.017 (at node 57)
Injected packet length average = 1
Accepted packet length average = 1
Total in-flight flits = 34 (34 measured)
latency change    = 0.0297535
throughput change = 0.0419463
Class 0:
Packet latency average = 34.1124
	minimum = 7
	maximum = 82
Network latency average = 34.1124
	minimum = 7
	maximum = 82
Slowest packet = 15418
Flit latency average = 34.2884
	minimum = 7
	maximum = 82
Slowest flit = 15418
Fragmentation average = 0
	minimum = 0
	maximum = 0
Injected packet rate average = 0.00971094
	minimum = 0.005 (at node 12)
	maximum = 0.014 (at node 15)
Accepted packet rate average = 0.00967187
	minimum = 0.0045 (at node 33)
	maximum = 0.014 (at node 6)
Injected flit rate average = 0.00971094
	minimum = 0.005 (at node 12)
	maximum = 0.014 (at node 15)
Accepted flit rate average= 0.00967187
	minimum = 0.0045 (at node 33)
	maximum = 0.014 (at node 6)
Injected packet length average = 1
Accepted packet length average = 1
Total in-flight flits = 24 (24 measured)
latency change    = 0.0122364
throughput change = 0.0371567
Class 0:
Packet latency average = 34.247
	minimum = 7
	maximum = 82
Network latency average = 34.247
	minimum = 7
	maximum = 82
Slowest packet = 15418
Flit latency average = 34.3595
	minimum = 7
	maximum = 82
Slowest flit = 15418
Fragmentation average = 0
	minimum = 0
	maximum = 0
Injected packet rate average = 0.00997396
	minimum = 0.005 (at node 12)
	maximum = 0.0146667 (at node 46)
Accepted packet rate average = 0.00996875
	minimum = 0.005 (at node 33)
	maximum = 0.0146667 (at node 53)
Injected flit rate average = 0.00997396
	minimum = 0.005 (at node 12)
	maximum = 0.0146667 (at node 46)
Accepted flit rate average= 0.00996875
	minimum = 0.005 (at node 33)
	maximum = 0.0146667 (at node 53)
Injected packet length average = 1
Accepted packet length average = 1
Total in-flight flits = 20 (20 measured)
latency change    = 0.00392965
throughput change = 0.0297806
Draining all recorded packets ...
Draining remaining packets ...
Time taken is 6124 cycles
Class 0:
Packet latency average = 32.9734
	minimum = 7
	maximum = 81
Network latency average = 32.9734
	minimum = 7
	maximum = 81
Slowest packet = 17244
Flit latency average = 32.9734
	minimum = 7
	maximum = 81
Slowest flit = 17244
Fragmentation average = 0
	minimum = 0
	maximum = 0
Injected packet rate average = 0.0102969
	minimum = 0.004 (at node 45)
	maximum = 0.016 (at node 59)
Accepted packet rate average = 0.01
	minimum = 0.003 (at node 15)
	maximum = 0.015 (at node 9)
Injected flit rate average = 0.0102969
	minimum = 0.004 (at node 45)
	maximum = 0.016 (at node 59)
Accepted flit rate average= 0.01
	minimum = 0.003 (at node 15)
	maximum = 0.015 (at node 9)
Injected packet length average = 1
Accepted packet length average = 1
Total in-flight flits = 19 (0 measured)
latency change    = 1
throughput change = 1
Class 0:
Packet latency average = 32.619
	minimum = 7
	maximum = 82
Network latency average = 32.619
	minimum = 7
	maximum = 82
Slowest packet = 17795
Flit latency average = 32.619
	minimum = 7
	maximum = 82
Slowest flit = 17795
Fragmentation average = 0
	minimum = 0
	maximum = 0
Injected packet rate average = 0.0103359
	minimum = 0.005 (at node 58)
	maximum = 0.0155 (at node 14)
Accepted packet rate average = 0.0101719
	minimum = 0.005 (at node 15)
	maximum = 0.0155 (at node 49)
Injected flit rate average = 0.0103359
	minimum = 0.005 (at node 58)
	maximum = 0.0155 (at node 14)
Accepted flit rate average= 0.0101719
	minimum = 0.005 (at node 15)
	maximum = 0.0155 (at node 49)
Injected packet length average = 1
Accepted packet length average = 1
Total in-flight flits = 21 (0 measured)
latency change    = 0.0108645
throughput change = 0.0168971
Class 0:
Packet latency average = 33.8395
	minimum = 7
	maximum = 78
Network latency average = 33.8395
	minimum = 7
	maximum = 78
Slowest packet = 18360
Flit latency average = 33.8395
	minimum = 7
	maximum = 78
Slowest flit = 18360
Fragmentation average = 0
	minimum = 0
	maximum = 0
Injected packet rate average = 0.00985938
	minimum = 0.002 (at node 22)
	maximum = 0.022 (at node 43)
Accepted packet rate average = 0.00973437
	minimum = 0.002 (at node 35)
	maximum = 0.021 (at node 29)
Injected flit rate average = 0.00985938
	minimum = 0.002 (at node 22)
	maximum = 0.022 (at node 43)
Accepted flit rate average= 0.00973437
	minimum = 0.002 (at node 35)
	maximum = 0.021 (at node 29)
Injected packet length average = 1
Accepted packet length average = 1
Total in-flight flits = 29 (0 measured)
latency change    = 0.0360655
throughput change = 0.0449438
Warmed up ...Time used is 3000 cycles
Class 0:
Packet latency average = 33.7578
	minimum = 7
	maximum = 82
Network latency average = 33.7578
	minimum = 7
	maximum = 82
Slowest packet = 19114
Flit latency average = 33.8484
	minimum = 7
	maximum = 82
Slowest flit = 19114
Fragmentation average = 0
	minimum = 0
	maximum = 0
Injected packet rate average = 0.0102969
	minimum = 0.003 (at node 22)
	maximum = 0.019 (at node 46)
Accepted packet rate average = 0.0105156
	minimum = 0.002 (at node 50)
	maximum = 0.019 (at node 53)
Injected flit rate average = 0.0102969
	minimum = 0.003 (at node 22)
	maximum = 0.019 (at node 46)
Accepted flit rate average= 0.0105156
	minimum = 0.002 (at node 50)
	maximum = 0.019 (at node 53)
Injected packet length average = 1
Accepted packet length average = 1
Total in-flight flits = 15 (15 measured)
latency change    = 0.00242085
throughput change = 0.0742942
Class 0:
Packet latency average = 33.3289
	minimum = 7
	maximum = 82
Network latency average = 33.3289
	minimum = 7
	maximum = 82
Slowest packet = 19114
Flit latency average = 33.3856
	minimum = 7
	maximum = 82
Slowest flit = 19114
Fragmentation average = 0
	minimum = 0
	maximum = 0
Injected packet rate average = 0.0100313
	minimum = 0.0055 (at node 34)
	maximum = 0.016 (at node 16)
Accepted packet rate average = 0.0101094
	minimum = 0.005 (at node 20)
	maximum = 0.016 (at node 28)
Injected flit rate average = 0.0100313
	minimum = 0.0055 (at node 34)
	maximum = 0.016 (at node 16)
Accepted flit rate average= 0.0101094
	minimum = 0.005 (at node 20)
	maximum = 0.016 (at node 28)
Injected packet length average = 1
Accepted packet length average = 1
Total in-flight flits = 19 (19 measured)
latency change    = 0.012869
throughput change = 0.0401855
Class 0:
Packet latency average = 33.3979
	minimum = 7
	maximum = 94
Network latency average = 33.3979
	minimum = 7
	maximum = 94
Slowest packet = 20482
Flit latency average = 33.4346
	minimum = 7
	maximum = 94
Slowest flit = 20482
Fragmentation average = 0
	minimum = 0
	maximum = 0
Injected packet rate average = 0.0101146
	minimum = 0.006 (at node 37)
	maximum = 0.0143333 (at node 35)
Accepted packet rate average = 0.010151
	minimum = 0.006 (at node 44)
	maximum = 0.0143333 (at node 28)
Injected flit rate average = 0.0101146
	minimum = 0.006 (at node 37)
	maximum = 0.0143333 (at node 35)
Accepted flit rate average= 0.010151
	minimum = 0.006 (at node 44)
	maximum = 0.0143333 (at node 28)
Injected packet length average = 1
Accepted packet length average = 1
Total in-flight flits = 22 (22 measured)
latency change    = 0.00206788
throughput change = 0.00410467
Class 0:
Packet latency average = 33.157
	minimum = 7
	maximum = 94
Network latency average = 33.157
	minimum = 7
	maximum = 94
Slowest packet = 20482
Flit latency average = 33.1872
	minimum = 7
	maximum = 94
Slowest flit = 20482
Fragmentation average = 0
	minimum = 0
	maximum = 0
Injected packet rate average = 0.0101211
	minimum = 0.007 (at node 37)
	maximum = 0.0145 (at node 35)
Accepted packet rate average = 0.0101641
	minimum = 0.007 (at node 44)
	maximum = 0.0145 (at node 28)
Injected flit rate average = 0.0101211
	minimum = 0.007 (at node 37)
	maximum = 0.0145 (at node 35)
Accepted flit rate average= 0.0101641
	minimum = 0.007 (at node 44)
	maximum = 0.0145 (at node 28)
Injected packet length average = 1
Accepted packet length average = 1
Total in-flight flits = 18 (18 measured)
latency change    = 0.00726548
throughput change = 0.00128107
Draining all recorded packets ...
Draining remaining packets ...
Time taken is 7132 cycles
Class 0:
Packet latency average = 32.173
	minimum = 7
	maximum = 78
Network latency average = 32.173
	minimum = 7
	maximum = 78
Slowest packet = 21386
Flit latency average = 32.173
	minimum = 7
	maximum = 78
Slowest flit = 21386
Fragmentation average = 0
	minimum = 0
	maximum = 0
Injected packet rate average = 0.00975
	minimum = 0.004 (at node 40)
	maximum = 0.016 (at node 20)
Accepted packet rate average = 0.00948437
	minimum = 0.004 (at node 5)
	maximum = 0.016 (at node 34)
Injected flit rate average = 0.00975
	minimum = 0.004 (at node 40)
	maximum = 0.016 (at node 20)
Accepted flit rate average= 0.00948437
	minimum = 0.004 (at node 5)
	maximum = 0.016 (at node 34)
Injected packet length average = 1
Accepted packet length average = 1
Total in-flight flits = 17 (0 measured)
latency change    = 1
throughput change = 1
Class 0:
Packet latency average = 32.4388
	minimum = 7
	maximum = 81
Network latency average = 32.4388
	minimum = 7
	maximum = 81
Slowest packet = 21894
Flit latency average = 32.4388
	minimum = 7
	maximum = 81
Slowest flit = 21894
Fragmentation average = 0
	minimum = 0
	maximum = 0
Injected packet rate average = 0.00971094
	minimum = 0.0055 (at node 6)
	maximum = 0.014 (at node 17)
Accepted packet rate average = 0.00957812
	minimum = 0.0055 (at node 48)
	maximum = 0.014 (at node 10)
Injected flit rate average = 0.00971094
	minimum = 0.0055 (at node 6)
	maximum = 0.014 (at node 17)
Accepted flit rate average= 0.00957812
	minimum = 0.0055 (at node 48)
	maximum = 0.014 (at node 10)
Injected packet length average = 1
Accepted packet length average = 1
Total in-flight flits = 17 (0 measured)
latency change    = 0.00819523
throughput change = 0.00978793
Class 0:
Packet latency average = 34.4467
	minimum = 7
	maximum = 85
Network latency average = 34.4467
	minimum = 7
	maximum = 85
Slowest packet = 22928
Flit latency average = 34.4467
	minimum = 7
	maximum = 85
Slowest flit = 22928
Fragmentation average = 0
	minimum = 0
	maximum = 0
Injected packet rate average = 0.0100313
	minimum = 0.005 (at node 27)
	maximum = 0.016 (at node 31)
Accepted packet rate average = 0.00982813
	minimum = 0.005 (at node 27)
	maximum = 0.016 (at node 59)
Injected flit rate average = 0.0100313
	minimum = 0.005 (at node 27)
	maximum = 0.016 (at node 31)
Accepted flit rate average= 0.00982813
	minimum = 0.005 (at node 27)
	maximum = 0.016 (at node 59)
Injected packet length average = 1
Accepted packet length average = 1
Total in-flight flits = 30 (0 measured)
latency change    = 0.0582904
throughput change = 0.0254372
Warmed up ...Time used is 3000 cycles
Class 0:
Packet latency average = 31.603
	minimum = 7
	maximum = 81
Network latency average = 31.603
	minimum = 7
	maximum = 81
Slowest packet = 23374
Flit latency average = 32.0391
	minimum = 7
	maximum = 81
Slowest flit = 23374
Fragmentation average = 0
	minimum = 0
	maximum = 0
Injected packet rate average = 0.0106875
	minimum = 0.005 (at node 6)
	maximum = 0.02 (at node 3)
Accepted packet rate average = 0.0107812
	minimum = 0.005 (at node 58)
	maximum = 0.021 (at node 24)
Injected flit rate average = 0.0106875
	minimum = 0.005 (at node 6)
	maximum = 0.02 (at node 3)
Accepted flit rate average= 0.0107812
	minimum = 0.005 (at node 58)
	maximum = 0.021 (at node 24)
Injected packet length average = 1
Accepted packet length average = 1
Total in-flight flits = 24 (24 measured)
latency change    = 0.0899822
throughput change = 0.0884058
Class 0:
Packet latency average = 32.4148
	minimum = 7
	maximum = 81
Network latency average = 32.4148
	minimum = 7
	maximum = 81
Slowest packet = 23374
Flit latency average = 32.626
	minimum = 7
	maximum = 81
Slowest flit = 23374
Fragmentation average = 0
	minimum = 0
	maximum = 0
Injected packet rate average = 0.0101875
	minimum = 0.006 (at node 30)
	maximum = 0.0155 (at node 36)
Accepted packet rate average = 0.0102344
	minimum = 0.006 (at node 14)
	maximum = 0.0155 (at node 36)
Injected flit rate average = 0.0101875
	minimum = 0.006 (at node 30)
	maximum = 0.0155 (at node 36)
Accepted flit rate average= 0.0102344
	minimum = 0.006 (at node 14)
	maximum = 0.0155 (at node 36)
Injected packet length average = 1
Accepted packet length average = 1
Total in-flight flits = 24 (24 measured)
latency change    = 0.0250445
throughput change = 0.0534351
Class 0:
Packet latency average = 32.6555
	minimum = 7
	maximum = 81
Network latency average = 32.6555
	minimum = 7
	maximum = 81
Slowest packet = 23374
Flit latency average = 32.7947
	minimum = 7
	maximum = 81
Slowest flit = 23374
Fragmentation average = 0
	minimum = 0
	maximum = 0
Injected packet rate average = 0.0100469
	minimum = 0.005 (at node 39)
	maximum = 0.014 (at node 14)
Accepted packet rate average = 0.0100729
	minimum = 0.005 (at node 60)
	maximum = 0.0143333 (at node 49)
Injected flit rate average = 0.0100469
	minimum = 0.005 (at node 39)
	maximum = 0.014 (at node 14)
Accepted flit rate average= 0.0100729
	minimum = 0.005 (at node 60)
	maximum = 0.0143333 (at node 49)
Injected packet length average = 1
Accepted packet length average = 1
Total in-flight flits = 25 (25 measured)
latency change    = 0.0073684
throughput change = 0.016029
Class 0:
Packet latency average = 32.8124
	minimum = 7
	maximum = 81
Network latency average = 32.8124
	minimum = 7
	maximum = 81
Slowest packet = 23374
Flit latency average = 32.9151
	minimum = 7
	maximum = 81
Slowest flit = 23374
Fragmentation average = 0
	minimum = 0
	maximum = 0
Injected packet rate average = 0.0100195
	minimum = 0.005 (at node 39)
	maximum = 0.0135 (at node 14)
Accepted packet rate average = 0.0100703
	minimum = 0.00525 (at node 60)
	maximum = 0.01375 (at node 49)
Injected flit rate average = 0.0100195
	minimum = 0.005 (at node 39)
	maximum = 0.0135 (at node 14)
Accepted flit rate average= 0.0100703
	minimum = 0.00525 (at node 60)
	maximum = 0.01375 (at node 49)
Injected packet length average = 1
Accepted packet length average = 1
Total in-flight flits = 17 (17 measured)
latency change    = 0.00478294
throughput change = 0.000258598
Class 0:
Packet latency average = 32.8012
	minimum = 7
	maximum = 81
Network latency average = 32.8012
	minimum = 7
	maximum = 81
Slowest packet = 23374
Flit latency average = 32.8831
	minimum = 7
	maximum = 81
Slowest flit = 23374
Fragmentation average = 0
	minimum = 0
	maximum = 0
Injected packet rate average = 0.0101063
	minimum = 0.0054 (at node 39)
	maximum = 0.0136 (at node 33)
Accepted packet rate average = 0.0101063
	minimum = 0.0054 (at node 60)
	maximum = 0.0136 (at node 12)
Injected flit rate average = 0.0101063
	minimum = 0.0054 (at node 39)
	maximum = 0.0136 (at node 33)
Accepted flit rate average= 0.0101063
	minimum = 0.0054 (at node 60)
	maximum = 0.0136 (at node 12)
Injected packet length average = 1
Accepted packet length average = 1
Total in-flight flits = 30 (30 measured)
latency change    = 0.000341935
throughput change = 0.00355597
Draining all recorded packets ...
Draining remaining packets ...
Time taken is 8138 cycles
Class 0:
Packet latency average = 33.6095
	minimum = 7
	maximum = 82
Network latency average = 33.6095
	minimum = 7
	maximum = 82
Slowest packet = 26892
Flit latency average = 33.6095
	minimum = 7
	maximum = 82
Slowest flit = 26892
Fragmentation average = 0
	minimum = 0
	maximum = 0
Injected packet rate average = 0.0099375
	minimum = 0.003 (at node 24)
	maximum = 0.018 (at node 57)
Accepted packet rate average = 0.0095625
	minimum = 0.002 (at node 39)
	maximum = 0.017 (at node 15)
Injected flit rate average = 0.0099375
	minimum = 0.003 (at node 24)
	maximum = 0.018 (at node 57)
Accepted flit rate average= 0.0095625
	minimum = 0.002 (at node 39)
	maximum = 0.017 (at node 15)
Injected packet length average = 1
Accepted packet length average = 1
Total in-flight flits = 24 (0 measured)
latency change    = 1
throughput change = 1
Class 0:
Packet latency average = 33.7522
	minimum = 7
	maximum = 83
Network latency average = 33.7522
	minimum = 7
	maximum = 83
Slowest packet = 27366
Flit latency average = 33.7522
	minimum = 7
	maximum = 83
Slowest flit = 27366
Fragmentation average = 0
	minimum = 0
	maximum = 0
Injected packet rate average = 0.00989844
	minimum = 0.005 (at node 15)
	maximum = 0.015 (at node 38)
Accepted packet rate average = 0.00977344
	minimum = 0.0045 (at node 57)
	maximum = 0.015 (at node 15)
Injected flit rate average = 0.00989844
	minimum = 0.005 (at node 15)
	maximum = 0.015 (at node 38)
Accepted flit rate average= 0.00977344
	minimum = 0.0045 (at node 57)
	maximum = 0.015 (at node 15)
Injected packet length average = 1
Accepted packet length average = 1
Total in-flight flits = 16 (0 measured)
latency change    = 0.0042285
throughput change = 0.0215827
Class 0:
Packet latency average = 33.6338
	minimum = 7
	maximum = 85
Network latency average = 33.6338
	minimum = 7
	maximum = 85
Slowest packet = 27941
Flit latency average = 33.6338
	minimum = 7
	maximum = 85
Slowest flit = 27941
Fragmentation average = 0
	minimum = 0
	maximum = 0
Injected packet rate average = 0.0100156
	minimum = 0.004 (at node 11)
	maximum = 0.016 (at node 52)
Accepted packet rate average = 0.00998438
	minimum = 0.005 (at node 21)
	maximum = 0.016 (at node 38)
Injected flit rate average = 0.0100156
	minimum = 0.004 (at node 11)
	maximum = 0.016 (at node 52)
Accepted flit rate average= 0.00998438
	minimum = 0.005 (at node 21)
	maximum = 0.016 (at node 38)
Injected packet length average = 1
Accepted packet length average = 1
Total in-flight flits = 18 (0 measured)
latency change    = 0.00352013
throughput change = 0.0211268
Warmed up ...Time used is 3000 cycles
Class 0:
Packet latency average = 33.7313
	minimum = 7
	maximum = 81
Network latency average = 33.7313
	minimum = 7
	maximum = 81
Slowest packet = 28657
Flit latency average = 34.0617
	minimum = 7
	maximum = 81
Slowest flit = 28657
Fragmentation average = 0
	minimum = 0
	maximum = 0
Injected packet rate average = 0.00998438
	minimum = 0.004 (at node 61)
	maximum = 0.017 (at node 30)
Accepted packet rate average = 0.009875
	minimum = 0.004 (at node 47)
	maximum = 0.016 (at node 51)
Injected flit rate average = 0.00998438
	minimum = 0.004 (at node 61)
	maximum = 0.017 (at node 30)
Accepted flit rate average= 0.009875
	minimum = 0.004 (at node 47)
	maximum = 0.016 (at node 51)
Injected packet length average = 1
Accepted packet length average = 1
Total in-flight flits = 25 (25 measured)
latency change    = 0.00288953
throughput change = 0.0110759
Class 0:
Packet latency average = 34.7728
	minimum = 7
	maximum = 81
Network latency average = 34.7728
	minimum = 7
	maximum = 81
Slowest packet = 28657
Flit latency average = 34.9139
	minimum = 7
	maximum = 81
Slowest flit = 28657
Fragmentation average = 0
	minimum = 0
	maximum = 0
Injected packet rate average = 0.0105781
	minimum = 0.005 (at node 18)
	maximum = 0.015 (at node 5)
Accepted packet rate average = 0.0105234
	minimum = 0.005 (at node 18)
	maximum = 0.015 (at node 6)
Injected flit rate average = 0.0105781
	minimum = 0.005 (at node 18)
	maximum = 0.015 (at node 5)
Accepted flit rate average= 0.0105234
	minimum = 0.005 (at node 18)
	maximum = 0.015 (at node 6)
Injected packet length average = 1
Accepted packet length average = 1
Total in-flight flits = 25 (25 measured)
latency change    = 0.0299513
throughput change = 0.0616184
Class 0:
Packet latency average = 34.0816
	minimum = 7
	maximum = 81
Network latency average = 34.0816
	minimum = 7
	maximum = 81
Slowest packet = 28657
Flit latency average = 34.1808
	minimum = 7
	maximum = 81
Slowest flit = 28657
Fragmentation average = 0
	minimum = 0
	maximum = 0
Injected packet rate average = 0.0106667
	minimum = 0.00733333 (at node 14)
	maximum = 0.0146667 (at node 25)
Accepted packet rate average = 0.0106302
	minimum = 0.007 (at node 4)
	maximum = 0.0143333 (at node 11)
Injected flit rate average = 0.0106667
	minimum = 0.00733333 (at node 14)
	maximum = 0.0146667 (at node 25)
Accepted flit rate average= 0.0106302
	minimum = 0.007 (at node 4)
	maximum = 0.0143333 (at node 11)
Injected packet length average = 1
Accepted packet length average = 1
Total in-flight flits = 25 (25 measured)
latency change    = 0.0202807
throughput change = 0.0100441
Class 0:
Packet latency average = 33.6758
	minimum = 7
	maximum = 81
Network latency average = 33.6758
	minimum = 7
	maximum = 81
Slowest packet = 28657
Flit latency average = 33.7551
	minimum = 7
	maximum = 81
Slowest flit = 28657
Fragmentation average = 0
	minimum = 0
	maximum = 0
Injected packet rate average = 0.0103477
	minimum = 0.00675 (at node 31)
	maximum = 0.01425 (at node 25)
Accepted packet rate average = 0.0103359
	minimum = 0.00675 (at node 59)
	maximum = 0.01425 (at node 11)
Injected flit rate average = 0.0103477
	minimum = 0.00675 (at node 31)
	maximum = 0.01425 (at node 25)
Accepted flit rate average= 0.0103359
	minimum = 0.00675 (at node 59)
	maximum = 0.01425 (at node 11)
Injected packet length average = 1
Accepted packet length average = 1
Total in-flight flits = 21 (21 measured)
latency change    = 0.0120491
throughput change = 0.0284706
Class 0:
Packet latency average = 33.766
	minimum = 7
	maximum = 90
Network latency average = 33.766
	minimum = 7
	maximum = 90
Slowest packet = 31160
Flit latency average = 33.8294
	minimum = 7
	maximum = 90
Slowest flit = 31160
Fragmentation average = 0
	minimum = 0
	maximum = 0
Injected packet rate average = 0.0102813
	minimum = 0.0064 (at node 31)
	maximum = 0.0138 (at node 25)
Accepted packet rate average = 0.0102594
	minimum = 0.0062 (at node 59)
	maximum = 0.0138 (at node 11)
Injected flit rate average = 0.0102813
	minimum = 0.0064 (at node 31)
	maximum = 0.0138 (at node 25)
Accepted flit rate average= 0.0102594
	minimum = 0.0062 (at node 59)
	maximum = 0.0138 (at node 11)
Injected packet length average = 1
Accepted packet length average = 1
Total in-flight flits = 25 (25 measured)
latency change    = 0.00267144
throughput change = 0.00746269
Draining all recorded packets ...
Draining remaining packets ...
Time taken is 8096 cycles
Class 0:
Packet latency average = 32.2971
	minimum = 7
	maximum = 83
Network latency average = 32.2971
	minimum = 7
	maximum = 83
Slowest packet = 31706
Flit latency average = 32.2971
	minimum = 7
	maximum = 83
Slowest flit = 31706
Fragmentation average = 0
	minimum = 0
	maximum = 0
Injected packet rate average = 0.00942187
	minimum = 0.005 (at node 14)
	maximum = 0.016 (at node 39)
Accepted packet rate average = 0.00904687
	minimum = 0.005 (at node 14)
	maximum = 0.015 (at node 17)
Injected flit rate average = 0.00942187
	minimum = 0.005 (at node 14)
	maximum = 0.016 (at node 39)
Accepted flit rate average= 0.00904687
	minimum = 0.005 (at node 14)
	maximum = 0.015 (at node 17)
Injected packet length average = 1
Accepted packet length average = 1
Total in-flight flits = 24 (0 measured)
latency change    = 1
throughput change = 1
Class 0:
Packet latency average = 33.8651
	minimum = 7
	maximum = 83
Network latency average = 33.8651
	minimum = 7
	maximum = 83
Slowest packet = 31706
Flit latency average = 33.8651
	minimum = 7
	maximum = 83
Slowest flit = 31706
Fragmentation average = 0
	minimum = 0
	maximum = 0
Injected packet rate average = 0.00960156
	minimum = 0.0055 (at node 23)
	maximum = 0.015 (at node 57)
Accepted packet rate average = 0.00938281
	minimum = 0.0055 (at node 58)
	maximum = 0.0145 (at node 15)
Injected flit rate average = 0.00960156
	minimum = 0.0055 (at node 23)
	maximum = 0.015 (at node 57)
Accepted flit rate average= 0.00938281
	minimum = 0.0055 (at node 58)
	maximum = 0.0145 (at node 15)
Injected packet length average = 1
Accepted packet length average = 1
Total in-flight flits = 28 (0 measured)
latency change    = 0.0463028
throughput change = 0.0358035
Class 0:
Packet latency average = 34.2177
	minimum = 7
	maximum = 84
Network latency average = 34.2177
	minimum = 7
	maximum = 84
Slowest packet = 33125
Flit latency average = 34.2177
	minimum = 7
	maximum = 84
Slowest flit = 33125
Fragmentation average = 0
	minimum = 0
	maximum = 0
Injected packet rate average = 0.00935937
	minimum = 0.004 (at node 17)
	maximum = 0.014 (at node 23)
Accepted packet rate average = 0.00954687
	minimum = 0.004 (at node 10)
	maximum = 0.014 (at node 16)
Injected flit rate average = 0.00935937
	minimum = 0.004 (at node 17)
	maximum = 0.014 (at node 23)
Accepted flit rate average= 0.00954687
	minimum = 0.004 (at node 10)
	maximum = 0.014 (at node 16)
Injected packet length average = 1
Accepted packet length average = 1
Total in-flight flits = 16 (0 measured)
latency change    = 0.0103035
throughput change = 0.0171849
Warmed up ...Time used is 3000 cycles
Class 0:
Packet latency average = 32.3997
	minimum = 7
	maximum = 80
Network latency average = 32.3997
	minimum = 7
	maximum = 80
Slowest packet = 33591
Flit latency average = 32.7366
	minimum = 7
	maximum = 80
Slowest flit = 33591
Fragmentation average = 0
	minimum = 0
	maximum = 0
Injected packet rate average = 0.0101406
	minimum = 0.002 (at node 4)
	maximum = 0.019 (at node 23)
Accepted packet rate average = 0.00990625
	minimum = 0.003 (at node 6)
	maximum = 0.018 (at node 36)
Injected flit rate average = 0.0101406
	minimum = 0.002 (at node 4)
	maximum = 0.019 (at node 23)
Accepted flit rate average= 0.00990625
	minimum = 0.003 (at node 6)
	maximum = 0.018 (at node 36)
Injected packet length average = 1
Accepted packet length average = 1
Total in-flight flits = 31 (31 measured)
latency change    = 0.0561117
throughput change = 0.0362776
Class 0:
Packet latency average = 32.723
	minimum = 7
	maximum = 80
Network latency average = 32.723
	minimum = 7
	maximum = 80
Slowest packet = 33591
Flit latency average = 32.8864
	minimum = 7
	maximum = 80
Slowest flit = 33591
Fragmentation average = 0
	minimum = 0
	maximum = 0
Injected packet rate average = 0.00997656
	minimum = 0.005 (at node 51)
	maximum = 0.015 (at node 23)
Accepted packet rate average = 0.00996875
	minimum = 0.005 (at node 30)
	maximum = 0.0145 (at node 36)
Injected flit rate average = 0.00997656
	minimum = 0.005 (at node 51)
	maximum = 0.015 (at node 23)
Accepted flit rate average= 0.00996875
	minimum = 0.005 (at node 30)
	maximum = 0.0145 (at node 36)
Injected packet length average = 1
Accepted packet length average = 1
Total in-flight flits = 17 (17 measured)
latency change    = 0.0098811
throughput change = 0.00626959
Class 0:
Packet latency average = 33.2213
	minimum = 7
	maximum = 81
Network latency average = 33.2213
	minimum = 7
	maximum = 81
Slowest packet = 34960
Flit latency average = 33.3246
	minimum = 7
	maximum = 81
Slowest flit = 34960
Fragmentation average = 0
	minimum = 0
	maximum = 0
Injected packet rate average = 0.0101094
	minimum = 0.005 (at node 51)
	maximum = 0.014 (at node 23)
Accepted packet rate average = 0.0101094
	minimum = 0.005 (at node 30)
	maximum = 0.0136667 (at node 36)
Injected flit rate average = 0.0101094
	minimum = 0.005 (at node 51)
	maximum = 0.014 (at node 23)
Accepted flit rate average= 0.0101094
	minimum = 0.005 (at node 30)
	maximum = 0.0136667 (at node 36)
Injected packet length average = 1
Accepted packet length average = 1
Total in-flight flits = 16 (16 measured)
latency change    = 0.0149989
throughput change = 0.0139104
Class 0:
Packet latency average = 33.109
	minimum = 7
	maximum = 81
Network latency average = 33.109
	minimum = 7
	maximum = 81
Slowest packet = 34960
Flit latency average = 33.1878
	minimum = 7
	maximum = 81
Slowest flit = 34960
Fragmentation average = 0
	minimum = 0
	maximum = 0
Injected packet rate average = 0.0100586
	minimum = 0.00625 (at node 51)
	maximum = 0.01325 (at node 36)
Accepted packet rate average = 0.0100273
	minimum = 0.006 (at node 30)
	maximum = 0.01325 (at node 36)
Injected flit rate average = 0.0100586
	minimum = 0.00625 (at node 51)
	maximum = 0.01325 (at node 36)
Accepted flit rate average= 0.0100273
	minimum = 0.006 (at node 30)
	maximum = 0.01325 (at node 36)
Injected packet length average = 1
Accepted packet length average = 1
Total in-flight flits = 24 (24 measured)
latency change    = 0.00339249
throughput change = 0.00818076
Draining all recorded packets ...
Draining remaining packets ...
Time taken is 7105 cycles
Class 0:
Packet latency average = 32.4618
	minimum = 7
	maximum = 80
Network latency average = 32.4618
	minimum = 7
	maximum = 80
Slowest packet = 36330
Flit latency average = 32.4618
	minimum = 7
	maximum = 80
Slowest flit = 36330
Fragmentation average = 0
	minimum = 0
	maximum = 0
Injected packet rate average = 0.0103281
	minimum = 0.003 (at node 28)
	maximum = 0.016 (at node 0)
Accepted packet rate average = 0.0100156
	minimum = 0.003 (at node 6)
	maximum = 0.016 (at node 0)
Injected flit rate average = 0.0103281
	minimum = 0.003 (at node 28)
	maximum = 0.016 (at node 0)
Accepted flit rate average= 0.0100156
	minimum = 0.003 (at node 6)
	maximum = 0.016 (at node 0)
Injected packet length average = 1
Accepted packet length average = 1
Total in-flight flits = 20 (0 measured)
latency change    = 1
throughput change = 1
Class 0:
Packet latency average = 32.7795
	minimum = 7
	maximum = 81
Network latency average = 32.7795
	minimum = 7
	maximum = 81
Slowest packet = 37264
Flit latency average = 32.7795
	minimum = 7
	maximum = 81
Slowest flit = 37264
Fragmentation average = 0
	minimum = 0
	maximum = 0
Injected packet rate average = 0.0102109
	minimum = 0.006 (at node 15)
	maximum = 0.016 (at node 30)
Accepted packet rate average = 0.0100625
	minimum = 0.0055 (at node 57)
	maximum = 0.016 (at node 51)
Injected flit rate average = 0.0102109
	minimum = 0.006 (at node 15)
	maximum = 0.016 (at node 30)
Accepted flit rate average= 0.0100625
	minimum = 0.0055 (at node 57)
	maximum = 0.016 (at node 51)
Injected packet length average = 1
Accepted packet length average = 1
Total in-flight flits = 19 (0 measured)
latency change    = 0.00969278
throughput change = 0.00465839
Class 0:
Packet latency average = 34.0272
	minimum = 7
	maximum = 84
Network latency average = 34.0272
	minimum = 7
	maximum = 84
Slowest packet = 37418
Flit latency average = 34.0272
	minimum = 7
	maximum = 84
Slowest flit = 37418
Fragmentation average = 0
	minimum = 0
	maximum = 0
Injected packet rate average = 0.010375
	minimum = 0.003 (at node 54)
	maximum = 0.019 (at node 5)
Accepted packet rate average = 0.0103438
	minimum = 0.003 (at node 4)
	maximum = 0.019 (at node 40)
Injected flit rate average = 0.010375
	minimum = 0.003 (at node 54)
	maximum = 0.019 (at node 5)
Accepted flit rate average= 0.0103438
	minimum = 0.003 (at node 4)
	maximum = 0.019 (at node 40)
Injected packet length average = 1
Accepted packet length average = 1
Total in-flight flits = 21 (0 measured)
latency change    = 0.0366674
throughput change = 0.0271903
Warmed up ...Time used is 3000 cycles
Class 0:
Packet latency average = 32.7414
	minimum = 7
	maximum = 87
Network latency average = 32.7414
	minimum = 7
	maximum = 87
Slowest packet = 38215
Flit latency average = 33.3806
	minimum = 7
	maximum = 87
Slowest flit = 38215
Fragmentation average = 0
	minimum = 0
	maximum = 0
Injected packet rate average = 0.00984375
	minimum = 0.005 (at node 14)
	maximum = 0.017 (at node 51)
Accepted packet rate average = 0.0098125
	minimum = 0.004 (at node 62)
	maximum = 0.017 (at node 30)
Injected flit rate average = 0.00984375
	minimum = 0.005 (at node 14)
	maximum = 0.017 (at node 51)
Accepted flit rate average= 0.0098125
	minimum = 0.004 (at node 62)
	maximum = 0.017 (at node 30)
Injected packet length average = 1
Accepted packet length average = 1
Total in-flight flits = 23 (23 measured)
latency change    = 0.0392726
throughput change = 0.0541401
Class 0:
Packet latency average = 33.5869
	minimum = 7
	maximum = 87
Network latency average = 33.5869
	minimum = 7
	maximum = 87
Slowest packet = 38215
Flit latency average = 33.8961
	minimum = 7
	maximum = 87
Slowest flit = 38215
Fragmentation average = 0
	minimum = 0
	maximum = 0
Injected packet rate average = 0.00973437
	minimum = 0.004 (at node 37)
	maximum = 0.0145 (at node 60)
Accepted packet rate average = 0.00969531
	minimum = 0.004 (at node 44)
	maximum = 0.014 (at node 39)
Injected flit rate average = 0.00973437
	minimum = 0.004 (at node 37)
	maximum = 0.0145 (at node 60)
Accepted flit rate average= 0.00969531
	minimum = 0.004 (at node 44)
	maximum = 0.014 (at node 39)
Injected packet length average = 1
Accepted packet length average = 1
Total in-flight flits = 26 (26 measured)
latency change    = 0.0251745
throughput change = 0.012087
Class 0:
Packet latency average = 33.7376
	minimum = 7
	maximum = 87
Network latency average = 33.7376
	minimum = 7
	maximum = 87
Slowest packet = 38215
Flit latency average = 33.9347
	minimum = 7
	maximum = 87
Slowest flit = 38215
Fragmentation average = 0
	minimum = 0
	maximum = 0
Injected packet rate average = 0.0100521
	minimum = 0.00466667 (at node 37)
	maximum = 0.0133333 (at node 31)
Accepted packet rate average = 0.0100521
	minimum = 0.00466667 (at node 44)
	maximum = 0.0133333 (at node 59)
Injected flit rate average = 0.0100521
	minimum = 0.00466667 (at node 37)
	maximum = 0.0133333 (at node 31)
Accepted flit rate average= 0.0100521
	minimum = 0.00466667 (at node 44)
	maximum = 0.0133333 (at node 59)
Injected packet length average = 1
Accepted packet length average = 1
Total in-flight flits = 21 (21 measured)
latency change    = 0.00446605
throughput change = 0.0354922
Class 0:
Packet latency average = 33.4316
	minimum = 7
	maximum = 87
Network latency average = 33.4316
	minimum = 7
	maximum = 87
Slowest packet = 38215
Flit latency average = 33.5799
	minimum = 7
	maximum = 87
Slowest flit = 38215
Fragmentation average = 0
	minimum = 0
	maximum = 0
Injected packet rate average = 0.0101875
	minimum = 0.00675 (at node 37)
	maximum = 0.0125 (at node 8)
Accepted packet rate average = 0.0101914
	minimum = 0.0065 (at node 55)
	maximum = 0.0125 (at node 1)
Injected flit rate average = 0.0101875
	minimum = 0.00675 (at node 37)
	maximum = 0.0125 (at node 8)
Accepted flit rate average= 0.0101914
	minimum = 0.0065 (at node 55)
	maximum = 0.0125 (at node 1)
Injected packet length average = 1
Accepted packet length average = 1
Total in-flight flits = 20 (20 measured)
latency change    = 0.00915156
throughput change = 0.0136706
Draining all recorded packets ...
Draining remaining packets ...
Time taken is 7111 cycles
Class 0:
Packet latency average = 31.9916
	minimum = 7
	maximum = 82
Network latency average = 31.9916
	minimum = 7
	maximum = 82
Slowest packet = 41004
Flit latency average = 31.9916
	minimum = 7
	maximum = 82
Slowest flit = 41004
Fragmentation average = 0
	minimum = 0
	maximum = 0
Injected packet rate average = 0.00960937
	minimum = 0.002 (at node 48)
	maximum = 0.018 (at node 40)
Accepted packet rate average = 0.00929687
	minimum = 0.002 (at node 6)
	maximum = 0.018 (at node 5)
Injected flit rate average = 0.00960937
	minimum = 0.002 (at node 48)
	maximum = 0.018 (at node 40)
Accepted flit rate average= 0.00929687
	minimum = 0.002 (at node 6)
	maximum = 0.018 (at node 5)
Injected packet length average = 1
Accepted packet length average = 1
Total in-flight flits = 20 (0 measured)
latency change    = 1
throughput change = 1
Class 0:
Packet latency average = 32.616
	minimum = 7
	maximum = 82
Network latency average = 32.616
	minimum = 7
	maximum = 82
Slowest packet = 41004
Flit latency average = 32.616
	minimum = 7
	maximum = 82
Slowest flit = 41004
Fragmentation average = 0
	minimum = 0
	maximum = 0
Injected packet rate average = 0.00994531
	minimum = 0.0055 (at node 14)
	maximum = 0.0155 (at node 6)
Accepted packet rate average = 0.00976562
	minimum = 0.005 (at node 49)
	maximum = 0.0145 (at node 48)
Injected flit rate average = 0.00994531
	minimum = 0.0055 (at node 14)
	maximum = 0.0155 (at node 6)
Accepted flit rate average= 0.00976562
	minimum = 0.005 (at node 49)
	maximum = 0.0145 (at node 48)
Injected packet length average = 1
Accepted packet length average = 1
Total in-flight flits = 23 (0 measured)
latency change    = 0.0191441
throughput change = 0.048
Class 0:
Packet latency average = 33.9789
	minimum = 7
	maximum = 79
Network latency average = 33.9789
	minimum = 7
	maximum = 79
Slowest packet = 42409
Flit latency average = 33.9789
	minimum = 7
	maximum = 79
Slowest flit = 42409
Fragmentation average = 0
	minimum = 0
	maximum = 0
Injected packet rate average = 0.0103906
	minimum = 0.004 (at node 11)
	maximum = 0.019 (at node 61)
Accepted packet rate average = 0.0103438
	minimum = 0.004 (at node 13)
	maximum = 0.021 (at node 47)
Injected flit rate average = 0.0103906
	minimum = 0.004 (at node 11)
	maximum = 0.019 (at node 61)
Accepted flit rate average= 0.0103438
	minimum = 0.004 (at node 13)
	maximum = 0.021 (at node 47)
Injected packet length average = 1
Accepted packet length average = 1
Total in-flight flits = 26 (0 measured)
latency change    = 0.0401088
throughput change = 0.0558912
Warmed up ...Time used is 3000 cycles
Class 0:
Packet latency average = 32.1757
	minimum = 7
	maximum = 80
Network latency average = 32.1757
	minimum = 7
	maximum = 80
Slowest packet = 42886
Flit latency average = 32.8142
	minimum = 7
	maximum = 80
Slowest flit = 42886
Fragmentation average = 0
	minimum = 0
	maximum = 0
Injected packet rate average = 0.00978125
	minimum = 0.004 (at node 33)
	maximum = 0.018 (at node 18)
Accepted packet rate average = 0.00992188
	minimum = 0.004 (at node 29)
	maximum = 0.018 (at node 18)
Injected flit rate average = 0.00978125
	minimum = 0.004 (at node 33)
	maximum = 0.018 (at node 18)
Accepted flit rate average= 0.00992188
	minimum = 0.004 (at node 29)
	maximum = 0.018 (at node 18)
Injected packet length average = 1
Accepted packet length average = 1
Total in-flight flits = 17 (17 measured)
latency change    = 0.0560409
throughput change = 0.0425197
Class 0:
Packet latency average = 32.8973
	minimum = 7
	maximum = 88
Network latency average = 32.8973
	minimum = 7
	maximum = 88
Slowest packet = 43815
Flit latency average = 33.1966
	minimum = 7
	maximum = 88
Slowest flit = 43815
Fragmentation average = 0
	minimum = 0
	maximum = 0
Injected packet rate average = 0.0100156
	minimum = 0.005 (at node 48)
	maximum = 0.015 (at node 30)
Accepted packet rate average = 0.0100938
	minimum = 0.005 (at node 6)
	maximum = 0.015 (at node 30)
Injected flit rate average = 0.0100156
	minimum = 0.005 (at node 48)
	maximum = 0.015 (at node 30)
Accepted flit rate average= 0.0100938
	minimum = 0.005 (at node 6)
	maximum = 0.015 (at node 30)
Injected packet length average = 1
Accepted packet length average = 1
Total in-flight flits = 16 (16 measured)
latency change    = 0.0219354
throughput change = 0.0170279
Class 0:
Packet latency average = 32.758
	minimum = 7
	maximum = 88
Network latency average = 32.758
	minimum = 7
	maximum = 88
Slowest packet = 43815
Flit latency average = 32.9623
	minimum = 7
	maximum = 88
Slowest flit = 43815
Fragmentation average = 0
	minimum = 0
	maximum = 0
Injected packet rate average = 0.00991667
	minimum = 0.006 (at node 59)
	maximum = 0.0146667 (at node 18)
Accepted packet rate average = 0.00994792
	minimum = 0.006 (at node 31)
	maximum = 0.0146667 (at node 18)
Injected flit rate average = 0.00991667
	minimum = 0.006 (at node 59)
	maximum = 0.0146667 (at node 18)
Accepted flit rate average= 0.00994792
	minimum = 0.006 (at node 31)
	maximum = 0.0146667 (at node 18)
Injected packet length average = 1
Accepted packet length average = 1
Total in-flight flits = 20 (20 measured)
latency change    = 0.00425401
throughput change = 0.0146597
Class 0:
Packet latency average = 33.2858
	minimum = 7
	maximum = 88
Network latency average = 33.2858
	minimum = 7
	maximum = 88
Slowest packet = 43815
Flit latency average = 33.4323
	minimum = 7
	maximum = 88
Slowest flit = 43815
Fragmentation average = 0
	minimum = 0
	maximum = 0
Injected packet rate average = 0.0100273
	minimum = 0.007 (at node 38)
	maximum = 0.0135 (at node 51)
Accepted packet rate average = 0.0100391
	minimum = 0.007 (at node 52)
	maximum = 0.0135 (at node 30)
Injected flit rate average = 0.0100273
	minimum = 0.007 (at node 38)
	maximum = 0.0135 (at node 51)
Accepted flit rate average= 0.0100391
	minimum = 0.007 (at node 52)
	maximum = 0.0135 (at node 30)
Injected packet length average = 1
Accepted packet length average = 1
Total in-flight flits = 23 (23 measured)
latency change    = 0.0158569
throughput change = 0.00907912
Draining all recorded packets ...
Draining remaining packets ...
Time taken is 7125 cycles
Class 0:
Packet latency average = 33.3869
	minimum = 7
	maximum = 78
Network latency average = 33.3869
	minimum = 7
	maximum = 78
Slowest packet = 45657
Flit latency average = 33.3869
	minimum = 7
	maximum = 78
Slowest flit = 45657
Fragmentation average = 0
	minimum = 0
	maximum = 0
Injected packet rate average = 0.00951562
	minimum = 0.004 (at node 26)
	maximum = 0.017 (at node 0)
Accepted packet rate average = 0.00932812
	minimum = 0.004 (at node 19)
	maximum = 0.017 (at node 0)
Injected flit rate average = 0.00951562
	minimum = 0.004 (at node 26)
	maximum = 0.017 (at node 0)
Accepted flit rate average= 0.00932812
	minimum = 0.004 (at node 19)
	maximum = 0.017 (at node 0)
Injected packet length average = 1
Accepted packet length average = 1
Total in-flight flits = 12 (0 measured)
latency change    = 1
throughput change = 1
Class 0:
Packet latency average = 32.9602
	minimum = 7
	maximum = 84
Network latency average = 32.9602
	minimum = 7
	maximum = 84
Slowest packet = 46103
Flit latency average = 32.9602
	minimum = 7
	maximum = 84
Slowest flit = 46103
Fragmentation average = 0
	minimum = 0
	maximum = 0
Injected packet rate average = 0.00957812
	minimum = 0.0045 (at node 30)
	maximum = 0.014 (at node 21)
Accepted packet rate average = 0.00942969
	minimum = 0.0045 (at node 51)
	maximum = 0.014 (at node 20)
Injected flit rate average = 0.00957812
	minimum = 0.0045 (at node 30)
	maximum = 0.014 (at node 21)
Accepted flit rate average= 0.00942969
	minimum = 0.0045 (at node 51)
	maximum = 0.014 (at node 20)
Injected packet length average = 1
Accepted packet length average = 1
Total in-flight flits = 19 (0 measured)
latency change    = 0.012946
throughput change = 0.0107705
Class 0:
Packet latency average = 33.8985
	minimum = 7
	maximum = 83
Network latency average = 33.8985
	minimum = 7
	maximum = 83
Slowest packet = 46545
Flit latency average = 33.8985
	minimum = 7
	maximum = 83
Slowest flit = 46545
Fragmentation average = 0
	minimum = 0
	maximum = 0
Injected packet rate average = 0.0103281
	minimum = 0.005 (at node 11)
	maximum = 0.017 (at node 13)
Accepted packet rate average = 0.0103125
	minimum = 0.005 (at node 25)
	maximum = 0.016 (at node 41)
Injected flit rate average = 0.0103281
	minimum = 0.005 (at node 11)
	maximum = 0.017 (at node 13)
Accepted flit rate average= 0.0103125
	minimum = 0.005 (at node 25)
	maximum = 0.016 (at node 41)
Injected packet length average = 1
Accepted packet length average = 1
Total in-flight flits = 20 (0 measured)
latency change    = 0.0276783
throughput change = 0.0856061
Warmed up ...Time used is 3000 cycles
Class 0:
Packet latency average = 34.3034
	minimum = 7
	maximum = 81
Network latency average = 34.3034
	minimum = 7
	maximum = 81
Slowest packet = 47607
Flit latency average = 34.8784
	minimum = 7
	maximum = 81
Slowest flit = 47607
Fragmentation average = 0
	minimum = 0
	maximum = 0
Injected packet rate average = 0.00982813
	minimum = 0.003 (at node 0)
	maximum = 0.02 (at node 8)
Accepted packet rate average = 0.00989063
	minimum = 0.003 (at node 0)
	maximum = 0.02 (at node 1)
Injected flit rate average = 0.00982813
	minimum = 0.003 (at node 0)
	maximum = 0.02 (at node 8)
Accepted flit rate average= 0.00989063
	minimum = 0.003 (at node 0)
	maximum = 0.02 (at node 1)
Injected packet length average = 1
Accepted packet length average = 1
Total in-flight flits = 16 (16 measured)
latency change    = 0.0118047
throughput change = 0.042654
Class 0:
Packet latency average = 33.8188
	minimum = 7
	maximum = 81
Network latency average = 33.8188
	minimum = 7
	maximum = 81
Slowest packet = 47607
Flit latency average = 34.1149
	minimum = 7
	maximum = 81
Slowest flit = 47607
Fragmentation average = 0
	minimum = 0
	maximum = 0
Injected packet rate average = 0.00982813
	minimum = 0.0045 (at node 38)
	maximum = 0.0165 (at node 8)
Accepted packet rate average = 0.00985938
	minimum = 0.005 (at node 52)
	maximum = 0.0165 (at node 1)
Injected flit rate average = 0.00982813
	minimum = 0.0045 (at node 38)
	maximum = 0.0165 (at node 8)
Accepted flit rate average= 0.00985938
	minimum = 0.005 (at node 52)
	maximum = 0.0165 (at node 1)
Injected packet length average = 1
Accepted packet length average = 1
Total in-flight flits = 16 (16 measured)
latency change    = 0.0143289
throughput change = 0.00316957
Class 0:
Packet latency average = 33.9353
	minimum = 7
	maximum = 83
Network latency average = 33.9353
	minimum = 7
	maximum = 83
Slowest packet = 48413
Flit latency average = 34.1317
	minimum = 7
	maximum = 83
Slowest flit = 48413
Fragmentation average = 0
	minimum = 0
	maximum = 0
Injected packet rate average = 0.00990104
	minimum = 0.00666667 (at node 47)
	maximum = 0.0146667 (at node 8)
Accepted packet rate average = 0.00984896
	minimum = 0.00666667 (at node 61)
	maximum = 0.0143333 (at node 1)
Injected flit rate average = 0.00990104
	minimum = 0.00666667 (at node 47)
	maximum = 0.0146667 (at node 8)
Accepted flit rate average= 0.00984896
	minimum = 0.00666667 (at node 61)
	maximum = 0.0143333 (at node 1)
Injected packet length average = 1
Accepted packet length average = 1
Total in-flight flits = 30 (30 measured)
latency change    = 0.00343265
throughput change = 0.00105764
Draining all recorded packets ...
Draining remaining packets ...
Time taken is 6144 cycles
Class 0:
Packet latency average = 32.0925
	minimum = 7
	maximum = 80
Network latency average = 32.0925
	minimum = 7
	maximum = 80
Slowest packet = 49192
Flit latency average = 32.0925
	minimum = 7
	maximum = 80
Slowest flit = 49192
Fragmentation average = 0
	minimum = 0
	maximum = 0
Injected packet rate average = 0.0100781
	minimum = 0.002 (at node 31)
	maximum = 0.019 (at node 51)
Accepted packet rate average = 0.00979688
	minimum = 0.002 (at node 59)
	maximum = 0.019 (at node 30)
Injected flit rate average = 0.0100781
	minimum = 0.002 (at node 31)
	maximum = 0.019 (at node 51)
Accepted flit rate average= 0.00979688
	minimum = 0.002 (at node 59)
	maximum = 0.019 (at node 30)
Injected packet length average = 1
Accepted packet length average = 1
Total in-flight flits = 18 (0 measured)
latency change    = 1
throughput change = 1
Class 0:
Packet latency average = 32.6074
	minimum = 7
	maximum = 84
Network latency average = 32.6074
	minimum = 7
	maximum = 84
Slowest packet = 50051
Flit latency average = 32.6074
	minimum = 7
	maximum = 84
Slowest flit = 50051
Fragmentation average = 0
	minimum = 0
	maximum = 0
Injected packet rate average = 0.0102891
	minimum = 0.0055 (at node 20)
	maximum = 0.0175 (at node 44)
Accepted packet rate average = 0.0101094
	minimum = 0.005 (at node 34)
	maximum = 0.017 (at node 37)
Injected flit rate average = 0.0102891
	minimum = 0.0055 (at node 20)
	maximum = 0.0175 (at node 44)
Accepted flit rate average= 0.0101094
	minimum = 0.005 (at node 34)
	maximum = 0.017 (at node 37)
Injected packet length average = 1
Accepted packet length average = 1
Total in-flight flits = 23 (0 measured)
latency change    = 0.0157913
throughput change = 0.0309119
Class 0:
Packet latency average = 32.9348
	minimum = 7
	maximum = 81
Network latency average = 32.9348
	minimum = 7
	maximum = 81
Slowest packet = 50962
Flit latency average = 32.9348
	minimum = 7
	maximum = 81
Slowest flit = 50962
Fragmentation average = 0
	minimum = 0
	maximum = 0
Injected packet rate average = 0.00989063
	minimum = 0.004 (at node 52)
	maximum = 0.019 (at node 12)
Accepted packet rate average = 0.00982813
	minimum = 0.004 (at node 38)
	maximum = 0.018 (at node 22)
Injected flit rate average = 0.00989063
	minimum = 0.004 (at node 52)
	maximum = 0.019 (at node 12)
Accepted flit rate average= 0.00982813
	minimum = 0.004 (at node 38)
	maximum = 0.018 (at node 22)
Injected packet length average = 1
Accepted packet length average = 1
Total in-flight flits = 27 (0 measured)
latency change    = 0.0099408
throughput change = 0.0286169
Warmed up ...Time used is 3000 cycles
Class 0:
Packet latency average = 32.2975
	minimum = 7
	maximum = 79
Network latency average = 32.2975
	minimum = 7
	maximum = 79
Slowest packet = 51621
Flit latency average = 32.7611
	minimum = 7
	maximum = 79
Slowest flit = 51621
Fragmentation average = 0
	minimum = 0
	maximum = 0
Injected packet rate average = 0.00971875
	minimum = 0.003 (at node 29)
	maximum = 0.02 (at node 24)
Accepted packet rate average = 0.009875
	minimum = 0.003 (at node 43)
	maximum = 0.02 (at node 3)
Injected flit rate average = 0.00971875
	minimum = 0.003 (at node 29)
	maximum = 0.02 (at node 24)
Accepted flit rate average= 0.009875
	minimum = 0.003 (at node 43)
	maximum = 0.02 (at node 3)
Injected packet length average = 1
Accepted packet length average = 1
Total in-flight flits = 17 (17 measured)
latency change    = 0.0197321
throughput change = 0.00474684
Class 0:
Packet latency average = 32.9933
	minimum = 7
	maximum = 80
Network latency average = 32.9933
	minimum = 7
	maximum = 80
Slowest packet = 52071
Flit latency average = 33.217
	minimum = 7
	maximum = 80
Slowest flit = 52071
Fragmentation average = 0
	minimum = 0
	maximum = 0
Injected packet rate average = 0.00952344
	minimum = 0.005 (at node 16)
	maximum = 0.015 (at node 1)
Accepted packet rate average = 0.00957812
	minimum = 0.005 (at node 2)
	maximum = 0.015 (at node 8)
Injected flit rate average = 0.00952344
	minimum = 0.005 (at node 16)
	maximum = 0.015 (at node 1)
Accepted flit rate average= 0.00957812
	minimum = 0.005 (at node 2)
	maximum = 0.015 (at node 8)
Injected packet length average = 1
Accepted packet length average = 1
Total in-flight flits = 20 (20 measured)
latency change    = 0.0210893
throughput change = 0.0309951
Class 0:
Packet latency average = 33.2081
	minimum = 7
	maximum = 91
Network latency average = 33.2081
	minimum = 7
	maximum = 91
Slowest packet = 52663
Flit latency average = 33.354
	minimum = 7
	maximum = 91
Slowest flit = 52663
Fragmentation average = 0
	minimum = 0
	maximum = 0
Injected packet rate average = 0.00952604
	minimum = 0.00533333 (at node 16)
	maximum = 0.0133333 (at node 25)
Accepted packet rate average = 0.00957812
	minimum = 0.005 (at node 2)
	maximum = 0.0133333 (at node 11)
Injected flit rate average = 0.00952604
	minimum = 0.00533333 (at node 16)
	maximum = 0.0133333 (at node 25)
Accepted flit rate average= 0.00957812
	minimum = 0.005 (at node 2)
	maximum = 0.0133333 (at node 11)
Injected packet length average = 1
Accepted packet length average = 1
Total in-flight flits = 17 (17 measured)
latency change    = 0.00646619
throughput change = 0
Draining all recorded packets ...
Draining remaining packets ...
Time taken is 6138 cycles
Class 0:
Packet latency average = 32.8424
	minimum = 7
	maximum = 77
Network latency average = 32.8424
	minimum = 7
	maximum = 77
Slowest packet = 52926
Flit latency average = 32.8424
	minimum = 7
	maximum = 77
Slowest flit = 52926
Fragmentation average = 0
	minimum = 0
	maximum = 0
Injected packet rate average = 0.00989063
	minimum = 0.004 (at node 4)
	maximum = 0.016 (at node 5)
Accepted packet rate average = 0.00951562
	minimum = 0.003 (at node 32)
	maximum = 0.016 (at node 40)
Injected flit rate average = 0.00989063
	minimum = 0.004 (at node 4)
	maximum = 0.016 (at node 5)
Accepted flit rate average= 0.00951562
	minimum = 0.003 (at node 32)
	maximum = 0.016 (at node 40)
Injected packet length average = 1
Accepted packet length average = 1
Total in-flight flits = 24 (0 measured)
latency change    = 1
throughput change = 1
Class 0:
Packet latency average = 32.7138
	minimum = 7
	maximum = 81
Network latency average = 32.7138
	minimum = 7
	maximum = 81
Slowest packet = 53642
Flit latency average = 32.7138
	minimum = 7
	maximum = 81
Slowest flit = 53642
Fragmentation average = 0
	minimum = 0
	maximum = 0
Injected packet rate average = 0.00975
	minimum = 0.005 (at node 30)
	maximum = 0.013 (at node 10)
Accepted packet rate average = 0.00955469
	minimum = 0.005 (at node 51)
	maximum = 0.013 (at node 17)
Injected flit rate average = 0.00975
	minimum = 0.005 (at node 30)
	maximum = 0.013 (at node 10)
Accepted flit rate average= 0.00955469
	minimum = 0.005 (at node 51)
	maximum = 0.013 (at node 17)
Injected packet length average = 1
Accepted packet length average = 1
Total in-flight flits = 25 (0 measured)
latency change    = 0.00392941
throughput change = 0.00408831
Class 0:
Packet latency average = 33.1792
	minimum = 7
	maximum = 80
Network latency average = 33.1792
	minimum = 7
	maximum = 80
Slowest packet = 54217
Flit latency average = 33.1792
	minimum = 7
	maximum = 80
Slowest flit = 54217
Fragmentation average = 0
	minimum = 0
	maximum = 0
Injected packet rate average = 0.0101094
	minimum = 0.004 (at node 51)
	maximum = 0.018 (at node 36)
Accepted packet rate average = 0.0102031
	minimum = 0.004 (at node 30)
	maximum = 0.018 (at node 36)
Injected flit rate average = 0.0101094
	minimum = 0.004 (at node 51)
	maximum = 0.018 (at node 36)
Accepted flit rate average= 0.0102031
	minimum = 0.004 (at node 30)
	maximum = 0.018 (at node 36)
Injected packet length average = 1
Accepted packet length average = 1
Total in-flight flits = 19 (0 measured)
latency change    = 0.0140255
throughput change = 0.0635528
Warmed up ...Time used is 3000 cycles
Class 0:
Packet latency average = 32.8287
	minimum = 7
	maximum = 87
Network latency average = 32.8287
	minimum = 7
	maximum = 87
Slowest packet = 54942
Flit latency average = 32.9762
	minimum = 7
	maximum = 87
Slowest flit = 54942
Fragmentation average = 0
	minimum = 0
	maximum = 0
Injected packet rate average = 0.0104844
	minimum = 0.004 (at node 40)
	maximum = 0.019 (at node 8)
Accepted packet rate average = 0.0105156
	minimum = 0.003 (at node 5)
	maximum = 0.018 (at node 1)
Injected flit rate average = 0.0104844
	minimum = 0.004 (at node 40)
	maximum = 0.019 (at node 8)
Accepted flit rate average= 0.0105156
	minimum = 0.003 (at node 5)
	maximum = 0.018 (at node 1)
Injected packet length average = 1
Accepted packet length average = 1
Total in-flight flits = 17 (17 measured)
latency change    = 0.0106744
throughput change = 0.0297177
Class 0:
Packet latency average = 32.7828
	minimum = 7
	maximum = 87
Network latency average = 32.7828
	minimum = 7
	maximum = 87
Slowest packet = 54942
Flit latency average = 32.8591
	minimum = 7
	maximum = 87
Slowest flit = 54942
Fragmentation average = 0
	minimum = 0
	maximum = 0
Injected packet rate average = 0.0103359
	minimum = 0.0055 (at node 56)
	maximum = 0.0145 (at node 6)
Accepted packet rate average = 0.0102578
	minimum = 0.006 (at node 7)
	maximum = 0.014 (at node 4)
Injected flit rate average = 0.0103359
	minimum = 0.0055 (at node 56)
	maximum = 0.0145 (at node 6)
Accepted flit rate average= 0.0102578
	minimum = 0.006 (at node 7)
	maximum = 0.014 (at node 4)
Injected packet length average = 1
Accepted packet length average = 1
Total in-flight flits = 29 (29 measured)
latency change    = 0.00140019
throughput change = 0.0251333
Class 0:
Packet latency average = 32.798
	minimum = 7
	maximum = 87
Network latency average = 32.798
	minimum = 7
	maximum = 87
Slowest packet = 54942
Flit latency average = 32.8482
	minimum = 7
	maximum = 87
Slowest flit = 54942
Fragmentation average = 0
	minimum = 0
	maximum = 0
Injected packet rate average = 0.0104167
	minimum = 0.00666667 (at node 59)
	maximum = 0.0146667 (at node 42)
Accepted packet rate average = 0.0103594
	minimum = 0.00633333 (at node 31)
	maximum = 0.0143333 (at node 4)
Injected flit rate average = 0.0104167
	minimum = 0.00666667 (at node 59)
	maximum = 0.0146667 (at node 42)
Accepted flit rate average= 0.0103594
	minimum = 0.00633333 (at node 31)
	maximum = 0.0143333 (at node 4)
Injected packet length average = 1
Accepted packet length average = 1
Total in-flight flits = 30 (30 measured)
latency change    = 0.000461176
throughput change = 0.00980392
Draining all recorded packets ...
Draining remaining packets ...
Time taken is 6114 cycles
Class 0:
Packet latency average = 31.3717
	minimum = 7
	maximum = 79
Network latency average = 31.3717
	minimum = 7
	maximum = 79
Slowest packet = 56939
Flit latency average = 31.3717
	minimum = 7
	maximum = 79
Slowest flit = 56939
Fragmentation average = 0
	minimum = 0
	maximum = 0
Injected packet rate average = 0.0103281
	minimum = 0.005 (at node 6)
	maximum = 0.021 (at node 63)
Accepted packet rate average = 0.0100469
	minimum = 0.004 (at node 21)
	maximum = 0.02 (at node 63)
Injected flit rate average = 0.0103281
	minimum = 0.005 (at node 6)
	maximum = 0.021 (at node 63)
Accepted flit rate average= 0.0100469
	minimum = 0.004 (at node 21)
	maximum = 0.02 (at node 63)
Injected packet length average = 1
Accepted packet length average = 1
Total in-flight flits = 18 (0 measured)
latency change    = 1
throughput change = 1
Class 0:
Packet latency average = 32.7425
	minimum = 7
	maximum = 81
Network latency average = 32.7425
	minimum = 7
	maximum = 81
Slowest packet = 57845
Flit latency average = 32.7425
	minimum = 7
	maximum = 81
Slowest flit = 57845
Fragmentation average = 0
	minimum = 0
	maximum = 0
Injected packet rate average = 0.0102734
	minimum = 0.0065 (at node 25)
	maximum = 0.0155 (at node 46)
Accepted packet rate average = 0.0101016
	minimum = 0.0065 (at node 11)
	maximum = 0.0155 (at node 53)
Injected flit rate average = 0.0102734
	minimum = 0.0065 (at node 25)
	maximum = 0.0155 (at node 46)
Accepted flit rate average= 0.0101016
	minimum = 0.0065 (at node 11)
	maximum = 0.0155 (at node 53)
Injected packet length average = 1
Accepted packet length average = 1
Total in-flight flits = 22 (0 measured)
latency change    = 0.041865
throughput change = 0.00541377
Class 0:
Packet latency average = 33.4453
	minimum = 7
	maximum = 78
Network latency average = 33.4453
	minimum = 7
	maximum = 78
Slowest packet = 58384
Flit latency average = 33.4453
	minimum = 7
	maximum = 78
Slowest flit = 58384
Fragmentation average = 0
	minimum = 0
	maximum = 0
Injected packet rate average = 0.00964062
	minimum = 0.003 (at node 18)
	maximum = 0.017 (at node 42)
Accepted packet rate average = 0.00985938
	minimum = 0.003 (at node 18)
	maximum = 0.018 (at node 21)
Injected flit rate average = 0.00964062
	minimum = 0.003 (at node 18)
	maximum = 0.017 (at node 42)
Accepted flit rate average= 0.00985938
	minimum = 0.003 (at node 18)
	maximum = 0.018 (at node 21)
Injected packet length average = 1
Accepted packet length average = 1
Total in-flight flits = 8 (0 measured)
latency change    = 0.0210154
throughput change = 0.0245642
[...]
Total in-flight flits = 20 (20 measured)
latency change    = 0.00350591
throughput change = 0.00434311
Draining all recorded packets ...
Draining remaining packets ...
Time taken is 7128 cycles
Class 0:
Packet latency average = 33.0393
	minimum = 7
	maximum = 81
Network latency average = 33.0393
	minimum = 7
	maximum = 81
Slowest packet = 409282
Flit latency average = 33.0393
	minimum = 7
	maximum = 81
Slowest flit = 409282
Fragmentation average = 0
	minimum = 0
	maximum = 0
Injected packet rate average = 0.0102656
	minimum = 0.003 (at node 62)
	maximum = 0.016 (at node 1)
Accepted packet rate average = 0.0099375
	minimum = 0.003 (at node 6)
	maximum = 0.016 (at node 8)
Injected flit rate average = 0.0102656
	minimum = 0.003 (at node 62)
	maximum = 0.016 (at node 1)
Accepted flit rate average= 0.0099375
	minimum = 0.003 (at node 6)
	maximum = 0.016 (at node 8)
Injected packet length average = 1
Accepted packet length average = 1
Total in-flight flits = 21 (0 measured)
latency change    = 1
throughput change = 1
Class 0:
Packet latency average = 33.6394
	minimum = 7
	maximum = 85
Network latency average = 33.6394
	minimum = 7
	maximum = 85
Slowest packet = 409701
Flit latency average = 33.6394
	minimum = 7
	maximum = 85
Slowest flit = 409701
Fragmentation average = 0
	minimum = 0
	maximum = 0
Injected packet rate average = 0.01
	minimum = 0.0045 (at node 25)
	maximum = 0.0165 (at node 7)
Accepted packet rate average = 0.00983594
	minimum = 0.0045 (at node 11)
	maximum = 0.016 (at node 56)
Injected flit rate average = 0.01
	minimum = 0.0045 (at node 25)
	maximum = 0.0165 (at node 7)
Accepted flit rate average= 0.00983594
	minimum = 0.0045 (at node 11)
	maximum = 0.016 (at node 56)
Injected packet length average = 1
Accepted packet length average = 1
Total in-flight flits = 21 (0 measured)
latency change    = 0.0178389
throughput change = 0.0103257
Class 0:
Packet latency average = 34.7915
	minimum = 7
	maximum = 78
Network latency average = 34.7915
	minimum = 7
	maximum = 78
Slowest packet = 410215
Flit latency average = 34.7915
	minimum = 7
	maximum = 78
Slowest flit = 410215
Fragmentation average = 0
	minimum = 0
	maximum = 0
Injected packet rate average = 0.00953125
	minimum = 0.003 (at node 36)
	maximum = 0.017 (at node 50)
Accepted packet rate average = 0.00959375
	minimum = 0.003 (at node 3)
	maximum = 0.015 (at node 14)
Injected flit rate average = 0.00953125
	minimum = 0.003 (at node 36)
	maximum = 0.017 (at node 50)
Accepted flit rate average= 0.00959375
	minimum = 0.003 (at node 3)
	maximum = 0.015 (at node 14)
Injected packet length average = 1
Accepted packet length average = 1
Total in-flight flits = 17 (0 measured)
latency change    = 0.0331154
throughput change = 0.0252443
Warmed up ...Time used is 3000 cycles
Class 0:
Packet latency average = 32.896
	minimum = 7
	maximum = 77
Network latency average = 32.896
	minimum = 7
	maximum = 77
Slowest packet = 410716
Flit latency average = 33.382
	minimum = 7
	maximum = 77
Slowest flit = 410716
Fragmentation average = 0
	minimum = 0
	maximum = 0
Injected packet rate average = 0.00975
	minimum = 0.003 (at node 31)
	maximum = 0.021 (at node 13)
Accepted packet rate average = 0.00973437
	minimum = 0.004 (at node 2)
	maximum = 0.019 (at node 41)
Injected flit rate average = 0.00975
	minimum = 0.003 (at node 31)
	maximum = 0.021 (at node 13)
Accepted flit rate average= 0.00973437
	minimum = 0.004 (at node 2)
	maximum = 0.019 (at node 41)
Injected packet length average = 1
Accepted packet length average = 1
Total in-flight flits = 18 (18 measured)
latency change    = 0.0576207
throughput change = 0.0144462
Class 0:
Packet latency average = 32.7432
	minimum = 7
	maximum = 85
Network latency average = 32.7432
	minimum = 7
	maximum = 85
Slowest packet = 411562
Flit latency average = 32.9857
	minimum = 7
	maximum = 85
Slowest flit = 411562
Fragmentation average = 0
	minimum = 0
	maximum = 0
Injected packet rate average = 0.00983594
	minimum = 0.0045 (at node 31)
	maximum = 0.016 (at node 19)
Accepted packet rate average = 0.00983594
	minimum = 0.005 (at node 5)
	maximum = 0.016 (at node 26)
Injected flit rate average = 0.00983594
	minimum = 0.0045 (at node 31)
	maximum = 0.016 (at node 19)
Accepted flit rate average= 0.00983594
	minimum = 0.005 (at node 5)
	maximum = 0.016 (at node 26)
Injected packet length average = 1
Accepted packet length average = 1
Total in-flight flits = 17 (17 measured)
latency change    = 0.00466917
throughput change = 0.0103257
Class 0:
Packet latency average = 32.8485
	minimum = 7
	maximum = 85
Network latency average = 32.8485
	minimum = 7
	maximum = 85
Slowest packet = 411562
Flit latency average = 33.0084
	minimum = 7
	maximum = 85
Slowest flit = 411562
Fragmentation average = 0
	minimum = 0
	maximum = 0
Injected packet rate average = 0.00991146
	minimum = 0.00566667 (at node 16)
	maximum = 0.0156667 (at node 19)
Accepted packet rate average = 0.00988542
	minimum = 0.00566667 (at node 2)
	maximum = 0.0156667 (at node 26)
Injected flit rate average = 0.00991146
	minimum = 0.00566667 (at node 16)
	maximum = 0.0156667 (at node 19)
Accepted flit rate average= 0.00988542
	minimum = 0.00566667 (at node 2)
	maximum = 0.0156667 (at node 26)
Injected packet length average = 1
Accepted packet length average = 1
Total in-flight flits = 22 (22 measured)
latency change    = 0.0032065
throughput change = 0.00500527
Class 0:
Packet latency average = 32.6319
	minimum = 7
	maximum = 85
Network latency average = 32.6319
	minimum = 7
	maximum = 85
Slowest packet = 411562
Flit latency average = 32.7547
	minimum = 7
	maximum = 85
Slowest flit = 411562
Fragmentation average = 0
	minimum = 0
	maximum = 0
Injected packet rate average = 0.00978906
	minimum = 0.0065 (at node 31)
	maximum = 0.0135 (at node 34)
Accepted packet rate average = 0.00977734
	minimum = 0.00625 (at node 5)
	maximum = 0.0135 (at node 20)
Injected flit rate average = 0.00978906
	minimum = 0.0065 (at node 31)
	maximum = 0.0135 (at node 34)
Accepted flit rate average= 0.00977734
	minimum = 0.00625 (at node 5)
	maximum = 0.0135 (at node 20)
Injected packet length average = 1
Accepted packet length average = 1
Total in-flight flits = 20 (20 measured)
latency change    = 0.00663601
throughput change = 0.0110534
Draining all recorded packets ...
Draining remaining packets ...
Time taken is 7127 cycles
Class 0:
Packet latency average = 32.664
	minimum = 7
	maximum = 89
Network latency average = 32.664
	minimum = 7
	maximum = 89
Slowest packet = 413662
Flit latency average = 32.664
	minimum = 7
	maximum = 89
Slowest flit = 413662
Fragmentation average = 0
	minimum = 0
	maximum = 0
Injected packet rate average = 0.0101563
	minimum = 0.003 (at node 9)
	maximum = 0.015 (at node 19)
Accepted packet rate average = 0.0098125
	minimum = 0.003 (at node 9)
	maximum = 0.015 (at node 21)
Injected flit rate average = 0.0101563
	minimum = 0.003 (at node 9)
	maximum = 0.015 (at node 19)
Accepted flit rate average= 0.0098125
	minimum = 0.003 (at node 9)
	maximum = 0.015 (at node 21)
Injected packet length average = 1
Accepted packet length average = 1
Total in-flight flits = 22 (0 measured)
latency change    = 1
throughput change = 1
Class 0:
Packet latency average = 33.7546
	minimum = 7
	maximum = 89
Network latency average = 33.7546
	minimum = 7
	maximum = 89
Slowest packet = 413662
Flit latency average = 33.7546
	minimum = 7
	maximum = 89
Slowest flit = 413662
Fragmentation average = 0
	minimum = 0
	maximum = 0
Injected packet rate average = 0.00982031
	minimum = 0.005 (at node 63)
	maximum = 0.0145 (at node 30)
Accepted packet rate average = 0.00971094
	minimum = 0.005 (at node 63)
	maximum = 0.0145 (at node 51)
Injected flit rate average = 0.00982031
	minimum = 0.005 (at node 63)
	maximum = 0.0145 (at node 30)
Accepted flit rate average= 0.00971094
	minimum = 0.005 (at node 63)
	maximum = 0.0145 (at node 51)
Injected packet length average = 1
Accepted packet length average = 1
Total in-flight flits = 14 (0 measured)
latency change    = 0.03231
throughput change = 0.0104586
Class 0:
Packet latency average = 32.3209
	minimum = 7
	maximum = 81
Network latency average = 32.3209
	minimum = 7
	maximum = 81
Slowest packet = 414669
Flit latency average = 32.3209
	minimum = 7
	maximum = 81
Slowest flit = 414669
Fragmentation average = 0
	minimum = 0
	maximum = 0
Injected packet rate average = 0.00884375
	minimum = 0.004 (at node 4)
	maximum = 0.014 (at node 35)
Accepted packet rate average = 0.0088125
	minimum = 0.004 (at node 32)
	maximum = 0.014 (at node 28)
Injected flit rate average = 0.00884375
	minimum = 0.004 (at node 4)
	maximum = 0.014 (at node 35)
Accepted flit rate average= 0.0088125
	minimum = 0.004 (at node 32)
	maximum = 0.014 (at node 28)
Injected packet length average = 1
Accepted packet length average = 1
Total in-flight flits = 16 (0 measured)
latency change    = 0.0443584
throughput change = 0.10195
Warmed up ...Time used is 3000 cycles
Class 0:
Packet latency average = 32.942
	minimum = 7
	maximum = 77
Network latency average = 32.942
	minimum = 7
	maximum = 77
Slowest packet = 415091
Flit latency average = 33.3654
	minimum = 7
	maximum = 77
Slowest flit = 415036
Fragmentation average = 0
	minimum = 0
	maximum = 0
Injected packet rate average = 0.00957812
	minimum = 0.003 (at node 0)
	maximum = 0.016 (at node 4)
Accepted packet rate average = 0.00940625
	minimum = 0.003 (at node 0)
	maximum = 0.016 (at node 31)
Injected flit rate average = 0.00957812
	minimum = 0.003 (at node 0)
	maximum = 0.016 (at node 4)
Accepted flit rate average= 0.00940625
	minimum = 0.003 (at node 0)
	maximum = 0.016 (at node 31)
Injected packet length average = 1
Accepted packet length average = 1
Total in-flight flits = 27 (27 measured)
latency change    = 0.0188531
throughput change = 0.0631229
Class 0:
Packet latency average = 33.6564
	minimum = 7
	maximum = 82
Network latency average = 33.6564
	minimum = 7
	maximum = 82
Slowest packet = 416201
Flit latency average = 33.8413
	minimum = 7
	maximum = 82
Slowest flit = 416201
Fragmentation average = 0
	minimum = 0
	maximum = 0
Injected packet rate average = 0.0103672
	minimum = 0.0055 (at node 28)
	maximum = 0.0165 (at node 4)
Accepted packet rate average = 0.0102891
	minimum = 0.005 (at node 35)
	maximum = 0.0165 (at node 6)
Injected flit rate average = 0.0103672
	minimum = 0.0055 (at node 28)
	maximum = 0.0165 (at node 4)
Accepted flit rate average= 0.0102891
	minimum = 0.005 (at node 35)
	maximum = 0.0165 (at node 6)
Injected packet length average = 1
Accepted packet length average = 1
Total in-flight flits = 26 (26 measured)
latency change    = 0.0212274
throughput change = 0.0858011
Class 0:
Packet latency average = 33.4923
	minimum = 7
	maximum = 85
Network latency average = 33.4923
	minimum = 7
	maximum = 85
Slowest packet = 416459
Flit latency average = 33.618
	minimum = 7
	maximum = 85
Slowest flit = 416459
Fragmentation average = 0
	minimum = 0
	maximum = 0
Injected packet rate average = 0.010224
	minimum = 0.00566667 (at node 28)
	maximum = 0.0153333 (at node 4)
Accepted packet rate average = 0.0101979
	minimum = 0.00533333 (at node 51)
	maximum = 0.0153333 (at node 32)
Injected flit rate average = 0.010224
	minimum = 0.00566667 (at node 28)
	maximum = 0.0153333 (at node 4)
Accepted flit rate average= 0.0101979
	minimum = 0.00533333 (at node 51)
	maximum = 0.0153333 (at node 32)
Injected packet length average = 1
Accepted packet length average = 1
Total in-flight flits = 21 (21 measured)
latency change    = 0.0049009
throughput change = 0.00893769
Class 0:
Packet latency average = 33.4184
	minimum = 7
	maximum = 85
Network latency average = 33.4184
	minimum = 7
	maximum = 85
Slowest packet = 416459
Flit latency average = 33.513
	minimum = 7
	maximum = 85
Slowest flit = 416459
Fragmentation average = 0
	minimum = 0
	maximum = 0
Injected packet rate average = 0.0102383
	minimum = 0.006 (at node 30)
	maximum = 0.01425 (at node 53)
Accepted packet rate average = 0.0102109
	minimum = 0.006 (at node 51)
	maximum = 0.01425 (at node 46)
Injected flit rate average = 0.0102383
	minimum = 0.006 (at node 30)
	maximum = 0.01425 (at node 53)
Accepted flit rate average= 0.0102109
	minimum = 0.006 (at node 51)
	maximum = 0.01425 (at node 46)
Injected packet length average = 1
Accepted packet length average = 1
Total in-flight flits = 23 (23 measured)
latency change    = 0.00221068
throughput change = 0.00127518
Class 0:
Packet latency average = 33.5936
	minimum = 7
	maximum = 88
Network latency average = 33.5936
	minimum = 7
	maximum = 88
Slowest packet = 417876
Flit latency average = 33.6673
	minimum = 7
	maximum = 88
Slowest flit = 417876
Fragmentation average = 0
	minimum = 0
	maximum = 0
Injected packet rate average = 0.0103938
	minimum = 0.007 (at node 30)
	maximum = 0.0144 (at node 53)
Accepted packet rate average = 0.0103781
	minimum = 0.007 (at node 51)
	maximum = 0.0142 (at node 46)
Injected flit rate average = 0.0103938
	minimum = 0.007 (at node 30)
	maximum = 0.0144 (at node 53)
Accepted flit rate average= 0.0103781
	minimum = 0.007 (at node 51)
	maximum = 0.0142 (at node 46)
Injected packet length average = 1
Accepted packet length average = 1
Total in-flight flits = 21 (21 measured)
latency change    = 0.00521668
throughput change = 0.0161096
Draining all recorded packets ...
Draining remaining packets ...
Time taken is 8114 cycles
Class 0:
Packet latency average = 32.5783
	minimum = 7
	maximum = 79
Network latency average = 32.5783
	minimum = 7
	maximum = 79
Slowest packet = 418972
Flit latency average = 32.5783
	minimum = 7
	maximum = 79
Slowest flit = 418972
Fragmentation average = 0
	minimum = 0
	maximum = 0
Injected packet rate average = 0.0102188
	minimum = 0.004 (at node 2)
	maximum = 0.019 (at node 20)
Accepted packet rate average = 0.00978125
	minimum = 0.004 (at node 16)
	maximum = 0.018 (at node 34)
Injected flit rate average = 0.0102188
	minimum = 0.004 (at node 2)
	maximum = 0.019 (at node 20)
Accepted flit rate average= 0.00978125
	minimum = 0.004 (at node 16)
	maximum = 0.018 (at node 34)
Injected packet length average = 1
Accepted packet length average = 1
Total in-flight flits = 28 (0 measured)
latency change    = 1
throughput change = 1
Class 0:
Packet latency average = 33.9186
	minimum = 7
	maximum = 81
Network latency average = 33.9186
	minimum = 7
	maximum = 81
Slowest packet = 419206
Flit latency average = 33.9186
	minimum = 7
	maximum = 81
Slowest flit = 419206
Fragmentation average = 0
	minimum = 0
	maximum = 0
Injected packet rate average = 0.0104922
	minimum = 0.007 (at node 2)
	maximum = 0.0165 (at node 20)
Accepted packet rate average = 0.0102734
	minimum = 0.0065 (at node 32)
	maximum = 0.0165 (at node 34)
Injected flit rate average = 0.0104922
	minimum = 0.007 (at node 2)
	maximum = 0.0165 (at node 20)
Accepted flit rate average= 0.0102734
	minimum = 0.0065 (at node 32)
	maximum = 0.0165 (at node 34)
Injected packet length average = 1
Accepted packet length average = 1
Total in-flight flits = 28 (0 measured)
latency change    = 0.0395168
throughput change = 0.0479087
Class 0:
Packet latency average = 33.0902
	minimum = 7
	maximum = 83
Network latency average = 33.0902
	minimum = 7
	maximum = 83
Slowest packet = 420073
Flit latency average = 33.0902
	minimum = 7
	maximum = 83
Slowest flit = 420073
Fragmentation average = 0
	minimum = 0
	maximum = 0
Injected packet rate average = 0.00935937
	minimum = 0.002 (at node 47)
	maximum = 0.016 (at node 48)
Accepted packet rate average = 0.00935937
	minimum = 0.002 (at node 61)
	maximum = 0.015 (at node 37)
Injected flit rate average = 0.00935937
	minimum = 0.002 (at node 47)
	maximum = 0.016 (at node 48)
Accepted flit rate average= 0.00935937
	minimum = 0.002 (at node 61)
	maximum = 0.015 (at node 37)
Injected packet length average = 1
Accepted packet length average = 1
Total in-flight flits = 28 (0 measured)
latency change    = 0.0250371
throughput change = 0.0976628
Warmed up ...Time used is 3000 cycles
Class 0:
Packet latency average = 33.2054
	minimum = 7
	maximum = 85
Network latency average = 33.2054
	minimum = 7
	maximum = 85
Slowest packet = 420437
Flit latency average = 33.8714
	minimum = 7
	maximum = 85
Slowest flit = 420437
Fragmentation average = 0
	minimum = 0
	maximum = 0
Injected packet rate average = 0.00954687
	minimum = 0.002 (at node 37)
	maximum = 0.021 (at node 47)
Accepted packet rate average = 0.00971875
	minimum = 0.002 (at node 44)
	maximum = 0.019 (at node 61)
Injected flit rate average = 0.00954687
	minimum = 0.002 (at node 37)
	maximum = 0.021 (at node 47)
Accepted flit rate average= 0.00971875
	minimum = 0.002 (at node 44)
	maximum = 0.019 (at node 61)
Injected packet length average = 1
Accepted packet length average = 1
Total in-flight flits = 17 (17 measured)
latency change    = 0.00347043
throughput change = 0.0369775
Class 0:
Packet latency average = 32.5989
	minimum = 7
	maximum = 85
Network latency average = 32.5989
	minimum = 7
	maximum = 85
Slowest packet = 420437
Flit latency average = 32.9314
	minimum = 7
	maximum = 85
Slowest flit = 420437
Fragmentation average = 0
	minimum = 0
	maximum = 0
Injected packet rate average = 0.0100234
	minimum = 0.0055 (at node 21)
	maximum = 0.016 (at node 10)
Accepted packet rate average = 0.0101328
	minimum = 0.0065 (at node 18)
	maximum = 0.0155 (at node 10)
Injected flit rate average = 0.0100234
	minimum = 0.0055 (at node 21)
	maximum = 0.016 (at node 10)
Accepted flit rate average= 0.0101328
	minimum = 0.0065 (at node 18)
	maximum = 0.0155 (at node 10)
Injected packet length average = 1
Accepted packet length average = 1
Total in-flight flits = 14 (14 measured)
latency change    = 0.0186046
throughput change = 0.0408635
Class 0:
Packet latency average = 32.5948
	minimum = 7
	maximum = 85
Network latency average = 32.5948
	minimum = 7
	maximum = 85
Slowest packet = 420437
Flit latency average = 32.8211
	minimum = 7
	maximum = 85
Slowest flit = 420437
Fragmentation average = 0
	minimum = 0
	maximum = 0
Injected packet rate average = 0.00992188
	minimum = 0.00633333 (at node 16)
	maximum = 0.0173333 (at node 17)
Accepted packet rate average = 0.00992708
	minimum = 0.00633333 (at node 2)
	maximum = 0.017 (at node 10)
Injected flit rate average = 0.00992188
	minimum = 0.00633333 (at node 16)
	maximum = 0.0173333 (at node 17)
Accepted flit rate average= 0.00992708
	minimum = 0.00633333 (at node 2)
	maximum = 0.017 (at node 10)
Injected packet length average = 1
Accepted packet length average = 1
Total in-flight flits = 27 (27 measured)
latency change    = 0.00012625
throughput change = 0.020724
Draining all recorded packets ...
Draining remaining packets ...
Time taken is 6114 cycles
====== Overall Traffic Statistics ======
====== Traffic class 0 ======
Packet latency average = 33.4523 (100 samples)
	minimum = 7 (100 samples)
	maximum = 85.17 (100 samples)
Network latency average = 33.4523 (100 samples)
	minimum = 7 (100 samples)
	maximum = 85.17 (100 samples)
Flit latency average = 33.5615 (100 samples)
	minimum = 7 (100 samples)
	maximum = 85.3 (100 samples)
Fragmentation average = 0 (100 samples)
	minimum = 0 (100 samples)
	maximum = 0 (100 samples)
Injected packet rate average = 0.0100241 (100 samples)
	minimum = 0.006239 (100 samples)
	maximum = 0.0141462 (100 samples)
Accepted packet rate average = 0.0100269 (100 samples)
	minimum = 0.00619433 (100 samples)
	maximum = 0.014148 (100 samples)
Injected flit rate average = 0.0100241 (100 samples)
	minimum = 0.006239 (100 samples)
	maximum = 0.0141462 (100 samples)
Accepted flit rate average = 0.0100269 (100 samples)
	minimum = 0.00619433 (100 samples)
	maximum = 0.014148 (100 samples)
Injected packet size average = 1 (100 samples)
Accepted packet size average = 1 (100 samples)
Hops average = 6.25223 (100 samples)
results:0,transpose,0,0.01,7,33.4523,85.17,7,33.4523,85.17,7,33.5615,85.3,0,0,0,0.006239,0.0100241,0.0141462,0.00619433,0.0100269,0.014148,0.006239,0.0100241,0.0141462,0.00619433,0.0100269,0.014148,1,1,6.25223
Total run time 20.4503
