BEGIN Configuration File: /tmp/tmp7aeww5ge.cfg
topology = mesh;
k = 8; n = 2;
routing_function = dor;
num_vcs = 4; vc_buf_size = 4;
wait_for_tail_credit = 1;
vc_allocator = islip; sw_allocator = islip;
alloc_iters = 1;
credit_delay = 2; routing_delay = 1;
vc_alloc_delay = 1; sw_alloc_delay = 1;
input_speedup = 2; output_speedup = 1; internal_speedup = 1.0;
traffic = uniform;
packet_size = 1; sim_type = latency;
injection_rate = 0.05;
warmup_periods = 3; sample_period = 1000; sim_count = 100;
seed = 0;

END Configuration File: /tmp/tmp7aeww5ge.cfg
Class 0:
Packet latency average = 32.781
	minimum = 7
	maximum = 80
Network latency average = 32.781
	minimum = 7
	maximum = 80
Slowest packet = 1187
Flit latency average = 32.781
	minimum = 7
	maximum = 80
Slowest flit = 1187
Fragmentation average = 0
	minimum = 0
	maximum = 0
Injected packet rate average = 0.0495312
	minimum = 0.034 (at node 9)
	maximum = 0.064 (at node 41)
Accepted packet rate average = 0.0479531
	minimum = 0.037 (at node 46)
	maximum = 0.061 (at node 39)
Injected flit rate average = 0.0495312
	minimum = 0.034 (at node 9)
	maximum = 0.064 (at node 41)
Accepted flit rate average= 0.0479531
	minimum = 0.037 (at node 46)
	maximum = 0.061 (at node 39)
Injected packet length average = 1
Accepted packet length average = 1
Total in-flight flits = 101 (0 measured)
latency change    = 1
throughput change = 1
Class 0:
Packet latency average = 33.1044
	minimum = 7
	maximum = 80
Network latency average = 33.1044
	minimum = 7
	maximum = 80
Slowest packet = 1187
Flit latency average = 33.1044
	minimum = 7
	maximum = 80
Slowest flit = 1187
Fragmentation average = 0
	minimum = 0
	maximum = 0
Injected packet rate average = 0.0495469
	minimum = 0.04 (at node 9)
	maximum = 0.0595 (at node 37)
Accepted packet rate average = 0.0488125
	minimum = 0.0395 (at node 10)
	maximum = 0.06 (at node 34)
Injected flit rate average = 0.0495469
	minimum = 0.04 (at node 9)
	maximum = 0.0595 (at node 37)
Accepted flit rate average= 0.0488125
	minimum = 0.0395 (at node 10)
	maximum = 0.06 (at node 34)
Injected packet length average = 1
Accepted packet length average = 1
Total in-flight flits = 94 (0 measured)
latency change    = 0.00976661
throughput change = 0.0176056
Class 0:
Packet latency average = 33.5886
	minimum = 7
	maximum = 78
Network latency average = 33.5886
	minimum = 7
	maximum = 78
Slowest packet = 6443
Flit latency average = 33.5886
	minimum = 7
	maximum = 78
Slowest flit = 6443
Fragmentation average = 0
	minimum = 0
	maximum = 0
Injected packet rate average = 0.05
	minimum = 0.035 (at node 14)
	maximum = 0.07 (at node 47)
Accepted packet rate average = 0.0496406
	minimum = 0.034 (at node 22)
	maximum = 0.068 (at node 59)
Injected flit rate average = 0.05
	minimum = 0.035 (at node 14)
	maximum = 0.07 (at node 47)
Accepted flit rate average= 0.0496406
	minimum = 0.034 (at node 22)
	maximum = 0.068 (at node 59)
Injected packet length average = 1
Accepted packet length average = 1
Total in-flight flits = 117 (0 measured)
latency change    = 0.0144172
throughput change = 0.0166824
Warmed up ...Time used is 3000 cycles
Class 0:
Packet latency average = 33.2862
	minimum = 7
	maximum = 78
Network latency average = 33.2862
	minimum = 7
	maximum = 78
Slowest packet = 9942
Flit latency average = 33.4484
	minimum = 7
	maximum = 78
Slowest flit = 9942
Fragmentation average = 0
	minimum = 0
	maximum = 0
Injected packet rate average = 0.05125
	minimum = 0.035 (at node 52)
	maximum = 0.066 (at node 34)
Accepted packet rate average = 0.0512969
	minimum = 0.035 (at node 36)
	maximum = 0.067 (at node 39)
Injected flit rate average = 0.05125
	minimum = 0.035 (at node 52)
	maximum = 0.066 (at node 34)
Accepted flit rate average= 0.0512969
	minimum = 0.035 (at node 36)
	maximum = 0.067 (at node 39)
Injected packet length average = 1
Accepted packet length average = 1
Total in-flight flits = 114 (114 measured)
latency change    = 0.00908606
throughput change = 0.0322875
Class 0:
Packet latency average = 33.3313
	minimum = 7
	maximum = 78
Network latency average = 33.3312
	minimum = 7
	maximum = 78
Slowest packet = 9942
Flit latency average = 33.4125
	minimum = 7
	maximum = 78
Slowest flit = 9942
Fragmentation average = 0
	minimum = 0
	maximum = 0
Injected packet rate average = 0.0505469
	minimum = 0.038 (at node 52)
	maximum = 0.0635 (at node 43)
Accepted packet rate average = 0.0506641
	minimum = 0.0415 (at node 36)
	maximum = 0.0655 (at node 10)
Injected flit rate average = 0.0505469
	minimum = 0.038 (at node 52)
	maximum = 0.0635 (at node 43)
Accepted flit rate average= 0.0506641
	minimum = 0.0415 (at node 36)
	maximum = 0.0655 (at node 10)
Injected packet length average = 1
Accepted packet length average = 1
Total in-flight flits = 102 (102 measured)
latency change    = 0.00135544
throughput change = 0.0124904
Class 0:
Packet latency average = 33.2646
	minimum = 7
	maximum = 78
Network latency average = 33.2644
	minimum = 7
	maximum = 78
Slowest packet = 9942
Flit latency average = 33.3196
	minimum = 7
	maximum = 78
Slowest flit = 9942
Fragmentation average = 0
	minimum = 0
	maximum = 0
Injected packet rate average = 0.0505
	minimum = 0.039 (at node 53)
	maximum = 0.057 (at node 20)
Accepted packet rate average = 0.0505365
	minimum = 0.0426667 (at node 16)
	maximum = 0.0586667 (at node 10)
Injected flit rate average = 0.0505
	minimum = 0.039 (at node 53)
	maximum = 0.057 (at node 20)
Accepted flit rate average= 0.0505365
	minimum = 0.0426667 (at node 16)
	maximum = 0.0586667 (at node 10)
Injected packet length average = 1
Accepted packet length average = 1
Total in-flight flits = 110 (110 measured)
latency change    = 0.0020079
throughput change = 0.00252499
Draining all recorded packets ...
Draining remaining packets ...
Time taken is 6137 cycles
Class 0:
Packet latency average = 32.9794
	minimum = 7
	maximum = 78
Network latency average = 32.9794
	minimum = 7
	maximum = 78
Slowest packet = 21524
Flit latency average = 32.9794
	minimum = 7
	maximum = 78
Slowest flit = 21524
Fragmentation average = 0
	minimum = 0
	maximum = 0
Injected packet rate average = 0.0485781
	minimum = 0.03 (at node 47)
	maximum = 0.065 (at node 7)
Accepted packet rate average = 0.0469219
	minimum = 0.033 (at node 48)
	maximum = 0.062 (at node 8)
Injected flit rate average = 0.0485781
	minimum = 0.03 (at node 47)
	maximum = 0.065 (at node 7)
Accepted flit rate average= 0.0469219
	minimum = 0.033 (at node 48)
	maximum = 0.062 (at node 8)
Injected packet length average = 1
Accepted packet length average = 1
Total in-flight flits = 106 (0 measured)
latency change    = 1
throughput change = 1
Class 0:
Packet latency average = 33.23
	minimum = 7
	maximum = 78
Network latency average = 33.23
	minimum = 7
	maximum = 78
Slowest packet = 21524
Flit latency average = 33.23
	minimum = 7
	maximum = 78
Slowest flit = 21524
Fragmentation average = 0
	minimum = 0
	maximum = 0
Injected packet rate average = 0.0492969
	minimum = 0.037 (at node 50)
	maximum = 0.0575 (at node 30)
Accepted packet rate average = 0.0484766
	minimum = 0.0385 (at node 43)
	maximum = 0.058 (at node 25)
Injected flit rate average = 0.0492969
	minimum = 0.037 (at node 50)
	maximum = 0.0575 (at node 30)
Accepted flit rate average= 0.0484766
	minimum = 0.0385 (at node 43)
	maximum = 0.058 (at node 25)
Injected packet length average = 1
Accepted packet length average = 1
Total in-flight flits = 105 (0 measured)
latency change    = 0.00754204
throughput change = 0.0320709
Class 0:
Packet latency average = 33.4119
	minimum = 7
	maximum = 79
Network latency average = 33.4119
	minimum = 7
	maximum = 79
Slowest packet = 26231
Flit latency average = 33.4119
	minimum = 7
	maximum = 79
Slowest flit = 26231
Fragmentation average = 0
	minimum = 0
	maximum = 0
Injected packet rate average = 0.0500937
	minimum = 0.036 (at node 10)
	maximum = 0.072 (at node 34)
Accepted packet rate average = 0.0502187
	minimum = 0.034 (at node 38)
	maximum = 0.068 (at node 53)
Injected flit rate average = 0.0500937
	minimum = 0.036 (at node 10)
	maximum = 0.072 (at node 34)
Accepted flit rate average= 0.0502187
	minimum = 0.034 (at node 38)
	maximum = 0.068 (at node 53)
Injected packet length average = 1
Accepted packet length average = 1
Total in-flight flits = 97 (0 measured)
latency change    = 0.00544631
throughput change = 0.034692
Warmed up ...Time used is 3000 cycles
Class 0:
Packet latency average = 32.9216
	minimum = 7
	maximum = 77
Network latency average = 32.9216
	minimum = 7
	maximum = 77
Slowest packet = 29940
Flit latency average = 33.1576
	minimum = 7
	maximum = 77
Slowest flit = 29940
Fragmentation average = 0
	minimum = 0
	maximum = 0
Injected packet rate average = 0.0497344
	minimum = 0.035 (at node 18)
	maximum = 0.065 (at node 4)
Accepted packet rate average = 0.0497656
	minimum = 0.028 (at node 48)
	maximum = 0.07 (at node 20)
Injected flit rate average = 0.0497344
	minimum = 0.035 (at node 18)
	maximum = 0.065 (at node 4)
Accepted flit rate average= 0.0497656
	minimum = 0.028 (at node 48)
	maximum = 0.07 (at node 20)
Injected packet length average = 1
Accepted packet length average = 1
Total in-flight flits = 95 (95 measured)
latency change    = 0.0148934
throughput change = 0.00910518
Class 0:
Packet latency average = 33.0085
	minimum = 7
	maximum = 77
Network latency average = 33.0085
	minimum = 7
	maximum = 77
Slowest packet = 29940
Flit latency average = 33.1243
	minimum = 7
	maximum = 77
Slowest flit = 29940
Fragmentation average = 0
	minimum = 0
	maximum = 0
Injected packet rate average = 0.0502812
	minimum = 0.042 (at node 27)
	maximum = 0.0625 (at node 44)
Accepted packet rate average = 0.0501562
	minimum = 0.0365 (at node 23)
	maximum = 0.061 (at node 27)
Injected flit rate average = 0.0502812
	minimum = 0.042 (at node 27)
	maximum = 0.0625 (at node 44)
Accepted flit rate average= 0.0501562
	minimum = 0.0365 (at node 23)
	maximum = 0.061 (at node 27)
Injected packet length average = 1
Accepted packet length average = 1
Total in-flight flits = 113 (113 measured)
latency change    = 0.0026329
throughput change = 0.00778816
Class 0:
Packet latency average = 33.1421
	minimum = 7
	maximum = 80
Network latency average = 33.1421
	minimum = 7
	maximum = 80
Slowest packet = 36141
Flit latency average = 33.2174
	minimum = 7
	maximum = 80
Slowest flit = 36141
Fragmentation average = 0
	minimum = 0
	maximum = 0
Injected packet rate average = 0.0504271
	minimum = 0.041 (at node 60)
	maximum = 0.058 (at node 44)
Accepted packet rate average = 0.0504687
	minimum = 0.0406667 (at node 40)
	maximum = 0.0583333 (at node 57)
Injected flit rate average = 0.0504271
	minimum = 0.041 (at node 60)
	maximum = 0.058 (at node 44)
Accepted flit rate average= 0.0504687
	minimum = 0.0406667 (at node 40)
	maximum = 0.0583333 (at node 57)
Injected packet length average = 1
Accepted packet length average = 1
Total in-flight flits = 89 (89 measured)
latency change    = 0.00402939
throughput change = 0.00619195
Draining all recorded packets ...
Draining remaining packets ...
Time taken is 6126 cycles
Class 0:
Packet latency average = 33.3496
	minimum = 7
	maximum = 77
Network latency average = 33.3496
	minimum = 7
	maximum = 77
Slowest packet = 41222
Flit latency average = 33.3496
	minimum = 7
	maximum = 77
Slowest flit = 41222
Fragmentation average = 0
	minimum = 0
	maximum = 0
Injected packet rate average = 0.0503906
	minimum = 0.037 (at node 5)
	maximum = 0.066 (at node 15)
Accepted packet rate average = 0.0488125
	minimum = 0.035 (at node 28)
	maximum = 0.064 (at node 53)
Injected flit rate average = 0.0503906
	minimum = 0.037 (at node 5)
	maximum = 0.066 (at node 15)
Accepted flit rate average= 0.0488125
	minimum = 0.035 (at node 28)
	maximum = 0.064 (at node 53)
Injected packet length average = 1
Accepted packet length average = 1
Total in-flight flits = 101 (0 measured)
latency change    = 1
throughput change = 1
Class 0:
Packet latency average = 33.4368
	minimum = 7
	maximum = 77
Network latency average = 33.4368
	minimum = 7
	maximum = 77
Slowest packet = 41222
Flit latency average = 33.4368
	minimum = 7
	maximum = 77
Slowest flit = 41222
Fragmentation average = 0
	minimum = 0
	maximum = 0
Injected packet rate average = 0.0498906
	minimum = 0.04 (at node 24)
	maximum = 0.062 (at node 39)
Accepted packet rate average = 0.0491484
	minimum = 0.0385 (at node 62)
	maximum = 0.0575 (at node 12)
Injected flit rate average = 0.0498906
	minimum = 0.04 (at node 24)
	maximum = 0.062 (at node 39)
Accepted flit rate average= 0.0491484
	minimum = 0.0385 (at node 62)
	maximum = 0.0575 (at node 12)
Injected packet length average = 1
Accepted packet length average = 1
Total in-flight flits = 95 (0 measured)
latency change    = 0.00260978
throughput change = 0.00683516
Class 0:
Packet latency average = 33.5606
	minimum = 7
	maximum = 77
Network latency average = 33.5606
	minimum = 7
	maximum = 77
Slowest packet = 47686
Flit latency average = 33.5606
	minimum = 7
	maximum = 77
Slowest flit = 47686
Fragmentation average = 0
	minimum = 0
	maximum = 0
Injected packet rate average = 0.0493906
	minimum = 0.033 (at node 19)
	maximum = 0.067 (at node 55)
Accepted packet rate average = 0.0493906
	minimum = 0.034 (at node 42)
	maximum = 0.061 (at node 2)
Injected flit rate average = 0.0493906
	minimum = 0.033 (at node 19)
	maximum = 0.067 (at node 55)
Accepted flit rate average= 0.0493906
	minimum = 0.034 (at node 42)
	maximum = 0.061 (at node 2)
Injected packet length average = 1
Accepted packet length average = 1
Total in-flight flits = 95 (0 measured)
latency change    = 0.00368789
throughput change = 0.00490351
Warmed up ...Time used is 3000 cycles
Class 0:
Packet latency average = 33.4793
	minimum = 7
	maximum = 77
Network latency average = 33.4793
	minimum = 7
	maximum = 77
Slowest packet = 49131
Flit latency average = 33.6134
	minimum = 7
	maximum = 77
Slowest flit = 49131
Fragmentation average = 0
	minimum = 0
	maximum = 0
Injected packet rate average = 0.0504531
	minimum = 0.04 (at node 17)
	maximum = 0.062 (at node 12)
Accepted packet rate average = 0.0504844
	minimum = 0.037 (at node 59)
	maximum = 0.063 (at node 1)
Injected flit rate average = 0.0504531
	minimum = 0.04 (at node 17)
	maximum = 0.062 (at node 12)
Accepted flit rate average= 0.0504844
	minimum = 0.037 (at node 59)
	maximum = 0.063 (at node 1)
Injected packet length average = 1
Accepted packet length average = 1
Total in-flight flits = 93 (93 measured)
latency change    = 0.00242864
throughput change = 0.0216651
Class 0:
Packet latency average = 33.4126
	minimum = 7
	maximum = 81
Network latency average = 33.4126
	minimum = 7
	maximum = 81
Slowest packet = 51966
Flit latency average = 33.4814
	minimum = 7
	maximum = 81
Slowest flit = 51966
Fragmentation average = 0
	minimum = 0
	maximum = 0
Injected packet rate average = 0.0499062
	minimum = 0.041 (at node 45)
	maximum = 0.0605 (at node 6)
Accepted packet rate average = 0.0498984
	minimum = 0.04 (at node 0)
	maximum = 0.062 (at node 58)
Injected flit rate average = 0.0499062
	minimum = 0.041 (at node 45)
	maximum = 0.0605 (at node 6)
Accepted flit rate average= 0.0498984
	minimum = 0.04 (at node 0)
	maximum = 0.062 (at node 58)
Injected packet length average = 1
Accepted packet length average = 1
Total in-flight flits = 96 (96 measured)
latency change    = 0.00199582
throughput change = 0.0117426
Class 0:
Packet latency average = 33.3881
	minimum = 7
	maximum = 81
Network latency average = 33.3881
	minimum = 7
	maximum = 81
Slowest packet = 51966
Flit latency average = 33.4342
	minimum = 7
	maximum = 81
Slowest flit = 51966
Fragmentation average = 0
	minimum = 0
	maximum = 0
Injected packet rate average = 0.0500781
	minimum = 0.043 (at node 19)
	maximum = 0.06 (at node 46)
Accepted packet rate average = 0.0499896
	minimum = 0.042 (at node 0)
	maximum = 0.059 (at node 49)
Injected flit rate average = 0.0500781
	minimum = 0.043 (at node 19)
	maximum = 0.06 (at node 46)
Accepted flit rate average= 0.0499896
	minimum = 0.042 (at node 0)
	maximum = 0.059 (at node 49)
Injected packet length average = 1
Accepted packet length average = 1
Total in-flight flits = 112 (112 measured)
latency change    = 0.000733778
throughput change = 0.0018233
Draining all recorded packets ...
Draining remaining packets ...
Time taken is 6136 cycles
Class 0:
Packet latency average = 33.2673
	minimum = 7
	maximum = 77
Network latency average = 33.2673
	minimum = 7
	maximum = 77
Slowest packet = 59640
Flit latency average = 33.2673
	minimum = 7
	maximum = 77
Slowest flit = 59640
Fragmentation average = 0
	minimum = 0
	maximum = 0
Injected packet rate average = 0.0501094
	minimum = 0.036 (at node 8)
	maximum = 0.075 (at node 60)
Accepted packet rate average = 0.0485781
	minimum = 0.033 (at node 9)
	maximum = 0.07 (at node 39)
Injected flit rate average = 0.0501094
	minimum = 0.036 (at node 8)
	maximum = 0.075 (at node 60)
Accepted flit rate average= 0.0485781
	minimum = 0.033 (at node 9)
	maximum = 0.07 (at node 39)
Injected packet length average = 1
Accepted packet length average = 1
Total in-flight flits = 98 (0 measured)
latency change    = 1
throughput change = 1
Class 0:
Packet latency average = 33.4346
	minimum = 7
	maximum = 77
Network latency average = 33.4346
	minimum = 7
	maximum = 77
Slowest packet = 59640
Flit latency average = 33.4346
	minimum = 7
	maximum = 77
Slowest flit = 59640
Fragmentation average = 0
	minimum = 0
	maximum = 0
Injected packet rate average = 0.0498672
	minimum = 0.0405 (at node 33)
	maximum = 0.067 (at node 38)
Accepted packet rate average = 0.0490391
	minimum = 0.0385 (at node 36)
	maximum = 0.062 (at node 18)
Injected flit rate average = 0.0498672
	minimum = 0.0405 (at node 33)
	maximum = 0.067 (at node 38)
Accepted flit rate average= 0.0490391
	minimum = 0.0385 (at node 36)
	maximum = 0.062 (at node 18)
Injected packet length average = 1
Accepted packet length average = 1
Total in-flight flits = 106 (0 measured)
latency change    = 0.00500422
throughput change = 0.00939939
Class 0:
Packet latency average = 33.7513
	minimum = 7
	maximum = 78
Network latency average = 33.7513
	minimum = 7
	maximum = 78
Slowest packet = 65779
Flit latency average = 33.7513
	minimum = 7
	maximum = 78
Slowest flit = 65779
Fragmentation average = 0
	minimum = 0
	maximum = 0
Injected packet rate average = 0.0515469
	minimum = 0.039 (at node 35)
	maximum = 0.072 (at node 44)
Accepted packet rate average = 0.0514531
	minimum = 0.035 (at node 62)
	maximum = 0.068 (at node 61)
Injected flit rate average = 0.0515469
	minimum = 0.039 (at node 35)
	maximum = 0.072 (at node 44)
Accepted flit rate average= 0.0514531
	minimum = 0.035 (at node 62)
	maximum = 0.068 (at node 61)
Injected packet length average = 1
Accepted packet length average = 1
Total in-flight flits = 112 (0 measured)
latency change    = 0.00938299
throughput change = 0.0469177
Warmed up ...Time used is 3000 cycles
Class 0:
Packet latency average = 33.2023
	minimum = 7
	maximum = 78
Network latency average = 33.202
	minimum = 7
	maximum = 78
Slowest packet = 68644
Flit latency average = 33.3861
	minimum = 7
	maximum = 78
Slowest flit = 68644
Fragmentation average = 0
	minimum = 0
	maximum = 0
Injected packet rate average = 0.0518438
	minimum = 0.036 (at node 32)
	maximum = 0.067 (at node 36)
Accepted packet rate average = 0.0517969
	minimum = 0.032 (at node 22)
	maximum = 0.067 (at node 61)
Injected flit rate average = 0.0518438
	minimum = 0.036 (at node 32)
	maximum = 0.067 (at node 36)
Accepted flit rate average= 0.0517969
	minimum = 0.032 (at node 22)
	maximum = 0.067 (at node 61)
Injected packet length average = 1
Accepted packet length average = 1
Total in-flight flits = 115 (115 measured)
latency change    = 0.0165344
throughput change = 0.0066365
Class 0:
Packet latency average = 33.3071
	minimum = 7
	maximum = 78
Network latency average = 33.3069
	minimum = 7
	maximum = 78
Slowest packet = 68644
Flit latency average = 33.3992
	minimum = 7
	maximum = 78
Slowest flit = 68644
Fragmentation average = 0
	minimum = 0
	maximum = 0
Injected packet rate average = 0.0507031
	minimum = 0.039 (at node 17)
	maximum = 0.064 (at node 36)
Accepted packet rate average = 0.0507109
	minimum = 0.039 (at node 22)
	maximum = 0.063 (at node 15)
Injected flit rate average = 0.0507031
	minimum = 0.039 (at node 17)
	maximum = 0.064 (at node 36)
Accepted flit rate average= 0.0507109
	minimum = 0.039 (at node 22)
	maximum = 0.063 (at node 15)
Injected packet length average = 1
Accepted packet length average = 1
Total in-flight flits = 111 (111 measured)
latency change    = 0.00314621
throughput change = 0.0214143
Class 0:
Packet latency average = 33.3559
	minimum = 7
	maximum = 78
Network latency average = 33.3558
	minimum = 7
	maximum = 78
Slowest packet = 68644
Flit latency average = 33.4171
	minimum = 7
	maximum = 78
Slowest flit = 68644
Fragmentation average = 0
	minimum = 0
	maximum = 0
Injected packet rate average = 0.0504167
	minimum = 0.042 (at node 28)
	maximum = 0.0603333 (at node 36)
Accepted packet rate average = 0.0503594
	minimum = 0.0383333 (at node 22)
	maximum = 0.0593333 (at node 15)
Injected flit rate average = 0.0504167
	minimum = 0.042 (at node 28)
	maximum = 0.0603333 (at node 36)
Accepted flit rate average= 0.0503594
	minimum = 0.0383333 (at node 22)
	maximum = 0.0593333 (at node 15)
Injected packet length average = 1
Accepted packet length average = 1
Total in-flight flits = 123 (123 measured)
latency change    = 0.00146191
throughput change = 0.00698107
Draining all recorded packets ...
Draining remaining packets ...
Time taken is 6127 cycles
Class 0:
Packet latency average = 33.3031
	minimum = 7
	maximum = 77
Network latency average = 33.3021
	minimum = 7
	maximum = 77
Slowest packet = 77966
Flit latency average = 33.3021
	minimum = 7
	maximum = 77
Slowest flit = 77966
Fragmentation average = 0
	minimum = 0
	maximum = 0
Injected packet rate average = 0.0490937
	minimum = 0.037 (at node 0)
	maximum = 0.068 (at node 28)
Accepted packet rate average = 0.0474844
	minimum = 0.034 (at node 58)
	maximum = 0.062 (at node 56)
Injected flit rate average = 0.0490937
	minimum = 0.037 (at node 0)
	maximum = 0.068 (at node 28)
Accepted flit rate average= 0.0474844
	minimum = 0.034 (at node 58)
	maximum = 0.062 (at node 56)
Injected packet length average = 1
Accepted packet length average = 1
Total in-flight flits = 103 (0 measured)
latency change    = 1
throughput change = 1
Class 0:
Packet latency average = 33.2964
	minimum = 7
	maximum = 77
Network latency average = 33.2959
	minimum = 7
	maximum = 77
Slowest packet = 77966
Flit latency average = 33.2959
	minimum = 7
	maximum = 77
Slowest flit = 77966
Fragmentation average = 0
	minimum = 0
	maximum = 0
Injected packet rate average = 0.0500156
	minimum = 0.0425 (at node 12)
	maximum = 0.0625 (at node 28)
Accepted packet rate average = 0.0491094
	minimum = 0.0375 (at node 58)
	maximum = 0.062 (at node 9)
Injected flit rate average = 0.0500156
	minimum = 0.0425 (at node 12)
	maximum = 0.0625 (at node 28)
Accepted flit rate average= 0.0491094
	minimum = 0.0375 (at node 58)
	maximum = 0.062 (at node 9)
Injected packet length average = 1
Accepted packet length average = 1
Total in-flight flits = 116 (0 measured)
latency change    = 0.000200842
throughput change = 0.0330894
Class 0:
Packet latency average = 33.4269
	minimum = 7
	maximum = 77
Network latency average = 33.4269
	minimum = 7
	maximum = 77
Slowest packet = 84421
Flit latency average = 33.4269
	minimum = 7
	maximum = 77
Slowest flit = 84421
Fragmentation average = 0
	minimum = 0
	maximum = 0
Injected packet rate average = 0.0506875
	minimum = 0.039 (at node 40)
	maximum = 0.066 (at node 28)
Accepted packet rate average = 0.0510938
	minimum = 0.036 (at node 23)
	maximum = 0.065 (at node 21)
Injected flit rate average = 0.0506875
	minimum = 0.039 (at node 40)
	maximum = 0.066 (at node 28)
Accepted flit rate average= 0.0510938
	minimum = 0.036 (at node 23)
	maximum = 0.065 (at node 21)
Injected packet length average = 1
Accepted packet length average = 1
Total in-flight flits = 90 (0 measured)
latency change    = 0.00390519
throughput change = 0.0388379
Warmed up ...Time used is 3000 cycles
Class 0:
Packet latency average = 33.3794
	minimum = 7
	maximum = 77
Network latency average = 33.3794
	minimum = 7
	maximum = 77
Slowest packet = 88272
Flit latency average = 33.5645
	minimum = 7
	maximum = 77
Slowest flit = 88272
Fragmentation average = 0
	minimum = 0
	maximum = 0
Injected packet rate average = 0.0486406
	minimum = 0.036 (at node 37)
	maximum = 0.068 (at node 25)
Accepted packet rate average = 0.0483594
	minimum = 0.035 (at node 32)
	maximum = 0.062 (at node 53)
Injected flit rate average = 0.0486406
	minimum = 0.036 (at node 37)
	maximum = 0.068 (at node 25)
Accepted flit rate average= 0.0483594
	minimum = 0.035 (at node 32)
	maximum = 0.062 (at node 53)
Injected packet length average = 1
Accepted packet length average = 1
Total in-flight flits = 108 (108 measured)
latency change    = 0.00142434
throughput change = 0.0565428
Class 0:
Packet latency average = 33.3734
	minimum = 7
	maximum = 78
Network latency average = 33.3734
	minimum = 7
	maximum = 78
Slowest packet = 92076
Flit latency average = 33.4648
	minimum = 7
	maximum = 78
Slowest flit = 92076
Fragmentation average = 0
	minimum = 0
	maximum = 0
Injected packet rate average = 0.0491719
	minimum = 0.0365 (at node 62)
	maximum = 0.0605 (at node 25)
Accepted packet rate average = 0.0490078
	minimum = 0.0395 (at node 33)
	maximum = 0.059 (at node 18)
Injected flit rate average = 0.0491719
	minimum = 0.0365 (at node 62)
	maximum = 0.0605 (at node 25)
Accepted flit rate average= 0.0490078
	minimum = 0.0395 (at node 33)
	maximum = 0.059 (at node 18)
Injected packet length average = 1
Accepted packet length average = 1
Total in-flight flits = 111 (111 measured)
latency change    = 0.000177519
throughput change = 0.0132313
Class 0:
Packet latency average = 33.6216
	minimum = 7
	maximum = 78
Network latency average = 33.6216
	minimum = 7
	maximum = 78
Slowest packet = 92076
Flit latency average = 33.6797
	minimum = 7
	maximum = 78
Slowest flit = 92076
Fragmentation average = 0
	minimum = 0
	maximum = 0
Injected packet rate average = 0.0494271
	minimum = 0.0406667 (at node 41)
	maximum = 0.057 (at node 17)
Accepted packet rate average = 0.0493698
	minimum = 0.0406667 (at node 52)
	maximum = 0.0606667 (at node 53)
Injected flit rate average = 0.0494271
	minimum = 0.0406667 (at node 41)
	maximum = 0.057 (at node 17)
Accepted flit rate average= 0.0493698
	minimum = 0.0406667 (at node 52)
	maximum = 0.0606667 (at node 53)
Injected packet length average = 1
Accepted packet length average = 1
Total in-flight flits = 101 (101 measured)
latency change    = 0.00738023
throughput change = 0.007332
Class 0:
Packet latency average = 33.6395
	minimum = 7
	maximum = 78
Network latency average = 33.6394
	minimum = 7
	maximum = 78
Slowest packet = 92076
Flit latency average = 33.683
	minimum = 7
	maximum = 78
Slowest flit = 92076
Fragmentation average = 0
	minimum = 0
	maximum = 0
Injected packet rate average = 0.0492734
	minimum = 0.0415 (at node 61)
	maximum = 0.05625 (at node 19)
Accepted packet rate average = 0.0492734
	minimum = 0.0425 (at node 52)
	maximum = 0.05575 (at node 53)
Injected flit rate average = 0.0492734
	minimum = 0.0415 (at node 61)
	maximum = 0.05625 (at node 19)
Accepted flit rate average= 0.0492734
	minimum = 0.0425 (at node 52)
	maximum = 0.05575 (at node 53)
Injected packet length average = 1
Accepted packet length average = 1
Total in-flight flits = 90 (90 measured)
latency change    = 0.000532521
throughput change = 0.0019555
Draining all recorded packets ...
Draining remaining packets ...
Time taken is 7110 cycles
Class 0:
Packet latency average = 33.4737
	minimum = 7
	maximum = 82
Network latency average = 33.4737
	minimum = 7
	maximum = 82
Slowest packet = 102614
Flit latency average = 33.4737
	minimum = 7
	maximum = 82
Slowest flit = 102614
Fragmentation average = 0
	minimum = 0
	maximum = 0
Injected packet rate average = 0.0504844
	minimum = 0.035 (at node 33)
	maximum = 0.068 (at node 58)
Accepted packet rate average = 0.0490469
	minimum = 0.035 (at node 0)
	maximum = 0.061 (at node 36)
Injected flit rate average = 0.0504844
	minimum = 0.035 (at node 33)
	maximum = 0.068 (at node 58)
Accepted flit rate average= 0.0490469
	minimum = 0.035 (at node 0)
	maximum = 0.061 (at node 36)
Injected packet length average = 1
Accepted packet length average = 1
Total in-flight flits = 92 (0 measured)
latency change    = 1
throughput change = 1
Class 0:
Packet latency average = 33.1259
	minimum = 7
	maximum = 82
Network latency average = 33.1259
	minimum = 7
	maximum = 82
Slowest packet = 102614
Flit latency average = 33.1259
	minimum = 7
	maximum = 82
Slowest flit = 102614
Fragmentation average = 0
	minimum = 0
	maximum = 0
Injected packet rate average = 0.0500469
	minimum = 0.0385 (at node 33)
	maximum = 0.063 (at node 58)
Accepted packet rate average = 0.0492812
	minimum = 0.0375 (at node 0)
	maximum = 0.0595 (at node 11)
Injected flit rate average = 0.0500469
	minimum = 0.0385 (at node 33)
	maximum = 0.063 (at node 58)
Accepted flit rate average= 0.0492812
	minimum = 0.0375 (at node 0)
	maximum = 0.0595 (at node 11)
Injected packet length average = 1
Accepted packet length average = 1
Total in-flight flits = 98 (0 measured)
latency change    = 0.0105007
throughput change = 0.00475587
Class 0:
Packet latency average = 33.6365
	minimum = 7
	maximum = 77
Network latency average = 33.6365
	minimum = 7
	maximum = 77
Slowest packet = 106631
Flit latency average = 33.6365
	minimum = 7
	maximum = 77
Slowest flit = 106631
Fragmentation average = 0
	minimum = 0
	maximum = 0
Injected packet rate average = 0.0486719
	minimum = 0.036 (at node 58)
	maximum = 0.064 (at node 11)
Accepted packet rate average = 0.0485781
	minimum = 0.036 (at node 9)
	maximum = 0.065 (at node 4)
Injected flit rate average = 0.0486719
	minimum = 0.036 (at node 58)
	maximum = 0.064 (at node 11)
Accepted flit rate average= 0.0485781
	minimum = 0.036 (at node 9)
	maximum = 0.065 (at node 4)
Injected packet length average = 1
Accepted packet length average = 1
Total in-flight flits = 104 (0 measured)
latency change    = 0.0151819
throughput change = 0.0144741
Warmed up ...Time used is 3000 cycles
Class 0:
Packet latency average = 32.9017
	minimum = 7
	maximum = 77
Network latency average = 32.9017
	minimum = 7
	maximum = 77
Slowest packet = 110336
Flit latency average = 33.1089
	minimum = 7
	maximum = 77
Slowest flit = 110336
Fragmentation average = 0
	minimum = 0
	maximum = 0
Injected packet rate average = 0.0479687
	minimum = 0.032 (at node 36)
	maximum = 0.066 (at node 26)
Accepted packet rate average = 0.0480469
	minimum = 0.032 (at node 22)
	maximum = 0.064 (at node 28)
Injected flit rate average = 0.0479687
	minimum = 0.032 (at node 36)
	maximum = 0.066 (at node 26)
Accepted flit rate average= 0.0480469
	minimum = 0.032 (at node 22)
	maximum = 0.064 (at node 28)
Injected packet length average = 1
Accepted packet length average = 1
Total in-flight flits = 99 (99 measured)
latency change    = 0.0223339
throughput change = 0.0110569
Class 0:
Packet latency average = 33.1518
	minimum = 7
	maximum = 77
Network latency average = 33.1517
	minimum = 7
	maximum = 77
Slowest packet = 110336
Flit latency average = 33.2488
	minimum = 7
	maximum = 77
Slowest flit = 110336
Fragmentation average = 0
	minimum = 0
	maximum = 0
Injected packet rate average = 0.0493047
	minimum = 0.037 (at node 36)
	maximum = 0.0645 (at node 26)
Accepted packet rate average = 0.0491328
	minimum = 0.038 (at node 22)
	maximum = 0.0625 (at node 1)
Injected flit rate average = 0.0493047
	minimum = 0.037 (at node 36)
	maximum = 0.0645 (at node 26)
Accepted flit rate average= 0.0491328
	minimum = 0.038 (at node 22)
	maximum = 0.0625 (at node 1)
Injected packet length average = 1
Accepted packet length average = 1
Total in-flight flits = 126 (126 measured)
latency change    = 0.00754415
throughput change = 0.0221021
Class 0:
Packet latency average = 33.2997
	minimum = 7
	maximum = 79
Network latency average = 33.2995
	minimum = 7
	maximum = 79
Slowest packet = 118301
Flit latency average = 33.3618
	minimum = 7
	maximum = 79
Slowest flit = 118301
Fragmentation average = 0
	minimum = 0
	maximum = 0
Injected packet rate average = 0.0498021
	minimum = 0.0406667 (at node 12)
	maximum = 0.0586667 (at node 26)
Accepted packet rate average = 0.0498281
	minimum = 0.042 (at node 46)
	maximum = 0.0596667 (at node 54)
Injected flit rate average = 0.0498021
	minimum = 0.0406667 (at node 12)
	maximum = 0.0586667 (at node 26)
Accepted flit rate average= 0.0498281
	minimum = 0.042 (at node 46)
	maximum = 0.0596667 (at node 54)
Injected packet length average = 1
Accepted packet length average = 1
Total in-flight flits = 99 (99 measured)
latency change    = 0.00444072
throughput change = 0.0139542
Draining all recorded packets ...
Draining remaining packets ...
Time taken is 6140 cycles
Class 0:
Packet latency average = 33.4382
	minimum = 7
	maximum = 79
Network latency average = 33.4382
	minimum = 7
	maximum = 79
Slowest packet = 120390
Flit latency average = 33.4382
	minimum = 7
	maximum = 79
Slowest flit = 120390
Fragmentation average = 0
	minimum = 0
	maximum = 0
Injected packet rate average = 0.0503594
	minimum = 0.035 (at node 35)
	maximum = 0.069 (at node 52)
Accepted packet rate average = 0.0485312
	minimum = 0.032 (at node 38)
	maximum = 0.066 (at node 5)
Injected flit rate average = 0.0503594
	minimum = 0.035 (at node 35)
	maximum = 0.069 (at node 52)
Accepted flit rate average= 0.0485312
	minimum = 0.032 (at node 38)
	maximum = 0.066 (at node 5)
Injected packet length average = 1
Accepted packet length average = 1
Total in-flight flits = 117 (0 measured)
latency change    = 1
throughput change = 1
Class 0:
Packet latency average = 33.3671
	minimum = 7
	maximum = 79
Network latency average = 33.3671
	minimum = 7
	maximum = 79
Slowest packet = 120390
Flit latency average = 33.3671
	minimum = 7
	maximum = 79
Slowest flit = 120390
Fragmentation average = 0
	minimum = 0
	maximum = 0
Injected packet rate average = 0.0498828
	minimum = 0.0345 (at node 39)
	maximum = 0.0635 (at node 3)
Accepted packet rate average = 0.0490547
	minimum = 0.041 (at node 55)
	maximum = 0.062 (at node 34)
Injected flit rate average = 0.0498828
	minimum = 0.0345 (at node 39)
	maximum = 0.0635 (at node 3)
Accepted flit rate average= 0.0490547
	minimum = 0.041 (at node 55)
	maximum = 0.062 (at node 34)
Injected packet length average = 1
Accepted packet length average = 1
Total in-flight flits = 106 (0 measured)
latency change    = 0.00213047
throughput change = 0.0106705
Class 0:
Packet latency average = 33.2786
	minimum = 7
	maximum = 78
Network latency average = 33.2786
	minimum = 7
	maximum = 78
Slowest packet = 128704
Flit latency average = 33.2786
	minimum = 7
	maximum = 78
Slowest flit = 128704
Fragmentation average = 0
	minimum = 0
	maximum = 0
Injected packet rate average = 0.049875
	minimum = 0.031 (at node 36)
	maximum = 0.073 (at node 33)
Accepted packet rate average = 0.04975
	minimum = 0.035 (at node 18)
	maximum = 0.065 (at node 3)
Injected flit rate average = 0.049875
	minimum = 0.031 (at node 36)
	maximum = 0.073 (at node 33)
Accepted flit rate average= 0.04975
	minimum = 0.035 (at node 18)
	maximum = 0.065 (at node 3)
Injected packet length average = 1
Accepted packet length average = 1
Total in-flight flits = 114 (0 measured)
latency change    = 0.00265986
throughput change = 0.0139761
Warmed up ...Time used is 3000 cycles
Class 0:
Packet latency average = 33.0418
	minimum = 7
	maximum = 77
Network latency average = 33.0418
	minimum = 7
	maximum = 77
Slowest packet = 130000
Flit latency average = 33.2276
	minimum = 7
	maximum = 77
Slowest flit = 130000
Fragmentation average = 0
	minimum = 0
	maximum = 0
Injected packet rate average = 0.0511719
	minimum = 0.033 (at node 62)
	maximum = 0.072 (at node 49)
Accepted packet rate average = 0.0514844
	minimum = 0.034 (at node 18)
	maximum = 0.071 (at node 25)
Injected flit rate average = 0.0511719
	minimum = 0.033 (at node 62)
	maximum = 0.072 (at node 49)
Accepted flit rate average= 0.0514844
	minimum = 0.034 (at node 18)
	maximum = 0.071 (at node 25)
Injected packet length average = 1
Accepted packet length average = 1
Total in-flight flits = 94 (94 measured)
latency change    = 0.00716576
throughput change = 0.0336874
Class 0:
Packet latency average = 33.1724
	minimum = 7
	maximum = 78
Network latency average = 33.1724
	minimum = 7
	maximum = 78
Slowest packet = 135182
Flit latency average = 33.2643
	minimum = 7
	maximum = 78
Slowest flit = 135182
Fragmentation average = 0
	minimum = 0
	maximum = 0
Injected packet rate average = 0.0506953
	minimum = 0.041 (at node 29)
	maximum = 0.0655 (at node 49)
Accepted packet rate average = 0.05075
	minimum = 0.037 (at node 60)
	maximum = 0.0625 (at node 25)
Injected flit rate average = 0.0506953
	minimum = 0.041 (at node 29)
	maximum = 0.0655 (at node 49)
Accepted flit rate average= 0.05075
	minimum = 0.037 (at node 60)
	maximum = 0.0625 (at node 25)
Injected packet length average = 1
Accepted packet length average = 1
Total in-flight flits = 107 (107 measured)
latency change    = 0.00393548
throughput change = 0.0144704
Class 0:
Packet latency average = 33.2028
	minimum = 7
	maximum = 78
Network latency average = 33.2028
	minimum = 7
	maximum = 78
Slowest packet = 135182
Flit latency average = 33.2642
	minimum = 7
	maximum = 78
Slowest flit = 135182
Fragmentation average = 0
	minimum = 0
	maximum = 0
Injected packet rate average = 0.0503802
	minimum = 0.0426667 (at node 5)
	maximum = 0.0596667 (at node 49)
Accepted packet rate average = 0.0503698
	minimum = 0.0393333 (at node 18)
	maximum = 0.0636667 (at node 25)
Injected flit rate average = 0.0503802
	minimum = 0.0426667 (at node 5)
	maximum = 0.0596667 (at node 49)
Accepted flit rate average= 0.0503698
	minimum = 0.0393333 (at node 18)
	maximum = 0.0636667 (at node 25)
Injected packet length average = 1
Accepted packet length average = 1
Total in-flight flits = 116 (116 measured)
latency change    = 0.000916295
throughput change = 0.00754834
Draining all recorded packets ...
Draining remaining packets ...
Time taken is 6108 cycles
Class 0:
Packet latency average = 33.3143
	minimum = 7
	maximum = 77
Network latency average = 33.3143
	minimum = 7
	maximum = 77
Slowest packet = 139328
Flit latency average = 33.3143
	minimum = 7
	maximum = 77
Slowest flit = 139328
Fragmentation average = 0
	minimum = 0
	maximum = 0
Injected packet rate average = 0.0494219
	minimum = 0.035 (at node 39)
	maximum = 0.067 (at node 62)
Accepted packet rate average = 0.0477187
	minimum = 0.031 (at node 48)
	maximum = 0.065 (at node 45)
Injected flit rate average = 0.0494219
	minimum = 0.035 (at node 39)
	maximum = 0.067 (at node 62)
Accepted flit rate average= 0.0477187
	minimum = 0.031 (at node 48)
	maximum = 0.065 (at node 45)
Injected packet length average = 1
Accepted packet length average = 1
Total in-flight flits = 109 (0 measured)
latency change    = 1
throughput change = 1
Class 0:
Packet latency average = 33.3233
	minimum = 7
	maximum = 77
Network latency average = 33.3233
	minimum = 7
	maximum = 77
Slowest packet = 139328
Flit latency average = 33.3233
	minimum = 7
	maximum = 77
Slowest flit = 139328
Fragmentation average = 0
	minimum = 0
	maximum = 0
Injected packet rate average = 0.0497031
	minimum = 0.041 (at node 53)
	maximum = 0.0575 (at node 21)
Accepted packet rate average = 0.0487422
	minimum = 0.0385 (at node 26)
	maximum = 0.0615 (at node 8)
Injected flit rate average = 0.0497031
	minimum = 0.041 (at node 53)
	maximum = 0.0575 (at node 21)
Accepted flit rate average= 0.0487422
	minimum = 0.0385 (at node 26)
	maximum = 0.0615 (at node 8)
Injected packet length average = 1
Accepted packet length average = 1
Total in-flight flits = 123 (0 measured)
latency change    = 0.000268495
throughput change = 0.020997
Class 0:
Packet latency average = 33.4845
	minimum = 7
	maximum = 78
Network latency average = 33.4845
	minimum = 7
	maximum = 78
Slowest packet = 145413
Flit latency average = 33.4845
	minimum = 7
	maximum = 78
Slowest flit = 145413
Fragmentation average = 0
	minimum = 0
	maximum = 0
Injected packet rate average = 0.0526094
	minimum = 0.038 (at node 8)
	maximum = 0.069 (at node 47)
Accepted packet rate average = 0.0528906
	minimum = 0.039 (at node 18)
	maximum = 0.067 (at node 26)
Injected flit rate average = 0.0526094
	minimum = 0.038 (at node 8)
	maximum = 0.069 (at node 47)
Accepted flit rate average= 0.0528906
	minimum = 0.039 (at node 18)
	maximum = 0.067 (at node 26)
Injected packet length average = 1
Accepted packet length average = 1
Total in-flight flits = 105 (0 measured)
latency change    = 0.00481421
throughput change = 0.0784343
Warmed up ...Time used is 3000 cycles
Class 0:
Packet latency average = 33.0029
	minimum = 7
	maximum = 77
Network latency average = 33.0029
	minimum = 7
	maximum = 77
Slowest packet = 150545
Flit latency average = 33.1111
	minimum = 7
	maximum = 77
Slowest flit = 148650
Fragmentation average = 0
	minimum = 0
	maximum = 0
Injected packet rate average = 0.0507187
	minimum = 0.036 (at node 11)
	maximum = 0.07 (at node 49)
Accepted packet rate average = 0.050625
	minimum = 0.033 (at node 58)
	maximum = 0.073 (at node 43)
Injected flit rate average = 0.0507187
	minimum = 0.036 (at node 11)
	maximum = 0.07 (at node 49)
Accepted flit rate average= 0.050625
	minimum = 0.033 (at node 58)
	maximum = 0.073 (at node 43)
Injected packet length average = 1
Accepted packet length average = 1
Total in-flight flits = 111 (111 measured)
latency change    = 0.0145933
throughput change = 0.0447531
Class 0:
Packet latency average = 33.2737
	minimum = 7
	maximum = 78
Network latency average = 33.2737
	minimum = 7
	maximum = 78
Slowest packet = 152053
Flit latency average = 33.3241
	minimum = 7
	maximum = 78
Slowest flit = 152053
Fragmentation average = 0
	minimum = 0
	maximum = 0
Injected packet rate average = 0.0499062
	minimum = 0.038 (at node 48)
	maximum = 0.0595 (at node 26)
Accepted packet rate average = 0.0498672
	minimum = 0.036 (at node 58)
	maximum = 0.0605 (at node 43)
Injected flit rate average = 0.0499062
	minimum = 0.038 (at node 48)
	maximum = 0.0595 (at node 26)
Accepted flit rate average= 0.0498672
	minimum = 0.036 (at node 58)
	maximum = 0.0605 (at node 43)
Injected packet length average = 1
Accepted packet length average = 1
Total in-flight flits = 110 (110 measured)
latency change    = 0.00813807
throughput change = 0.0151966
Class 0:
Packet latency average = 33.286
	minimum = 7
	maximum = 78
Network latency average = 33.286
	minimum = 7
	maximum = 78
Slowest packet = 152053
Flit latency average = 33.3196
	minimum = 7
	maximum = 78
Slowest flit = 152053
Fragmentation average = 0
	minimum = 0
	maximum = 0
Injected packet rate average = 0.0498906
	minimum = 0.041 (at node 48)
	maximum = 0.0576667 (at node 26)
Accepted packet rate average = 0.0498542
	minimum = 0.0413333 (at node 33)
	maximum = 0.0566667 (at node 28)
Injected flit rate average = 0.0498906
	minimum = 0.041 (at node 48)
	maximum = 0.0576667 (at node 26)
Accepted flit rate average= 0.0498542
	minimum = 0.0413333 (at node 33)
	maximum = 0.0566667 (at node 28)
Injected packet length average = 1
Accepted packet length average = 1
Total in-flight flits = 112 (112 measured)
latency change    = 0.000372295
throughput change = 0.000261178
Draining all recorded packets ...
Draining remaining packets ...
Time taken is 6125 cycles
Class 0:
Packet latency average = 33.8491
	minimum = 7
	maximum = 77
Network latency average = 33.8491
	minimum = 7
	maximum = 77
Slowest packet = 160071
Flit latency average = 33.8491
	minimum = 7
	maximum = 77
Slowest flit = 160071
Fragmentation average = 0
	minimum = 0
	maximum = 0
Injected packet rate average = 0.0490312
	minimum = 0.038 (at node 2)
	maximum = 0.07 (at node 27)
Accepted packet rate average = 0.0473125
	minimum = 0.03 (at node 47)
	maximum = 0.066 (at node 30)
Injected flit rate average = 0.0490312
	minimum = 0.038 (at node 2)
	maximum = 0.07 (at node 27)
Accepted flit rate average= 0.0473125
	minimum = 0.03 (at node 47)
	maximum = 0.066 (at node 30)
Injected packet length average = 1
Accepted packet length average = 1
Total in-flight flits = 110 (0 measured)
latency change    = 1
throughput change = 1
Class 0:
Packet latency average = 33.6241
	minimum = 7
	maximum = 78
Network latency average = 33.6241
	minimum = 7
	maximum = 78
Slowest packet = 162076
Flit latency average = 33.6241
	minimum = 7
	maximum = 78
Slowest flit = 162076
Fragmentation average = 0
	minimum = 0
	maximum = 0
Injected packet rate average = 0.0495156
	minimum = 0.0405 (at node 49)
	maximum = 0.062 (at node 31)
Accepted packet rate average = 0.0487422
	minimum = 0.04 (at node 40)
	maximum = 0.06 (at node 22)
Injected flit rate average = 0.0495156
	minimum = 0.0405 (at node 49)
	maximum = 0.062 (at node 31)
Accepted flit rate average= 0.0487422
	minimum = 0.04 (at node 40)
	maximum = 0.06 (at node 22)
Injected packet length average = 1
Accepted packet length average = 1
Total in-flight flits = 99 (0 measured)
latency change    = 0.00668974
throughput change = 0.0293316
Class 0:
Packet latency average = 33.4981
	minimum = 7
	maximum = 77
Network latency average = 33.4981
	minimum = 7
	maximum = 77
Slowest packet = 165490
Flit latency average = 33.4981
	minimum = 7
	maximum = 77
Slowest flit = 165490
Fragmentation average = 0
	minimum = 0
	maximum = 0
Injected packet rate average = 0.0496562
	minimum = 0.034 (at node 34)
	maximum = 0.061 (at node 20)
Accepted packet rate average = 0.0494062
	minimum = 0.037 (at node 13)
	maximum = 0.066 (at node 8)
Injected flit rate average = 0.0496562
	minimum = 0.034 (at node 34)
	maximum = 0.061 (at node 20)
Accepted flit rate average= 0.0494062
	minimum = 0.037 (at node 13)
	maximum = 0.066 (at node 8)
Injected packet length average = 1
Accepted packet length average = 1
Total in-flight flits = 115 (0 measured)
latency change    = 0.00376248
throughput change = 0.0134409
Warmed up ...Time used is 3000 cycles
Class 0:
Packet latency average = 33.3428
	minimum = 7
	maximum = 77
Network latency average = 33.3428
	minimum = 7
	maximum = 77
Slowest packet = 168223
Flit latency average = 33.5328
	minimum = 7
	maximum = 77
Slowest flit = 168223
Fragmentation average = 0
	minimum = 0
	maximum = 0
Injected packet rate average = 0.0496406
	minimum = 0.037 (at node 27)
	maximum = 0.067 (at node 22)
Accepted packet rate average = 0.0499687
	minimum = 0.028 (at node 43)
	maximum = 0.071 (at node 14)
Injected flit rate average = 0.0496406
	minimum = 0.037 (at node 27)
	maximum = 0.067 (at node 22)
Accepted flit rate average= 0.0499687
	minimum = 0.028 (at node 43)
	maximum = 0.071 (at node 14)
Injected packet length average = 1
Accepted packet length average = 1
Total in-flight flits = 94 (94 measured)
latency change    = 0.00465631
throughput change = 0.011257
Class 0:
Packet latency average = 33.5872
	minimum = 7
	maximum = 77
Network latency average = 33.5872
	minimum = 7
	maximum = 77
Slowest packet = 168223
Flit latency average = 33.6782
	minimum = 7
	maximum = 77
Slowest flit = 168223
Fragmentation average = 0
	minimum = 0
	maximum = 0
Injected packet rate average = 0.0496406
	minimum = 0.0385 (at node 51)
	maximum = 0.0595 (at node 13)
Accepted packet rate average = 0.04975
	minimum = 0.04 (at node 54)
	maximum = 0.0655 (at node 14)
Injected flit rate average = 0.0496406
	minimum = 0.0385 (at node 51)
	maximum = 0.0595 (at node 13)
Accepted flit rate average= 0.04975
	minimum = 0.04 (at node 54)
	maximum = 0.0655 (at node 14)
Injected packet length average = 1
Accepted packet length average = 1
Total in-flight flits = 101 (101 measured)
latency change    = 0.00727628
throughput change = 0.00439698
Class 0:
Packet latency average = 33.4573
	minimum = 7
	maximum = 77
Network latency average = 33.4573
	minimum = 7
	maximum = 77
Slowest packet = 168223
Flit latency average = 33.5193
	minimum = 7
	maximum = 77
Slowest flit = 168223
Fragmentation average = 0
	minimum = 0
	maximum = 0
Injected packet rate average = 0.049875
	minimum = 0.039 (at node 51)
	maximum = 0.0583333 (at node 13)
Accepted packet rate average = 0.0499375
	minimum = 0.0416667 (at node 54)
	maximum = 0.0596667 (at node 28)
Injected flit rate average = 0.049875
	minimum = 0.039 (at node 51)
	maximum = 0.0583333 (at node 13)
Accepted flit rate average= 0.0499375
	minimum = 0.0416667 (at node 54)
	maximum = 0.0596667 (at node 28)
Injected packet length average = 1
Accepted packet length average = 1
Total in-flight flits = 103 (103 measured)
latency change    = 0.00388371
throughput change = 0.00375469
Draining all recorded packets ...
Draining remaining packets ...
Time taken is 6123 cycles
Class 0:
Packet latency average = 33.2141
	minimum = 7
	maximum = 79
Network latency average = 33.2141
	minimum = 7
	maximum = 79
Slowest packet = 179501
Flit latency average = 33.2141
	minimum = 7
	maximum = 79
Slowest flit = 179501
Fragmentation average = 0
	minimum = 0
	maximum = 0
Injected packet rate average = 0.0494062
	minimum = 0.033 (at node 59)
	maximum = 0.064 (at node 39)
Accepted packet rate average = 0.0481562
	minimum = 0.032 (at node 6)
	maximum = 0.066 (at node 44)
Injected flit rate average = 0.0494062
	minimum = 0.033 (at node 59)
	maximum = 0.064 (at node 39)
Accepted flit rate average= 0.0481562
	minimum = 0.032 (at node 6)
	maximum = 0.066 (at node 44)
Injected packet length average = 1
Accepted packet length average = 1
Total in-flight flits = 80 (0 measured)
latency change    = 1
throughput change = 1
Class 0:
Packet latency average = 33.4236
	minimum = 7
	maximum = 80
Network latency average = 33.4236
	minimum = 7
	maximum = 80
Slowest packet = 182944
Flit latency average = 33.4236
	minimum = 7
	maximum = 80
Slowest flit = 182944
Fragmentation average = 0
	minimum = 0
	maximum = 0
Injected packet rate average = 0.0504844
	minimum = 0.037 (at node 59)
	maximum = 0.0605 (at node 23)
Accepted packet rate average = 0.0495234
	minimum = 0.0385 (at node 5)
	maximum = 0.059 (at node 62)
Injected flit rate average = 0.0504844
	minimum = 0.037 (at node 59)
	maximum = 0.0605 (at node 23)
Accepted flit rate average= 0.0495234
	minimum = 0.0385 (at node 5)
	maximum = 0.059 (at node 62)
Injected packet length average = 1
Accepted packet length average = 1
Total in-flight flits = 123 (0 measured)
latency change    = 0.00626569
throughput change = 0.0276069
Class 0:
Packet latency average = 33.6893
	minimum = 7
	maximum = 78
Network latency average = 33.6893
	minimum = 7
	maximum = 78
Slowest packet = 185167
Flit latency average = 33.6893
	minimum = 7
	maximum = 78
Slowest flit = 185167
Fragmentation average = 0
	minimum = 0
	maximum = 0
Injected packet rate average = 0.0507344
	minimum = 0.036 (at node 2)
	maximum = 0.068 (at node 40)
Accepted packet rate average = 0.0508438
	minimum = 0.033 (at node 34)
	maximum = 0.067 (at node 50)
Injected flit rate average = 0.0507344
	minimum = 0.036 (at node 2)
	maximum = 0.068 (at node 40)
Accepted flit rate average= 0.0508438
	minimum = 0.033 (at node 34)
	maximum = 0.067 (at node 50)
Injected packet length average = 1
Accepted packet length average = 1
Total in-flight flits = 116 (0 measured)
latency change    = 0.00788788
throughput change = 0.025968
Warmed up ...Time used is 3000 cycles
Class 0:
Packet latency average = 33.0557
	minimum = 7
	maximum = 77
Network latency average = 33.0557
	minimum = 7
	maximum = 77
Slowest packet = 187497
Flit latency average = 33.3814
	minimum = 7
	maximum = 77
Slowest flit = 187497
Fragmentation average = 0
	minimum = 0
	maximum = 0
Injected packet rate average = 0.049875
	minimum = 0.032 (at node 9)
	maximum = 0.067 (at node 61)
Accepted packet rate average = 0.0498125
	minimum = 0.032 (at node 39)
	maximum = 0.066 (at node 26)
Injected flit rate average = 0.049875
	minimum = 0.032 (at node 9)
	maximum = 0.067 (at node 61)
Accepted flit rate average= 0.0498125
	minimum = 0.032 (at node 39)
	maximum = 0.066 (at node 26)
Injected packet length average = 1
Accepted packet length average = 1
Total in-flight flits = 120 (120 measured)
latency change    = 0.0191689
throughput change = 0.0207026
Class 0:
Packet latency average = 33.4789
	minimum = 7
	maximum = 77
Network latency average = 33.4789
	minimum = 7
	maximum = 77
Slowest packet = 187497
Flit latency average = 33.6345
	minimum = 7
	maximum = 77
Slowest flit = 187497
Fragmentation average = 0
	minimum = 0
	maximum = 0
Injected packet rate average = 0.0496719
	minimum = 0.0395 (at node 4)
	maximum = 0.0685 (at node 61)
Accepted packet rate average = 0.0496953
	minimum = 0.0395 (at node 19)
	maximum = 0.0625 (at node 53)
Injected flit rate average = 0.0496719
	minimum = 0.0395 (at node 4)
	maximum = 0.0685 (at node 61)
Accepted flit rate average= 0.0496953
	minimum = 0.0395 (at node 19)
	maximum = 0.0625 (at node 53)
Injected packet length average = 1
Accepted packet length average = 1
Total in-flight flits = 113 (113 measured)
latency change    = 0.0126431
throughput change = 0.00235812
Class 0:
Packet latency average = 33.558
	minimum = 7
	maximum = 77
Network latency average = 33.558
	minimum = 7
	maximum = 77
Slowest packet = 187497
Flit latency average = 33.6612
	minimum = 7
	maximum = 77
Slowest flit = 187497
Fragmentation average = 0
	minimum = 0
	maximum = 0
Injected packet rate average = 0.0493958
	minimum = 0.04 (at node 46)
	maximum = 0.0636667 (at node 61)
Accepted packet rate average = 0.049474
	minimum = 0.038 (at node 33)
	maximum = 0.061 (at node 57)
Injected flit rate average = 0.0493958
	minimum = 0.04 (at node 46)
	maximum = 0.0636667 (at node 61)
Accepted flit rate average= 0.049474
	minimum = 0.038 (at node 33)
	maximum = 0.061 (at node 57)
Injected packet length average = 1
Accepted packet length average = 1
Total in-flight flits = 101 (101 measured)
latency change    = 0.00235673
throughput change = 0.00447416
Draining all recorded packets ...
Draining remaining packets ...
Time taken is 6118 cycles
Class 0:
Packet latency average = 32.9914
	minimum = 7
	maximum = 78
Network latency average = 32.9914
	minimum = 7
	maximum = 78
Slowest packet = 197426
Flit latency average = 32.9914
	minimum = 7
	maximum = 78
Slowest flit = 197426
Fragmentation average = 0
	minimum = 0
	maximum = 0
Injected packet rate average = 0.0505
	minimum = 0.035 (at node 42)
	maximum = 0.064 (at node 12)
Accepted packet rate average = 0.0489062
	minimum = 0.03 (at node 50)
	maximum = 0.063 (at node 41)
Injected flit rate average = 0.0505
	minimum = 0.035 (at node 42)
	maximum = 0.064 (at node 12)
Accepted flit rate average= 0.0489062
	minimum = 0.03 (at node 50)
	maximum = 0.063 (at node 41)
Injected packet length average = 1
Accepted packet length average = 1
Total in-flight flits = 102 (0 measured)
latency change    = 1
throughput change = 1
Class 0:
Packet latency average = 33.3649
	minimum = 7
	maximum = 78
Network latency average = 33.3649
	minimum = 7
	maximum = 78
Slowest packet = 197426
Flit latency average = 33.3649
	minimum = 7
	maximum = 78
Slowest flit = 197426
Fragmentation average = 0
	minimum = 0
	maximum = 0
Injected packet rate average = 0.0501328
	minimum = 0.039 (at node 60)
	maximum = 0.0635 (at node 44)
Accepted packet rate average = 0.0492891
	minimum = 0.0385 (at node 40)
	maximum = 0.0605 (at node 22)
Injected flit rate average = 0.0501328
	minimum = 0.039 (at node 60)
	maximum = 0.0635 (at node 44)
Accepted flit rate average= 0.0492891
	minimum = 0.0385 (at node 40)
	maximum = 0.0605 (at node 22)
Injected packet length average = 1
Accepted packet length average = 1
Total in-flight flits = 108 (0 measured)
latency change    = 0.0111945
throughput change = 0.00776668
Class 0:
Packet latency average = 33.6057
	minimum = 7
	maximum = 77
Network latency average = 33.6057
	minimum = 7
	maximum = 77
Slowest packet = 203914
Flit latency average = 33.6057
	minimum = 7
	maximum = 77
Slowest flit = 203914
Fragmentation average = 0
	minimum = 0
	maximum = 0
Injected packet rate average = 0.0509063
	minimum = 0.033 (at node 7)
	maximum = 0.068 (at node 19)
Accepted packet rate average = 0.0507969
	minimum = 0.034 (at node 39)
	maximum = 0.071 (at node 45)
Injected flit rate average = 0.0509063
	minimum = 0.033 (at node 7)
	maximum = 0.068 (at node 19)
Accepted flit rate average= 0.0507969
	minimum = 0.034 (at node 39)
	maximum = 0.071 (at node 45)
Injected packet length average = 1
Accepted packet length average = 1
Total in-flight flits = 115 (0 measured)
latency change    = 0.00716499
throughput change = 0.0296832
Warmed up ...Time used is 3000 cycles
Class 0:
Packet latency average = 33.5003
	minimum = 7
	maximum = 77
Network latency average = 33.5003
	minimum = 7
	maximum = 77
Slowest packet = 208599
Flit latency average = 33.7025
	minimum = 7
	maximum = 77
Slowest flit = 208599
Fragmentation average = 0
	minimum = 0
	maximum = 0
Injected packet rate average = 0.0484687
	minimum = 0.033 (at node 14)
	maximum = 0.065 (at node 39)
Accepted packet rate average = 0.0487344
	minimum = 0.028 (at node 53)
	maximum = 0.063 (at node 62)
Injected flit rate average = 0.0484687
	minimum = 0.033 (at node 14)
	maximum = 0.065 (at node 39)
Accepted flit rate average= 0.0487344
	minimum = 0.028 (at node 53)
	maximum = 0.063 (at node 62)
Injected packet length average = 1
Accepted packet length average = 1
Total in-flight flits = 98 (98 measured)
latency change    = 0.00314406
throughput change = 0.0423213
Class 0:
Packet latency average = 33.6473
	minimum = 7
	maximum = 80
Network latency average = 33.6471
	minimum = 7
	maximum = 80
Slowest packet = 210045
Flit latency average = 33.744
	minimum = 7
	maximum = 80
Slowest flit = 210045
Fragmentation average = 0
	minimum = 0
	maximum = 0
Injected packet rate average = 0.0493203
	minimum = 0.0365 (at node 14)
	maximum = 0.0585 (at node 29)
Accepted packet rate average = 0.0494687
	minimum = 0.0405 (at node 32)
	maximum = 0.0605 (at node 29)
Injected flit rate average = 0.0493203
	minimum = 0.0365 (at node 14)
	maximum = 0.0585 (at node 29)
Accepted flit rate average= 0.0494687
	minimum = 0.0405 (at node 32)
	maximum = 0.0605 (at node 29)
Injected packet length average = 1
Accepted packet length average = 1
Total in-flight flits = 96 (96 measured)
latency change    = 0.00436662
throughput change = 0.0148452
Class 0:
Packet latency average = 33.4412
	minimum = 7
	maximum = 80
Network latency average = 33.4411
	minimum = 7
	maximum = 80
Slowest packet = 210045
Flit latency average = 33.5085
	minimum = 7
	maximum = 80
Slowest flit = 210045
Fragmentation average = 0
	minimum = 0
	maximum = 0
Injected packet rate average = 0.0490937
	minimum = 0.0373333 (at node 3)
	maximum = 0.0596667 (at node 29)
Accepted packet rate average = 0.04925
	minimum = 0.042 (at node 27)
	maximum = 0.0553333 (at node 62)
Injected flit rate average = 0.0490937
	minimum = 0.0373333 (at node 3)
	maximum = 0.0596667 (at node 29)
Accepted flit rate average= 0.04925
	minimum = 0.042 (at node 27)
	maximum = 0.0553333 (at node 62)
Injected packet length average = 1
Accepted packet length average = 1
Total in-flight flits = 85 (85 measured)
latency change    = 0.00616259
throughput change = 0.00444162
Draining all recorded packets ...
Draining remaining packets ...
Time taken is 6130 cycles
Class 0:
Packet latency average = 33.4368
	minimum = 7
	maximum = 73
Network latency average = 33.4368
	minimum = 7
	maximum = 73
Slowest packet = 217177
Flit latency average = 33.4368
	minimum = 7
	maximum = 73
Slowest flit = 217177
Fragmentation average = 0
	minimum = 0
	maximum = 0
Injected packet rate average = 0.050875
	minimum = 0.037 (at node 6)
	maximum = 0.068 (at node 43)
Accepted packet rate average = 0.0491875
	minimum = 0.036 (at node 31)
	maximum = 0.067 (at node 5)
Injected flit rate average = 0.050875
	minimum = 0.037 (at node 6)
	maximum = 0.068 (at node 43)
Accepted flit rate average= 0.0491875
	minimum = 0.036 (at node 31)
	maximum = 0.067 (at node 5)
Injected packet length average = 1
Accepted packet length average = 1
Total in-flight flits = 108 (0 measured)
latency change    = 1
throughput change = 1
Class 0:
Packet latency average = 33.4045
	minimum = 7
	maximum = 77
Network latency average = 33.4045
	minimum = 7
	maximum = 77
Slowest packet = 219849
Flit latency average = 33.4045
	minimum = 7
	maximum = 77
Slowest flit = 219849
Fragmentation average = 0
	minimum = 0
	maximum = 0
Injected packet rate average = 0.0493594
	minimum = 0.0395 (at node 29)
	maximum = 0.0595 (at node 47)
Accepted packet rate average = 0.0485703
	minimum = 0.0405 (at node 48)
	maximum = 0.0585 (at node 12)
Injected flit rate average = 0.0493594
	minimum = 0.0395 (at node 29)
	maximum = 0.0595 (at node 47)
Accepted flit rate average= 0.0485703
	minimum = 0.0405 (at node 48)
	maximum = 0.0585 (at node 12)
Injected packet length average = 1
Accepted packet length average = 1
Total in-flight flits = 101 (0 measured)
latency change    = 0.000965417
throughput change = 0.0127071
Class 0:
Packet latency average = 33.6543
	minimum = 7
	maximum = 80
Network latency average = 33.6543
	minimum = 7
	maximum = 80
Slowest packet = 222862
Flit latency average = 33.6543
	minimum = 7
	maximum = 80
Slowest flit = 222862
Fragmentation average = 0
	minimum = 0
	maximum = 0
Injected packet rate average = 0.0507344
	minimum = 0.037 (at node 43)
	maximum = 0.062 (at node 23)
Accepted packet rate average = 0.0503437
	minimum = 0.035 (at node 14)
	maximum = 0.071 (at node 33)
Injected flit rate average = 0.0507344
	minimum = 0.037 (at node 43)
	maximum = 0.062 (at node 23)
Accepted flit rate average= 0.0503437
	minimum = 0.035 (at node 14)
	maximum = 0.071 (at node 33)
Injected packet length average = 1
Accepted packet length average = 1
Total in-flight flits = 126 (0 measured)
latency change    = 0.00742005
throughput change = 0.0352266
Warmed up ...Time used is 3000 cycles
Class 0:
Packet latency average = 33.1208
	minimum = 7
	maximum = 79
Network latency average = 33.1208
	minimum = 7
	maximum = 79
Slowest packet = 228846
Flit latency average = 33.3718
	minimum = 7
	maximum = 79
Slowest flit = 228846
Fragmentation average = 0
	minimum = 0
	maximum = 0
Injected packet rate average = 0.0493281
	minimum = 0.031 (at node 57)
	maximum = 0.064 (at node 5)
Accepted packet rate average = 0.0491719
	minimum = 0.024 (at node 55)
	maximum = 0.07 (at node 49)
Injected flit rate average = 0.0493281
	minimum = 0.031 (at node 57)
	maximum = 0.064 (at node 5)
Accepted flit rate average= 0.0491719
	minimum = 0.024 (at node 55)
	maximum = 0.07 (at node 49)
Injected packet length average = 1
Accepted packet length average = 1
Total in-flight flits = 136 (136 measured)
latency change    = 0.0161056
throughput change = 0.0238322
Class 0:
Packet latency average = 33.3501
	minimum = 7
	maximum = 79
Network latency average = 33.3501
	minimum = 7
	maximum = 79
Slowest packet = 228846
Flit latency average = 33.4707
	minimum = 7
	maximum = 79
Slowest flit = 228846
Fragmentation average = 0
	minimum = 0
	maximum = 0
Injected packet rate average = 0.0491719
	minimum = 0.035 (at node 26)
	maximum = 0.0615 (at node 28)
Accepted packet rate average = 0.0492578
	minimum = 0.038 (at node 59)
	maximum = 0.061 (at node 49)
Injected flit rate average = 0.0491719
	minimum = 0.035 (at node 26)
	maximum = 0.0615 (at node 28)
Accepted flit rate average= 0.0492578
	minimum = 0.038 (at node 59)
	maximum = 0.061 (at node 49)
Injected packet length average = 1
Accepted packet length average = 1
Total in-flight flits = 115 (115 measured)
latency change    = 0.00687362
throughput change = 0.00174465
Class 0:
Packet latency average = 33.3789
	minimum = 7
	maximum = 79
Network latency average = 33.3789
	minimum = 7
	maximum = 79
Slowest packet = 228846
Flit latency average = 33.4581
	minimum = 7
	maximum = 79
Slowest flit = 228846
Fragmentation average = 0
	minimum = 0
	maximum = 0
Injected packet rate average = 0.0497292
	minimum = 0.0376667 (at node 37)
	maximum = 0.0613333 (at node 28)
Accepted packet rate average = 0.0498333
	minimum = 0.042 (at node 59)
	maximum = 0.0593333 (at node 32)
Injected flit rate average = 0.0497292
	minimum = 0.0376667 (at node 37)
	maximum = 0.0613333 (at node 28)
Accepted flit rate average= 0.0498333
	minimum = 0.042 (at node 59)
	maximum = 0.0593333 (at node 32)
Injected packet length average = 1
Accepted packet length average = 1
Total in-flight flits = 106 (106 measured)
latency change    = 0.000865471
throughput change = 0.0115489
Draining all recorded packets ...
Draining remaining packets ...
Time taken is 6113 cycles
Class 0:
Packet latency average = 33.6841
	minimum = 7
	maximum = 77
Network latency average = 33.6835
	minimum = 7
	maximum = 77
Slowest packet = 235720
Flit latency average = 33.6835
	minimum = 7
	maximum = 77
Slowest flit = 235720
Fragmentation average = 0
	minimum = 0
	maximum = 0
Injected packet rate average = 0.0497187
	minimum = 0.032 (at node 22)
	maximum = 0.065 (at node 58)
Accepted packet rate average = 0.0482812
	minimum = 0.033 (at node 4)
	maximum = 0.068 (at node 28)
Injected flit rate average = 0.0497187
	minimum = 0.032 (at node 22)
	maximum = 0.065 (at node 58)
Accepted flit rate average= 0.0482812
	minimum = 0.033 (at node 4)
	maximum = 0.068 (at node 28)
Injected packet length average = 1
Accepted packet length average = 1
Total in-flight flits = 92 (0 measured)
latency change    = 1
throughput change = 1
Class 0:
Packet latency average = 33.5637
	minimum = 7
	maximum = 77
Network latency average = 33.5634
	minimum = 7
	maximum = 77
Slowest packet = 235720
Flit latency average = 33.5634
	minimum = 7
	maximum = 77
Slowest flit = 235720
Fragmentation average = 0
	minimum = 0
	maximum = 0
Injected packet rate average = 0.0501172
	minimum = 0.0395 (at node 5)
	maximum = 0.063 (at node 30)
Accepted packet rate average = 0.0491719
	minimum = 0.0405 (at node 48)
	maximum = 0.0605 (at node 2)
Injected flit rate average = 0.0501172
	minimum = 0.0395 (at node 5)
	maximum = 0.063 (at node 30)
Accepted flit rate average= 0.0491719
	minimum = 0.0405 (at node 48)
	maximum = 0.0605 (at node 2)
Injected packet length average = 1
Accepted packet length average = 1
Total in-flight flits = 121 (0 measured)
latency change    = 0.00358813
throughput change = 0.0181125
Class 0:
Packet latency average = 33.3507
	minimum = 7
	maximum = 79
Network latency average = 33.3507
	minimum = 7
	maximum = 79
Slowest packet = 243989
Flit latency average = 33.3507
	minimum = 7
	maximum = 79
Slowest flit = 243989
Fragmentation average = 0
	minimum = 0
	maximum = 0
Injected packet rate average = 0.0503125
	minimum = 0.033 (at node 20)
	maximum = 0.074 (at node 40)
Accepted packet rate average = 0.0503906
	minimum = 0.035 (at node 46)
	maximum = 0.067 (at node 12)
Injected flit rate average = 0.0503125
	minimum = 0.033 (at node 20)
	maximum = 0.074 (at node 40)
Accepted flit rate average= 0.0503906
	minimum = 0.035 (at node 46)
	maximum = 0.067 (at node 12)
Injected packet length average = 1
Accepted packet length average = 1
Total in-flight flits = 116 (0 measured)
latency change    = 0.00638709
throughput change = 0.024186
Warmed up ...Time used is 3000 cycles
Class 0:
Packet latency average = 33.2788
	minimum = 7
	maximum = 77
Network latency average = 33.2788
	minimum = 7
	maximum = 77
Slowest packet = 246033
Flit latency average = 33.4083
	minimum = 7
	maximum = 77
Slowest flit = 246033
Fragmentation average = 0
	minimum = 0
	maximum = 0
Injected packet rate average = 0.049625
	minimum = 0.038 (at node 49)
	maximum = 0.067 (at node 44)
Accepted packet rate average = 0.0499062
	minimum = 0.035 (at node 12)
	maximum = 0.065 (at node 33)
Injected flit rate average = 0.049625
	minimum = 0.038 (at node 49)
	maximum = 0.067 (at node 44)
Accepted flit rate average= 0.0499062
	minimum = 0.035 (at node 12)
	maximum = 0.065 (at node 33)
Injected packet length average = 1
Accepted packet length average = 1
Total in-flight flits = 98 (98 measured)
latency change    = 0.0021619
throughput change = 0.0097057
Class 0:
Packet latency average = 33.292
	minimum = 7
	maximum = 77
Network latency average = 33.292
	minimum = 7
	maximum = 77
Slowest packet = 246033
Flit latency average = 33.356
	minimum = 7
	maximum = 77
Slowest flit = 246033
Fragmentation average = 0
	minimum = 0
	maximum = 0
Injected packet rate average = 0.0502109
	minimum = 0.041 (at node 20)
	maximum = 0.0615 (at node 24)
Accepted packet rate average = 0.0503047
	minimum = 0.039 (at node 21)
	maximum = 0.063 (at node 33)
Injected flit rate average = 0.0502109
	minimum = 0.041 (at node 20)
	maximum = 0.0615 (at node 24)
Accepted flit rate average= 0.0503047
	minimum = 0.039 (at node 21)
	maximum = 0.063 (at node 33)
Injected packet length average = 1
Accepted packet length average = 1
Total in-flight flits = 104 (104 measured)
latency change    = 0.00039642
throughput change = 0.00792048
Class 0:
Packet latency average = 33.339
	minimum = 7
	maximum = 81
Network latency average = 33.3389
	minimum = 7
	maximum = 81
Slowest packet = 253961
Flit latency average = 33.3812
	minimum = 7
	maximum = 81
Slowest flit = 253961
Fragmentation average = 0
	minimum = 0
	maximum = 0
Injected packet rate average = 0.050125
	minimum = 0.0436667 (at node 7)
	maximum = 0.062 (at node 50)
Accepted packet rate average = 0.0501458
	minimum = 0.0403333 (at node 52)
	maximum = 0.0593333 (at node 33)
Injected flit rate average = 0.050125
	minimum = 0.0436667 (at node 7)
	maximum = 0.062 (at node 50)
Accepted flit rate average= 0.0501458
	minimum = 0.0403333 (at node 52)
	maximum = 0.0593333 (at node 33)
Injected packet length average = 1
Accepted packet length average = 1
Total in-flight flits = 112 (112 measured)
latency change    = 0.00141262
throughput change = 0.00316784
Draining all recorded packets ...
Draining remaining packets ...
Time taken is 6124 cycles
Class 0:
Packet latency average = 33.4305
	minimum = 7
	maximum = 83
Network latency average = 33.4305
	minimum = 7
	maximum = 83
Slowest packet = 255936
Flit latency average = 33.4305
	minimum = 7
	maximum = 83
Slowest flit = 255936
Fragmentation average = 0
	minimum = 0
	maximum = 0
Injected packet rate average = 0.0504375
	minimum = 0.035 (at node 22)
	maximum = 0.067 (at node 31)
Accepted packet rate average = 0.0487812
	minimum = 0.036 (at node 51)
	maximum = 0.062 (at node 30)
Injected flit rate average = 0.0504375
	minimum = 0.035 (at node 22)
	maximum = 0.067 (at node 31)
Accepted flit rate average= 0.0487812
	minimum = 0.036 (at node 51)
	maximum = 0.062 (at node 30)
Injected packet length average = 1
Accepted packet length average = 1
Total in-flight flits = 106 (0 measured)
latency change    = 1
throughput change = 1
Class 0:
Packet latency average = 33.5944
	minimum = 7
	maximum = 83
Network latency average = 33.5944
	minimum = 7
	maximum = 83
Slowest packet = 255936
Flit latency average = 33.5944
	minimum = 7
	maximum = 83
Slowest flit = 255936
Fragmentation average = 0
	minimum = 0
	maximum = 0
Injected packet rate average = 0.0498516
	minimum = 0.0365 (at node 16)
	maximum = 0.0605 (at node 23)
Accepted packet rate average = 0.0489062
	minimum = 0.0405 (at node 63)
	maximum = 0.0585 (at node 12)
Injected flit rate average = 0.0498516
	minimum = 0.0365 (at node 16)
	maximum = 0.0605 (at node 23)
Accepted flit rate average= 0.0489062
	minimum = 0.0405 (at node 63)
	maximum = 0.0585 (at node 12)
Injected packet length average = 1
Accepted packet length average = 1
Total in-flight flits = 121 (0 measured)
latency change    = 0.00487925
throughput change = 0.00255591
Class 0:
Packet latency average = 33.2935
	minimum = 7
	maximum = 77
Network latency average = 33.2935
	minimum = 7
	maximum = 77
Slowest packet = 261767
Flit latency average = 33.2935
	minimum = 7
	maximum = 77
Slowest flit = 261767
Fragmentation average = 0
	minimum = 0
	maximum = 0
Injected packet rate average = 0.0498594
	minimum = 0.029 (at node 29)
	maximum = 0.072 (at node 35)
Accepted packet rate average = 0.0500937
	minimum = 0.036 (at node 33)
	maximum = 0.07 (at node 53)
Injected flit rate average = 0.0498594
	minimum = 0.029 (at node 29)
	maximum = 0.072 (at node 35)
Accepted flit rate average= 0.0500937
	minimum = 0.036 (at node 33)
	maximum = 0.07 (at node 53)
Injected packet length average = 1
Accepted packet length average = 1
Total in-flight flits = 106 (0 measured)
latency change    = 0.0090377
throughput change = 0.0237056
Warmed up ...Time used is 3000 cycles
Class 0:
Packet latency average = 33.35
	minimum = 7
	maximum = 78
Network latency average = 33.35
	minimum = 7
	maximum = 78
Slowest packet = 266787
Flit latency average = 33.5894
	minimum = 7
	maximum = 78
Slowest flit = 266787
Fragmentation average = 0
	minimum = 0
	maximum = 0
Injected packet rate average = 0.05
	minimum = 0.031 (at node 31)
	maximum = 0.069 (at node 54)
Accepted packet rate average = 0.0502656
	minimum = 0.032 (at node 57)
	maximum = 0.073 (at node 28)
Injected flit rate average = 0.05
	minimum = 0.031 (at node 31)
	maximum = 0.069 (at node 54)
Accepted flit rate average= 0.0502656
	minimum = 0.032 (at node 57)
	maximum = 0.073 (at node 28)
Injected packet length average = 1
Accepted packet length average = 1
Total in-flight flits = 89 (89 measured)
latency change    = 0.00169523
throughput change = 0.00341933
Class 0:
Packet latency average = 33.4602
	minimum = 7
	maximum = 83
Network latency average = 33.4602
	minimum = 7
	maximum = 83
Slowest packet = 269154
Flit latency average = 33.5799
	minimum = 7
	maximum = 83
Slowest flit = 269154
Fragmentation average = 0
	minimum = 0
	maximum = 0
Injected packet rate average = 0.0494141
	minimum = 0.039 (at node 31)
	maximum = 0.0685 (at node 54)
Accepted packet rate average = 0.0494844
	minimum = 0.034 (at node 57)
	maximum = 0.0595 (at node 28)
Injected flit rate average = 0.0494141
	minimum = 0.039 (at node 31)
	maximum = 0.0685 (at node 54)
Accepted flit rate average= 0.0494844
	minimum = 0.034 (at node 57)
	maximum = 0.0595 (at node 28)
Injected packet length average = 1
Accepted packet length average = 1
Total in-flight flits = 97 (97 measured)
latency change    = 0.00329142
throughput change = 0.0157878
Class 0:
Packet latency average = 33.3953
	minimum = 7
	maximum = 83
Network latency average = 33.3953
	minimum = 7
	maximum = 83
Slowest packet = 269154
Flit latency average = 33.4754
	minimum = 7
	maximum = 83
Slowest flit = 269154
Fragmentation average = 0
	minimum = 0
	maximum = 0
Injected packet rate average = 0.0496875
	minimum = 0.041 (at node 31)
	maximum = 0.061 (at node 54)
Accepted packet rate average = 0.0497344
	minimum = 0.041 (at node 57)
	maximum = 0.0576667 (at node 10)
Injected flit rate average = 0.0496875
	minimum = 0.041 (at node 31)
	maximum = 0.061 (at node 54)
Accepted flit rate average= 0.0497344
	minimum = 0.041 (at node 57)
	maximum = 0.0576667 (at node 10)
Injected packet length average = 1
Accepted packet length average = 1
Total in-flight flits = 97 (97 measured)
latency change    = 0.0019422
throughput change = 0.0050267
Draining all recorded packets ...
Draining remaining packets ...
Time taken is 6120 cycles
Class 0:
Packet latency average = 33.4059
	minimum = 7
	maximum = 77
Network latency average = 33.4059
	minimum = 7
	maximum = 77
Slowest packet = 275562
Flit latency average = 33.4059
	minimum = 7
	maximum = 77
Slowest flit = 275562
Fragmentation average = 0
	minimum = 0
	maximum = 0
Injected packet rate average = 0.0485781
	minimum = 0.036 (at node 30)
	maximum = 0.064 (at node 8)
Accepted packet rate average = 0.047
	minimum = 0.028 (at node 55)
	maximum = 0.064 (at node 32)
Injected flit rate average = 0.0485781
	minimum = 0.036 (at node 30)
	maximum = 0.064 (at node 8)
Accepted flit rate average= 0.047
	minimum = 0.028 (at node 55)
	maximum = 0.064 (at node 32)
Injected packet length average = 1
Accepted packet length average = 1
Total in-flight flits = 101 (0 measured)
latency change    = 1
throughput change = 1
Class 0:
Packet latency average = 33.2044
	minimum = 7
	maximum = 77
Network latency average = 33.2044
	minimum = 7
	maximum = 77
Slowest packet = 275562
Flit latency average = 33.2044
	minimum = 7
	maximum = 77
Slowest flit = 275562
Fragmentation average = 0
	minimum = 0
	maximum = 0
Injected packet rate average = 0.0494766
	minimum = 0.0385 (at node 61)
	maximum = 0.0645 (at node 51)
Accepted packet rate average = 0.0486484
	minimum = 0.0345 (at node 55)
	maximum = 0.0565 (at node 27)
Injected flit rate average = 0.0494766
	minimum = 0.0385 (at node 61)
	maximum = 0.0645 (at node 51)
Accepted flit rate average= 0.0486484
	minimum = 0.0345 (at node 55)
	maximum = 0.0565 (at node 27)
Injected packet length average = 1
Accepted packet length average = 1
Total in-flight flits = 106 (0 measured)
latency change    = 0.00606802
throughput change = 0.0338847
Class 0:
Packet latency average = 33.4464
	minimum = 7
	maximum = 86
Network latency average = 33.4464
	minimum = 7
	maximum = 86
Slowest packet = 283284
Flit latency average = 33.4464
	minimum = 7
	maximum = 86
Slowest flit = 283284
Fragmentation average = 0
	minimum = 0
	maximum = 0
Injected packet rate average = 0.0507031
	minimum = 0.036 (at node 43)
	maximum = 0.064 (at node 25)
Accepted packet rate average = 0.05075
	minimum = 0.034 (at node 51)
	maximum = 0.068 (at node 20)
Injected flit rate average = 0.0507031
	minimum = 0.036 (at node 43)
	maximum = 0.064 (at node 25)
Accepted flit rate average= 0.05075
	minimum = 0.034 (at node 51)
	maximum = 0.068 (at node 20)
Injected packet length average = 1
Accepted packet length average = 1
Total in-flight flits = 103 (0 measured)
latency change    = 0.00723534
throughput change = 0.0414101
Warmed up ...Time used is 3000 cycles
Class 0:
Packet latency average = 33.159
	minimum = 7
	maximum = 78
Network latency average = 33.159
	minimum = 7
	maximum = 78
Slowest packet = 284450
Flit latency average = 33.2766
	minimum = 7
	maximum = 78
Slowest flit = 284450
Fragmentation average = 0
	minimum = 0
	maximum = 0
Injected packet rate average = 0.049625
	minimum = 0.031 (at node 43)
	maximum = 0.066 (at node 58)
Accepted packet rate average = 0.0497656
	minimum = 0.036 (at node 18)
	maximum = 0.068 (at node 27)
Injected flit rate average = 0.049625
	minimum = 0.031 (at node 43)
	maximum = 0.066 (at node 58)
Accepted flit rate average= 0.0497656
	minimum = 0.036 (at node 18)
	maximum = 0.068 (at node 27)
Injected packet length average = 1
Accepted packet length average = 1
Total in-flight flits = 94 (94 measured)
latency change    = 0.00866857
throughput change = 0.0197802
Class 0:
Packet latency average = 33.3894
	minimum = 7
	maximum = 78
Network latency average = 33.3894
	minimum = 7
	maximum = 78
Slowest packet = 284450
Flit latency average = 33.4453
	minimum = 7
	maximum = 78
Slowest flit = 284450
Fragmentation average = 0
	minimum = 0
	maximum = 0
Injected packet rate average = 0.0491406
	minimum = 0.0385 (at node 43)
	maximum = 0.061 (at node 46)
Accepted packet rate average = 0.0490312
	minimum = 0.0405 (at node 30)
	maximum = 0.061 (at node 52)
Injected flit rate average = 0.0491406
	minimum = 0.0385 (at node 43)
	maximum = 0.061 (at node 46)
Accepted flit rate average= 0.0490312
	minimum = 0.0405 (at node 30)
	maximum = 0.061 (at node 52)
Injected packet length average = 1
Accepted packet length average = 1
Total in-flight flits = 117 (117 measured)
latency change    = 0.00690189
throughput change = 0.0149777
Class 0:
Packet latency average = 33.3994
	minimum = 7
	maximum = 78
Network latency average = 33.3994
	minimum = 7
	maximum = 78
Slowest packet = 284450
Flit latency average = 33.4361
	minimum = 7
	maximum = 78
Slowest flit = 284450
Fragmentation average = 0
	minimum = 0
	maximum = 0
Injected packet rate average = 0.0495052
	minimum = 0.0366667 (at node 43)
	maximum = 0.0563333 (at node 34)
Accepted packet rate average = 0.0496354
	minimum = 0.0423333 (at node 1)
	maximum = 0.0593333 (at node 27)
Injected flit rate average = 0.0495052
[...]
	maximum = 0.065 (at node 28)
Accepted flit rate average= 0.0510469
	minimum = 0.037 (at node 4)
	maximum = 0.071 (at node 45)
Injected packet length average = 1
Accepted packet length average = 1
Total in-flight flits = 119 (0 measured)
latency change    = 0.00376265
throughput change = 0.0240282
Warmed up ...Time used is 3000 cycles
Class 0:
Packet latency average = 33.468
	minimum = 7
	maximum = 78
Network latency average = 33.468
	minimum = 7
	maximum = 78
Slowest packet = 1895320
Flit latency average = 33.6583
	minimum = 7
	maximum = 78
Slowest flit = 1895320
Fragmentation average = 0
	minimum = 0
	maximum = 0
Injected packet rate average = 0.0492969
	minimum = 0.037 (at node 6)
	maximum = 0.064 (at node 26)
Accepted packet rate average = 0.0494375
	minimum = 0.037 (at node 19)
	maximum = 0.07 (at node 61)
Injected flit rate average = 0.0492969
	minimum = 0.037 (at node 6)
	maximum = 0.064 (at node 26)
Accepted flit rate average= 0.0494375
	minimum = 0.037 (at node 19)
	maximum = 0.07 (at node 61)
Injected packet length average = 1
Accepted packet length average = 1
Total in-flight flits = 110 (110 measured)
latency change    = 0.00503834
throughput change = 0.0325537
Class 0:
Packet latency average = 33.4209
	minimum = 7
	maximum = 78
Network latency average = 33.4209
	minimum = 7
	maximum = 78
Slowest packet = 1895320
Flit latency average = 33.5161
	minimum = 7
	maximum = 78
Slowest flit = 1895320
Fragmentation average = 0
	minimum = 0
	maximum = 0
Injected packet rate average = 0.0497578
	minimum = 0.041 (at node 10)
	maximum = 0.058 (at node 38)
Accepted packet rate average = 0.049875
	minimum = 0.0425 (at node 25)
	maximum = 0.0625 (at node 59)
Injected flit rate average = 0.0497578
	minimum = 0.041 (at node 10)
	maximum = 0.058 (at node 38)
Accepted flit rate average= 0.049875
	minimum = 0.0425 (at node 25)
	maximum = 0.0625 (at node 59)
Injected packet length average = 1
Accepted packet length average = 1
Total in-flight flits = 104 (104 measured)
latency change    = 0.00140841
throughput change = 0.00877193
Class 0:
Packet latency average = 33.4103
	minimum = 7
	maximum = 78
Network latency average = 33.4103
	minimum = 7
	maximum = 78
Slowest packet = 1895320
Flit latency average = 33.4747
	minimum = 7
	maximum = 78
Slowest flit = 1895320
Fragmentation average = 0
	minimum = 0
	maximum = 0
Injected packet rate average = 0.049224
	minimum = 0.041 (at node 10)
	maximum = 0.057 (at node 26)
Accepted packet rate average = 0.04925
	minimum = 0.043 (at node 25)
	maximum = 0.0556667 (at node 26)
Injected flit rate average = 0.049224
	minimum = 0.041 (at node 10)
	maximum = 0.057 (at node 26)
Accepted flit rate average= 0.04925
	minimum = 0.043 (at node 25)
	maximum = 0.0556667 (at node 26)
Injected packet length average = 1
Accepted packet length average = 1
Total in-flight flits = 114 (114 measured)
latency change    = 0.000317469
throughput change = 0.0126904
Draining all recorded packets ...
Draining remaining packets ...
Time taken is 6127 cycles
Class 0:
Packet latency average = 33.1482
	minimum = 7
	maximum = 79
Network latency average = 33.1482
	minimum = 7
	maximum = 79
Slowest packet = 1907181
Flit latency average = 33.1482
	minimum = 7
	maximum = 79
Slowest flit = 1907181
Fragmentation average = 0
	minimum = 0
	maximum = 0
Injected packet rate average = 0.0492656
	minimum = 0.035 (at node 20)
	maximum = 0.066 (at node 51)
Accepted packet rate average = 0.0475625
	minimum = 0.035 (at node 32)
	maximum = 0.061 (at node 60)
Injected flit rate average = 0.0492656
	minimum = 0.035 (at node 20)
	maximum = 0.066 (at node 51)
Accepted flit rate average= 0.0475625
	minimum = 0.035 (at node 32)
	maximum = 0.061 (at node 60)
Injected packet length average = 1
Accepted packet length average = 1
Total in-flight flits = 109 (0 measured)
latency change    = 1
throughput change = 1
Class 0:
Packet latency average = 33.2942
	minimum = 7
	maximum = 79
Network latency average = 33.2942
	minimum = 7
	maximum = 79
Slowest packet = 1907181
Flit latency average = 33.2942
	minimum = 7
	maximum = 79
Slowest flit = 1907181
Fragmentation average = 0
	minimum = 0
	maximum = 0
Injected packet rate average = 0.0491719
	minimum = 0.0395 (at node 1)
	maximum = 0.058 (at node 24)
Accepted packet rate average = 0.0484687
	minimum = 0.038 (at node 24)
	maximum = 0.0575 (at node 26)
Injected flit rate average = 0.0491719
	minimum = 0.0395 (at node 1)
	maximum = 0.058 (at node 24)
Accepted flit rate average= 0.0484687
	minimum = 0.038 (at node 24)
	maximum = 0.0575 (at node 26)
Injected packet length average = 1
Accepted packet length average = 1
Total in-flight flits = 90 (0 measured)
latency change    = 0.0043853
throughput change = 0.0186976
Class 0:
Packet latency average = 33.3025
	minimum = 7
	maximum = 78
Network latency average = 33.3025
	minimum = 7
	maximum = 78
Slowest packet = 1913052
Flit latency average = 33.3025
	minimum = 7
	maximum = 78
Slowest flit = 1913052
Fragmentation average = 0
	minimum = 0
	maximum = 0
Injected packet rate average = 0.0497187
	minimum = 0.035 (at node 51)
	maximum = 0.063 (at node 7)
Accepted packet rate average = 0.0496406
	minimum = 0.028 (at node 54)
	maximum = 0.067 (at node 39)
Injected flit rate average = 0.0497187
	minimum = 0.035 (at node 51)
	maximum = 0.063 (at node 7)
Accepted flit rate average= 0.0496406
	minimum = 0.028 (at node 54)
	maximum = 0.067 (at node 39)
Injected packet length average = 1
Accepted packet length average = 1
Total in-flight flits = 95 (0 measured)
latency change    = 0.000249878
throughput change = 0.0236072
Warmed up ...Time used is 3000 cycles
Class 0:
Packet latency average = 33.4945
	minimum = 7
	maximum = 77
Network latency average = 33.4945
	minimum = 7
	maximum = 77
Slowest packet = 1915037
Flit latency average = 33.6157
	minimum = 7
	maximum = 77
Slowest flit = 1915037
Fragmentation average = 0
	minimum = 0
	maximum = 0
Injected packet rate average = 0.0512344
	minimum = 0.035 (at node 14)
	maximum = 0.081 (at node 58)
Accepted packet rate average = 0.0511875
	minimum = 0.031 (at node 44)
	maximum = 0.072 (at node 50)
Injected flit rate average = 0.0512344
	minimum = 0.035 (at node 14)
	maximum = 0.081 (at node 58)
Accepted flit rate average= 0.0511875
	minimum = 0.031 (at node 44)
	maximum = 0.072 (at node 50)
Injected packet length average = 1
Accepted packet length average = 1
Total in-flight flits = 98 (98 measured)
latency change    = 0.00573264
throughput change = 0.0302198
Class 0:
Packet latency average = 33.3295
	minimum = 7
	maximum = 77
Network latency average = 33.3295
	minimum = 7
	maximum = 77
Slowest packet = 1915037
Flit latency average = 33.3932
	minimum = 7
	maximum = 77
Slowest flit = 1915037
Fragmentation average = 0
	minimum = 0
	maximum = 0
Injected packet rate average = 0.0507422
	minimum = 0.04 (at node 12)
	maximum = 0.07 (at node 58)
Accepted packet rate average = 0.0506094
	minimum = 0.038 (at node 44)
	maximum = 0.063 (at node 52)
Injected flit rate average = 0.0507422
	minimum = 0.04 (at node 12)
	maximum = 0.07 (at node 58)
Accepted flit rate average= 0.0506094
	minimum = 0.038 (at node 44)
	maximum = 0.063 (at node 52)
Injected packet length average = 1
Accepted packet length average = 1
Total in-flight flits = 112 (112 measured)
latency change    = 0.00495146
throughput change = 0.0114233
Class 0:
Packet latency average = 33.2921
	minimum = 7
	maximum = 77
Network latency average = 33.2921
	minimum = 7
	maximum = 77
Slowest packet = 1915037
Flit latency average = 33.3356
	minimum = 7
	maximum = 77
Slowest flit = 1915037
Fragmentation average = 0
	minimum = 0
	maximum = 0
Injected packet rate average = 0.0499896
	minimum = 0.0396667 (at node 40)
	maximum = 0.061 (at node 58)
Accepted packet rate average = 0.0498802
	minimum = 0.038 (at node 44)
	maximum = 0.0606667 (at node 52)
Injected flit rate average = 0.0499896
	minimum = 0.0396667 (at node 40)
	maximum = 0.061 (at node 58)
Accepted flit rate average= 0.0498802
	minimum = 0.038 (at node 44)
	maximum = 0.0606667 (at node 52)
Injected packet length average = 1
Accepted packet length average = 1
Total in-flight flits = 116 (116 measured)
latency change    = 0.00112148
throughput change = 0.0146184
Draining all recorded packets ...
Draining remaining packets ...
Time taken is 6119 cycles
Class 0:
Packet latency average = 33.2377
	minimum = 7
	maximum = 77
Network latency average = 33.2377
	minimum = 7
	maximum = 77
Slowest packet = 1924618
Flit latency average = 33.2377
	minimum = 7
	maximum = 77
Slowest flit = 1924618
Fragmentation average = 0
	minimum = 0
	maximum = 0
Injected packet rate average = 0.0505156
	minimum = 0.04 (at node 4)
	maximum = 0.066 (at node 13)
Accepted packet rate average = 0.0491094
	minimum = 0.035 (at node 54)
	maximum = 0.071 (at node 19)
Injected flit rate average = 0.0505156
	minimum = 0.04 (at node 4)
	maximum = 0.066 (at node 13)
Accepted flit rate average= 0.0491094
	minimum = 0.035 (at node 54)
	maximum = 0.071 (at node 19)
Injected packet length average = 1
Accepted packet length average = 1
Total in-flight flits = 90 (0 measured)
latency change    = 1
throughput change = 1
Class 0:
Packet latency average = 33.2377
	minimum = 7
	maximum = 78
Network latency average = 33.2376
	minimum = 7
	maximum = 78
Slowest packet = 1929209
Flit latency average = 33.2376
	minimum = 7
	maximum = 78
Slowest flit = 1929209
Fragmentation average = 0
	minimum = 0
	maximum = 0
Injected packet rate average = 0.0507578
	minimum = 0.0405 (at node 41)
	maximum = 0.061 (at node 43)
Accepted packet rate average = 0.0497891
	minimum = 0.04 (at node 45)
	maximum = 0.063 (at node 19)
Injected flit rate average = 0.0507578
	minimum = 0.0405 (at node 41)
	maximum = 0.061 (at node 43)
Accepted flit rate average= 0.0497891
	minimum = 0.04 (at node 45)
	maximum = 0.063 (at node 19)
Injected packet length average = 1
Accepted packet length average = 1
Total in-flight flits = 124 (0 measured)
latency change    = 1.52306e-06
throughput change = 0.0136513
Class 0:
Packet latency average = 33.1598
	minimum = 7
	maximum = 77
Network latency average = 33.1598
	minimum = 7
	maximum = 77
Slowest packet = 1932840
Flit latency average = 33.1598
	minimum = 7
	maximum = 77
Slowest flit = 1932840
Fragmentation average = 0
	minimum = 0
	maximum = 0
Injected packet rate average = 0.0494375
	minimum = 0.035 (at node 46)
	maximum = 0.062 (at node 58)
Accepted packet rate average = 0.0500625
	minimum = 0.031 (at node 60)
	maximum = 0.075 (at node 14)
Injected flit rate average = 0.0494375
	minimum = 0.035 (at node 46)
	maximum = 0.062 (at node 58)
Accepted flit rate average= 0.0500625
	minimum = 0.031 (at node 60)
	maximum = 0.075 (at node 14)
Injected packet length average = 1
Accepted packet length average = 1
Total in-flight flits = 84 (0 measured)
latency change    = 0.00234988
throughput change = 0.00546192
Warmed up ...Time used is 3000 cycles
Class 0:
Packet latency average = 33.6003
	minimum = 7
	maximum = 78
Network latency average = 33.6003
	minimum = 7
	maximum = 78
Slowest packet = 1934898
Flit latency average = 33.7194
	minimum = 7
	maximum = 78
Slowest flit = 1934898
Fragmentation average = 0
	minimum = 0
	maximum = 0
Injected packet rate average = 0.0496094
	minimum = 0.035 (at node 18)
	maximum = 0.069 (at node 56)
Accepted packet rate average = 0.0493906
	minimum = 0.037 (at node 30)
	maximum = 0.065 (at node 56)
Injected flit rate average = 0.0496094
	minimum = 0.035 (at node 18)
	maximum = 0.069 (at node 56)
Accepted flit rate average= 0.0493906
	minimum = 0.037 (at node 30)
	maximum = 0.065 (at node 56)
Injected packet length average = 1
Accepted packet length average = 1
Total in-flight flits = 98 (98 measured)
latency change    = 0.0131088
throughput change = 0.0136033
Class 0:
Packet latency average = 33.3911
	minimum = 7
	maximum = 78
Network latency average = 33.3911
	minimum = 7
	maximum = 78
Slowest packet = 1934898
Flit latency average = 33.4538
	minimum = 7
	maximum = 78
Slowest flit = 1934898
Fragmentation average = 0
	minimum = 0
	maximum = 0
Injected packet rate average = 0.0493984
	minimum = 0.039 (at node 6)
	maximum = 0.059 (at node 8)
Accepted packet rate average = 0.0491719
	minimum = 0.0355 (at node 48)
	maximum = 0.0595 (at node 6)
Injected flit rate average = 0.0493984
	minimum = 0.039 (at node 6)
	maximum = 0.059 (at node 8)
Accepted flit rate average= 0.0491719
	minimum = 0.0355 (at node 48)
	maximum = 0.0595 (at node 6)
Injected packet length average = 1
Accepted packet length average = 1
Total in-flight flits = 113 (113 measured)
latency change    = 0.00626264
throughput change = 0.00444868
Class 0:
Packet latency average = 33.4893
	minimum = 7
	maximum = 81
Network latency average = 33.4893
	minimum = 7
	maximum = 81
Slowest packet = 1942917
Flit latency average = 33.5299
	minimum = 7
	maximum = 81
Slowest flit = 1942917
Fragmentation average = 0
	minimum = 0
	maximum = 0
Injected packet rate average = 0.0497656
	minimum = 0.041 (at node 6)
	maximum = 0.058 (at node 39)
Accepted packet rate average = 0.0495781
	minimum = 0.0403333 (at node 48)
	maximum = 0.059 (at node 56)
Injected flit rate average = 0.0497656
	minimum = 0.041 (at node 6)
	maximum = 0.058 (at node 39)
Accepted flit rate average= 0.0495781
	minimum = 0.0403333 (at node 48)
	maximum = 0.059 (at node 56)
Injected packet length average = 1
Accepted packet length average = 1
Total in-flight flits = 120 (120 measured)
latency change    = 0.00293242
throughput change = 0.00819414
Draining all recorded packets ...
Draining remaining packets ...
Time taken is 6142 cycles
Class 0:
Packet latency average = 33.5542
	minimum = 7
	maximum = 81
Network latency average = 33.5542
	minimum = 7
	maximum = 81
Slowest packet = 1943995
Flit latency average = 33.5542
	minimum = 7
	maximum = 81
Slowest flit = 1943995
Fragmentation average = 0
	minimum = 0
	maximum = 0
Injected packet rate average = 0.0489687
	minimum = 0.034 (at node 59)
	maximum = 0.069 (at node 48)
Accepted packet rate average = 0.0474219
	minimum = 0.034 (at node 63)
	maximum = 0.066 (at node 50)
Injected flit rate average = 0.0489687
	minimum = 0.034 (at node 59)
	maximum = 0.069 (at node 48)
Accepted flit rate average= 0.0474219
	minimum = 0.034 (at node 63)
	maximum = 0.066 (at node 50)
Injected packet length average = 1
Accepted packet length average = 1
Total in-flight flits = 99 (0 measured)
latency change    = 1
throughput change = 1
Class 0:
Packet latency average = 33.6353
	minimum = 7
	maximum = 81
Network latency average = 33.6353
	minimum = 7
	maximum = 81
Slowest packet = 1943995
Flit latency average = 33.6353
	minimum = 7
	maximum = 81
Slowest flit = 1943995
Fragmentation average = 0
	minimum = 0
	maximum = 0
Injected packet rate average = 0.0489609
	minimum = 0.038 (at node 51)
	maximum = 0.059 (at node 37)
Accepted packet rate average = 0.0481094
	minimum = 0.0325 (at node 14)
	maximum = 0.058 (at node 31)
Injected flit rate average = 0.0489609
	minimum = 0.038 (at node 51)
	maximum = 0.059 (at node 37)
Accepted flit rate average= 0.0481094
	minimum = 0.0325 (at node 14)
	maximum = 0.058 (at node 31)
Injected packet length average = 1
Accepted packet length average = 1
Total in-flight flits = 109 (0 measured)
latency change    = 0.00241027
throughput change = 0.0142904
Class 0:
Packet latency average = 32.727
	minimum = 7
	maximum = 77
Network latency average = 32.727
	minimum = 7
	maximum = 77
Slowest packet = 1950182
Flit latency average = 32.727
	minimum = 7
	maximum = 77
Slowest flit = 1950182
Fragmentation average = 0
	minimum = 0
	maximum = 0
Injected packet rate average = 0.0508125
	minimum = 0.034 (at node 50)
	maximum = 0.065 (at node 47)
Accepted packet rate average = 0.051
	minimum = 0.037 (at node 38)
	maximum = 0.068 (at node 11)
Injected flit rate average = 0.0508125
	minimum = 0.034 (at node 50)
	maximum = 0.065 (at node 47)
Accepted flit rate average= 0.051
	minimum = 0.037 (at node 38)
	maximum = 0.068 (at node 11)
Injected packet length average = 1
Accepted packet length average = 1
Total in-flight flits = 97 (0 measured)
latency change    = 0.0277523
throughput change = 0.0566789
Warmed up ...Time used is 3000 cycles
Class 0:
Packet latency average = 33.0858
	minimum = 7
	maximum = 79
Network latency average = 33.0858
	minimum = 7
	maximum = 79
Slowest packet = 1955253
Flit latency average = 33.2252
	minimum = 7
	maximum = 79
Slowest flit = 1955253
Fragmentation average = 0
	minimum = 0
	maximum = 0
Injected packet rate average = 0.0496875
	minimum = 0.037 (at node 57)
	maximum = 0.065 (at node 8)
Accepted packet rate average = 0.0493906
	minimum = 0.033 (at node 22)
	maximum = 0.071 (at node 49)
Injected flit rate average = 0.0496875
	minimum = 0.037 (at node 57)
	maximum = 0.065 (at node 8)
Accepted flit rate average= 0.0493906
	minimum = 0.033 (at node 22)
	maximum = 0.071 (at node 49)
Injected packet length average = 1
Accepted packet length average = 1
Total in-flight flits = 116 (116 measured)
latency change    = 0.0108449
throughput change = 0.0325846
Class 0:
Packet latency average = 33.1979
	minimum = 7
	maximum = 79
Network latency average = 33.1979
	minimum = 7
	maximum = 79
Slowest packet = 1955253
Flit latency average = 33.2657
	minimum = 7
	maximum = 79
Slowest flit = 1955253
Fragmentation average = 0
	minimum = 0
	maximum = 0
Injected packet rate average = 0.0495469
	minimum = 0.0415 (at node 33)
	maximum = 0.0595 (at node 8)
Accepted packet rate average = 0.0494844
	minimum = 0.0405 (at node 60)
	maximum = 0.0645 (at node 49)
Injected flit rate average = 0.0495469
	minimum = 0.0415 (at node 33)
	maximum = 0.0595 (at node 8)
Accepted flit rate average= 0.0494844
	minimum = 0.0405 (at node 60)
	maximum = 0.0645 (at node 49)
Injected packet length average = 1
Accepted packet length average = 1
Total in-flight flits = 105 (105 measured)
latency change    = 0.00337419
throughput change = 0.00189454
Class 0:
Packet latency average = 33.2452
	minimum = 7
	maximum = 79
Network latency average = 33.2452
	minimum = 7
	maximum = 79
Slowest packet = 1955253
Flit latency average = 33.2899
	minimum = 7
	maximum = 79
Slowest flit = 1955253
Fragmentation average = 0
	minimum = 0
	maximum = 0
Injected packet rate average = 0.0496458
	minimum = 0.0406667 (at node 33)
	maximum = 0.0606667 (at node 8)
Accepted packet rate average = 0.0496094
	minimum = 0.0403333 (at node 60)
	maximum = 0.0593333 (at node 21)
Injected flit rate average = 0.0496458
	minimum = 0.0406667 (at node 33)
	maximum = 0.0606667 (at node 8)
Accepted flit rate average= 0.0496094
	minimum = 0.0403333 (at node 60)
	maximum = 0.0593333 (at node 21)
Injected packet length average = 1
Accepted packet length average = 1
Total in-flight flits = 104 (104 measured)
latency change    = 0.00142503
throughput change = 0.00251969
Draining all recorded packets ...
Draining remaining packets ...
Time taken is 6118 cycles
====== Overall Traffic Statistics ======
====== Traffic class 0 ======
Packet latency average = 33.4229 (100 samples)
	minimum = 7 (100 samples)
	maximum = 79.3 (100 samples)
Network latency average = 33.4229 (100 samples)
	minimum = 7 (100 samples)
	maximum = 79.3 (100 samples)
Flit latency average = 33.4797 (100 samples)
	minimum = 7 (100 samples)
	maximum = 79.32 (100 samples)
Fragmentation average = 0 (100 samples)
	minimum = 0 (100 samples)
	maximum = 0 (100 samples)
Injected packet rate average = 0.0500136 (100 samples)
	minimum = 0.0407767 (100 samples)
	maximum = 0.0596317 (100 samples)
Accepted packet rate average = 0.0500142 (100 samples)
	minimum = 0.0405925 (100 samples)
	maximum = 0.0594917 (100 samples)
Injected flit rate average = 0.0500136 (100 samples)
	minimum = 0.0407767 (100 samples)
	maximum = 0.0596317 (100 samples)
Accepted flit rate average = 0.0500142 (100 samples)
	minimum = 0.0405925 (100 samples)
	maximum = 0.0594917 (100 samples)
Injected packet size average = 1 (100 samples)
Accepted packet size average = 1 (100 samples)
Hops average = 6.24778 (100 samples)
Total run time 117.207
