BEGIN Configuration File: /tmp/tmp1ive45pj.cfg
topology = mesh;
k = 4;
n = 2;
routing_function = gnn_port_score_route_4x4;
num_vcs = 4;
vc_buf_size = 4;
wait_for_tail_credit = 1;
vc_allocator = islip;
sw_allocator = islip;
alloc_iters = 1;
credit_delay = 2;
routing_delay = 1;
vc_alloc_delay = 1;
sw_alloc_delay = 1;
input_speedup = 2;
output_speedup = 1;
internal_speedup = 1.0;
traffic = transpose;
packet_size = 1;
sim_type = latency;
injection_rate = 0.02;
warmup_periods = 3;
sample_period = 1000;
sim_count = 100;
seed = 0;

END Configuration File: /tmp/tmp1ive45pj.cfg
Class 0:
Packet latency average = 20.2351
	minimum = 7
	maximum = 37
Network latency average = 20.2351
	minimum = 7
	maximum = 37
Slowest packet = 3
Flit latency average = 20.2351
	minimum = 7
	maximum = 37
Slowest flit = 3
Fragmentation average = 0
	minimum = 0
	maximum = 0
Injected packet rate average = 0.0203125
	minimum = 0.015 (at node 2)
	maximum = 0.029 (at node 12)
Accepted packet rate average = 0.0199375
	minimum = 0.013 (at node 8)
	maximum = 0.028 (at node 3)
Injected flit rate average = 0.0203125
	minimum = 0.015 (at node 2)
	maximum = 0.029 (at node 12)
Accepted flit rate average= 0.0199375
	minimum = 0.013 (at node 8)
	maximum = 0.028 (at node 3)
Injected packet length average = 1
Accepted packet length average = 1
Total in-flight flits = 6 (0 measured)
latency change    = 1
throughput change = 1
Class 0:
Packet latency average = 20.4848
	minimum = 7
	maximum = 40
Network latency average = 20.4848
	minimum = 7
	maximum = 40
Slowest packet = 474
Flit latency average = 20.4848
	minimum = 7
	maximum = 40
Slowest flit = 474
Fragmentation average = 0
	minimum = 0
	maximum = 0
Injected packet rate average = 0.0195938
	minimum = 0.015 (at node 5)
	maximum = 0.0255 (at node 3)
Accepted packet rate average = 0.0194687
	minimum = 0.015 (at node 5)
	maximum = 0.0255 (at node 12)
Injected flit rate average = 0.0195938
	minimum = 0.015 (at node 5)
	maximum = 0.0255 (at node 3)
Accepted flit rate average= 0.0194687
	minimum = 0.015 (at node 5)
	maximum = 0.0255 (at node 12)
Injected packet length average = 1
Accepted packet length average = 1
Total in-flight flits = 4 (0 measured)
latency change    = 0.0121867
throughput change = 0.024077
Class 0:
Packet latency average = 19.4761
	minimum = 7
	maximum = 43
Network latency average = 19.4761
	minimum = 7
	maximum = 43
Slowest packet = 690
Flit latency average = 19.4761
	minimum = 7
	maximum = 43
Slowest flit = 690
Fragmentation average = 0
	minimum = 0
	maximum = 0
Injected packet rate average = 0.0225
	minimum = 0.016 (at node 0)
	maximum = 0.031 (at node 11)
Accepted packet rate average = 0.0221875
	minimum = 0.015 (at node 13)
	maximum = 0.032 (at node 14)
Injected flit rate average = 0.0225
	minimum = 0.016 (at node 0)
	maximum = 0.031 (at node 11)
Accepted flit rate average= 0.0221875
	minimum = 0.015 (at node 13)
	maximum = 0.032 (at node 14)
Injected packet length average = 1
Accepted packet length average = 1
Total in-flight flits = 9 (0 measured)
latency change    = 0.0517915
throughput change = 0.122535
Warmed up ...Time used is 3000 cycles
Class 0:
Packet latency average = 19.0033
	minimum = 7
	maximum = 37
Network latency average = 19.0033
	minimum = 7
	maximum = 37
Slowest packet = 995
Flit latency average = 19.2013
	minimum = 7
	maximum = 37
Slowest flit = 985
Fragmentation average = 0
	minimum = 0
	maximum = 0
Injected packet rate average = 0.019375
	minimum = 0.011 (at node 1)
	maximum = 0.029 (at node 10)
Accepted packet rate average = 0.0195625
	minimum = 0.01 (at node 11)
	maximum = 0.027 (at node 10)
Injected flit rate average = 0.019375
	minimum = 0.011 (at node 1)
	maximum = 0.029 (at node 10)
Accepted flit rate average= 0.0195625
	minimum = 0.01 (at node 11)
	maximum = 0.027 (at node 10)
Injected packet length average = 1
Accepted packet length average = 1
Total in-flight flits = 6 (6 measured)
latency change    = 0.0248782
throughput change = 0.134185
Class 0:
Packet latency average = 18.8544
	minimum = 7
	maximum = 37
Network latency average = 18.8544
	minimum = 7
	maximum = 37
Slowest packet = 995
Flit latency average = 18.9553
	minimum = 7
	maximum = 37
Slowest flit = 985
Fragmentation average = 0
	minimum = 0
	maximum = 0
Injected packet rate average = 0.0194062
	minimum = 0.014 (at node 14)
	maximum = 0.026 (at node 10)
Accepted packet rate average = 0.0195938
	minimum = 0.014 (at node 11)
	maximum = 0.026 (at node 10)
Injected flit rate average = 0.0194062
	minimum = 0.014 (at node 14)
	maximum = 0.026 (at node 10)
Accepted flit rate average= 0.0195938
	minimum = 0.014 (at node 11)
	maximum = 0.026 (at node 10)
Injected packet length average = 1
Accepted packet length average = 1
Total in-flight flits = 3 (3 measured)
latency change    = 0.00789846
throughput change = 0.0015949
Class 0:
Packet latency average = 18.9827
	minimum = 7
	maximum = 40
Network latency average = 18.9827
	minimum = 7
	maximum = 40
Slowest packet = 1798
Flit latency average = 19.0492
	minimum = 7
	maximum = 40
Slowest flit = 1798
Fragmentation average = 0
	minimum = 0
	maximum = 0
Injected packet rate average = 0.0194375
	minimum = 0.0143333 (at node 14)
	maximum = 0.0263333 (at node 15)
Accepted packet rate average = 0.0194792
	minimum = 0.014 (at node 11)
	maximum = 0.0263333 (at node 15)
Injected flit rate average = 0.0194375
	minimum = 0.0143333 (at node 14)
	maximum = 0.0263333 (at node 15)
Accepted flit rate average= 0.0194792
	minimum = 0.014 (at node 11)
	maximum = 0.0263333 (at node 15)
Injected packet length average = 1
Accepted packet length average = 1
Total in-flight flits = 7 (7 measured)
latency change    = 0.00676154
throughput change = 0.00588235
Class 0:
Packet latency average = 19.179
	minimum = 7
	maximum = 45
Network latency average = 19.179
	minimum = 7
	maximum = 45
Slowest packet = 2099
Flit latency average = 19.2271
	minimum = 7
	maximum = 45
Slowest flit = 2099
Fragmentation average = 0
	minimum = 0
	maximum = 0
Injected packet rate average = 0.0195312
	minimum = 0.0155 (at node 14)
	maximum = 0.0245 (at node 15)
Accepted packet rate average = 0.0196094
	minimum = 0.0155 (at node 11)
	maximum = 0.0245 (at node 15)
Injected flit rate average = 0.0195312
	minimum = 0.0155 (at node 14)
	maximum = 0.0245 (at node 15)
Accepted flit rate average= 0.0196094
	minimum = 0.0155 (at node 11)
	maximum = 0.0245 (at node 15)
Injected packet length average = 1
Accepted packet length average = 1
Total in-flight flits = 4 (4 measured)
latency change    = 0.0102326
throughput change = 0.00664011
Draining all recorded packets ...
Draining remaining packets ...
Time taken is 7066 cycles
Class 0:
Packet latency average = 19.9138
	minimum = 7
	maximum = 37
Network latency average = 19.9138
	minimum = 7
	maximum = 37
Slowest packet = 2262
Flit latency average = 19.9138
	minimum = 7
	maximum = 37
Slowest flit = 2262
Fragmentation average = 0
	minimum = 0
	maximum = 0
Injected packet rate average = 0.0208125
	minimum = 0.015 (at node 9)
	maximum = 0.03 (at node 1)
Accepted packet rate average = 0.0203125
	minimum = 0.015 (at node 6)
	maximum = 0.029 (at node 4)
Injected flit rate average = 0.0208125
	minimum = 0.015 (at node 9)
	maximum = 0.03 (at node 1)
Accepted flit rate average= 0.0203125
	minimum = 0.015 (at node 6)
	maximum = 0.029 (at node 4)
Injected packet length average = 1
Accepted packet length average = 1
Total in-flight flits = 8 (0 measured)
latency change    = 1
throughput change = 1
Class 0:
Packet latency average = 19.6833
	minimum = 7
	maximum = 38
Network latency average = 19.6833
	minimum = 7
	maximum = 38
Slowest packet = 2646
Flit latency average = 19.6833
	minimum = 7
	maximum = 38
Slowest flit = 2646
Fragmentation average = 0
	minimum = 0
	maximum = 0
Injected packet rate average = 0.0208438
	minimum = 0.016 (at node 15)
	maximum = 0.03 (at node 1)
Accepted packet rate average = 0.020625
	minimum = 0.016 (at node 2)
	maximum = 0.03 (at node 4)
Injected flit rate average = 0.0208438
	minimum = 0.016 (at node 15)
	maximum = 0.03 (at node 1)
Accepted flit rate average= 0.020625
	minimum = 0.016 (at node 2)
	maximum = 0.03 (at node 4)
Injected packet length average = 1
Accepted packet length average = 1
Total in-flight flits = 7 (0 measured)
latency change    = 0.0117111
throughput change = 0.0151515
Class 0:
Packet latency average = 19.6424
	minimum = 7
	maximum = 37
Network latency average = 19.6424
	minimum = 7
	maximum = 37
Slowest packet = 2905
Flit latency average = 19.6424
	minimum = 7
	maximum = 37
Slowest flit = 2905
Fragmentation average = 0
	minimum = 0
	maximum = 0
Injected packet rate average = 0.0188125
	minimum = 0.012 (at node 4)
	maximum = 0.028 (at node 10)
Accepted packet rate average = 0.018875
	minimum = 0.012 (at node 1)
	maximum = 0.028 (at node 10)
Injected flit rate average = 0.0188125
	minimum = 0.012 (at node 4)
	maximum = 0.028 (at node 10)
Accepted flit rate average= 0.018875
	minimum = 0.012 (at node 1)
	maximum = 0.028 (at node 10)
Injected packet length average = 1
Accepted packet length average = 1
Total in-flight flits = 6 (0 measured)
latency change    = 0.00208474
throughput change = 0.0927152
Warmed up ...Time used is 3000 cycles
Class 0:
Packet latency average = 19.4359
	minimum = 7
	maximum = 38
Network latency average = 19.4359
	minimum = 7
	maximum = 38
Slowest packet = 3281
Flit latency average = 19.5786
	minimum = 7
	maximum = 38
Slowest flit = 3281
Fragmentation average = 0
	minimum = 0
	maximum = 0
Injected packet rate average = 0.0196875
	minimum = 0.012 (at node 2)
	maximum = 0.03 (at node 11)
Accepted packet rate average = 0.019875
	minimum = 0.012 (at node 10)
	maximum = 0.03 (at node 14)
Injected flit rate average = 0.0196875
	minimum = 0.012 (at node 2)
	maximum = 0.03 (at node 11)
Accepted flit rate average= 0.019875
	minimum = 0.012 (at node 10)
	maximum = 0.03 (at node 14)
Injected packet length average = 1
Accepted packet length average = 1
Total in-flight flits = 3 (3 measured)
latency change    = 0.010624
throughput change = 0.0503145
Class 0:
Packet latency average = 19.5016
	minimum = 7
	maximum = 38
Network latency average = 19.5016
	minimum = 7
	maximum = 38
Slowest packet = 3281
Flit latency average = 19.5712
	minimum = 7
	maximum = 38
Slowest flit = 3281
Fragmentation average = 0
	minimum = 0
	maximum = 0
Injected packet rate average = 0.0202813
	minimum = 0.015 (at node 14)
	maximum = 0.0285 (at node 12)
Accepted packet rate average = 0.0201875
	minimum = 0.015 (at node 11)
	maximum = 0.028 (at node 3)
Injected flit rate average = 0.0202813
	minimum = 0.015 (at node 14)
	maximum = 0.0285 (at node 12)
Accepted flit rate average= 0.0201875
	minimum = 0.015 (at node 11)
	maximum = 0.028 (at node 3)
Injected packet length average = 1
Accepted packet length average = 1
Total in-flight flits = 9 (9 measured)
latency change    = 0.00336717
throughput change = 0.0154799
Class 0:
Packet latency average = 19.5088
	minimum = 7
	maximum = 40
Network latency average = 19.5088
	minimum = 7
	maximum = 40
Slowest packet = 3854
Flit latency average = 19.5549
	minimum = 7
	maximum = 40
Slowest flit = 3854
Fragmentation average = 0
	minimum = 0
	maximum = 0
Injected packet rate average = 0.0203542
	minimum = 0.0146667 (at node 14)
	maximum = 0.0253333 (at node 11)
Accepted packet rate average = 0.0203125
	minimum = 0.0146667 (at node 11)
	maximum = 0.025 (at node 14)
Injected flit rate average = 0.0203542
	minimum = 0.0146667 (at node 14)
	maximum = 0.0253333 (at node 11)
Accepted flit rate average= 0.0203125
	minimum = 0.0146667 (at node 11)
	maximum = 0.025 (at node 14)
Injected packet length average = 1
Accepted packet length average = 1
Total in-flight flits = 8 (8 measured)
latency change    = 0.000369548
throughput change = 0.00615385
Class 0:
Packet latency average = 19.3897
	minimum = 7
	maximum = 40
Network latency average = 19.3897
	minimum = 7
	maximum = 40
Slowest packet = 3854
Flit latency average = 19.4245
	minimum = 7
	maximum = 40
Slowest flit = 3854
Fragmentation average = 0
	minimum = 0
	maximum = 0
Injected packet rate average = 0.0204844
	minimum = 0.01525 (at node 3)
	maximum = 0.02425 (at node 6)
Accepted packet rate average = 0.0205
	minimum = 0.01525 (at node 12)
	maximum = 0.0245 (at node 3)
Injected flit rate average = 0.0204844
	minimum = 0.01525 (at node 3)
	maximum = 0.02425 (at node 6)
Accepted flit rate average= 0.0205
	minimum = 0.01525 (at node 12)
	maximum = 0.0245 (at node 3)
Injected packet length average = 1
Accepted packet length average = 1
Total in-flight flits = 5 (5 measured)
latency change    = 0.00613893
throughput change = 0.00914634
Draining all recorded packets ...
Draining remaining packets ...
Time taken is 7043 cycles
Class 0:
Packet latency average = 19.2928
	minimum = 7
	maximum = 38
Network latency average = 19.2928
	minimum = 7
	maximum = 38
Slowest packet = 4688
Flit latency average = 19.2928
	minimum = 7
	maximum = 38
Slowest flit = 4688
Fragmentation average = 0
	minimum = 0
	maximum = 0
Injected packet rate average = 0.019375
	minimum = 0.015 (at node 0)
	maximum = 0.026 (at node 11)
Accepted packet rate average = 0.019
	minimum = 0.015 (at node 0)
	maximum = 0.026 (at node 14)
Injected flit rate average = 0.019375
	minimum = 0.015 (at node 0)
	maximum = 0.026 (at node 11)
Accepted flit rate average= 0.019
	minimum = 0.015 (at node 0)
	maximum = 0.026 (at node 14)
Injected packet length average = 1
Accepted packet length average = 1
Total in-flight flits = 6 (0 measured)
latency change    = 1
throughput change = 1
Class 0:
Packet latency average = 19.3768
	minimum = 7
	maximum = 38
Network latency average = 19.3768
	minimum = 7
	maximum = 38
Slowest packet = 4688
Flit latency average = 19.3768
	minimum = 7
	maximum = 38
Slowest flit = 4688
Fragmentation average = 0
	minimum = 0
	maximum = 0
Injected packet rate average = 0.0196563
	minimum = 0.013 (at node 0)
	maximum = 0.025 (at node 15)
Accepted packet rate average = 0.0194062
	minimum = 0.013 (at node 0)
	maximum = 0.025 (at node 15)
Injected flit rate average = 0.0196563
	minimum = 0.013 (at node 0)
	maximum = 0.025 (at node 15)
Accepted flit rate average= 0.0194062
	minimum = 0.013 (at node 0)
	maximum = 0.025 (at node 15)
Injected packet length average = 1
Accepted packet length average = 1
Total in-flight flits = 8 (0 measured)
latency change    = 0.00433758
throughput change = 0.020934
Class 0:
Packet latency average = 19.3085
	minimum = 7
	maximum = 37
Network latency average = 19.3085
	minimum = 7
	maximum = 37
Slowest packet = 5150
Flit latency average = 19.3085
	minimum = 7
	maximum = 37
Slowest flit = 5150
Fragmentation average = 0
	minimum = 0
	maximum = 0
Injected packet rate average = 0.018625
	minimum = 0.014 (at node 2)
	maximum = 0.024 (at node 5)
Accepted packet rate average = 0.0184375
	minimum = 0.014 (at node 7)
	maximum = 0.024 (at node 5)
Injected flit rate average = 0.018625
	minimum = 0.014 (at node 2)
	maximum = 0.024 (at node 5)
Accepted flit rate average= 0.0184375
	minimum = 0.014 (at node 7)
	maximum = 0.024 (at node 5)
Injected packet length average = 1
Accepted packet length average = 1
Total in-flight flits = 11 (0 measured)
latency change    = 0.00353922
throughput change = 0.0525424
Warmed up ...Time used is 3000 cycles
Class 0:
Packet latency average = 19.7802
	minimum = 7
	maximum = 37
Network latency average = 19.7802
	minimum = 7
	maximum = 37
Slowest packet = 5467
Flit latency average = 19.993
	minimum = 7
	maximum = 37
Slowest flit = 5449
Fragmentation average = 0
	minimum = 0
	maximum = 0
Injected packet rate average = 0.01725
	minimum = 0.014 (at node 1)
	maximum = 0.025 (at node 11)
Accepted packet rate average = 0.01775
	minimum = 0.014 (at node 4)
	maximum = 0.025 (at node 14)
Injected flit rate average = 0.01725
	minimum = 0.014 (at node 1)
	maximum = 0.025 (at node 11)
Accepted flit rate average= 0.01775
	minimum = 0.014 (at node 4)
	maximum = 0.025 (at node 14)
Injected packet length average = 1
Accepted packet length average = 1
Total in-flight flits = 3 (3 measured)
latency change    = 0.0238493
throughput change = 0.0387324
Class 0:
Packet latency average = 19.4691
	minimum = 7
	maximum = 39
Network latency average = 19.4691
	minimum = 7
	maximum = 39
Slowest packet = 5888
Flit latency average = 19.5738
	minimum = 7
	maximum = 39
Slowest flit = 5888
Fragmentation average = 0
	minimum = 0
	maximum = 0
Injected packet rate average = 0.0187812
	minimum = 0.013 (at node 3)
	maximum = 0.0255 (at node 11)
Accepted packet rate average = 0.0190625
	minimum = 0.014 (at node 4)
	maximum = 0.025 (at node 14)
Injected flit rate average = 0.0187812
	minimum = 0.013 (at node 3)
	maximum = 0.0255 (at node 11)
Accepted flit rate average= 0.0190625
	minimum = 0.014 (at node 4)
	maximum = 0.025 (at node 14)
Injected packet length average = 1
Accepted packet length average = 1
Total in-flight flits = 2 (2 measured)
latency change    = 0.0159794
throughput change = 0.0688525
Class 0:
Packet latency average = 20.0129
	minimum = 7
	maximum = 45
Network latency average = 20.0129
	minimum = 7
	maximum = 45
Slowest packet = 6300
Flit latency average = 20.0745
	minimum = 7
	maximum = 45
Slowest flit = 6300
Fragmentation average = 0
	minimum = 0
	maximum = 0
Injected packet rate average = 0.0195
	minimum = 0.0153333 (at node 15)
	maximum = 0.026 (at node 11)
Accepted packet rate average = 0.0195833
	minimum = 0.0156667 (at node 15)
	maximum = 0.026 (at node 14)
Injected flit rate average = 0.0195
	minimum = 0.0153333 (at node 15)
	maximum = 0.026 (at node 11)
Accepted flit rate average= 0.0195833
	minimum = 0.0156667 (at node 15)
	maximum = 0.026 (at node 14)
Injected packet length average = 1
Accepted packet length average = 1
Total in-flight flits = 7 (7 measured)
latency change    = 0.0271725
throughput change = 0.0265957
Class 0:
Packet latency average = 19.9808
	minimum = 7
	maximum = 45
Network latency average = 19.9808
	minimum = 7
	maximum = 45
Slowest packet = 6300
Flit latency average = 20.027
	minimum = 7
	maximum = 45
Slowest flit = 6300
Fragmentation average = 0
	minimum = 0
	maximum = 0
Injected packet rate average = 0.0196094
	minimum = 0.01625 (at node 5)
	maximum = 0.025 (at node 11)
Accepted packet rate average = 0.0196719
	minimum = 0.0165 (at node 5)
	maximum = 0.025 (at node 14)
Injected flit rate average = 0.0196094
	minimum = 0.01625 (at node 5)
	maximum = 0.025 (at node 11)
Accepted flit rate average= 0.0196719
	minimum = 0.0165 (at node 5)
	maximum = 0.025 (at node 14)
Injected packet length average = 1
Accepted packet length average = 1
Total in-flight flits = 7 (7 measured)
latency change    = 0.00160894
throughput change = 0.00450093
Class 0:
Packet latency average = 19.8409
	minimum = 7
	maximum = 45
Network latency average = 19.8409
	minimum = 7
	maximum = 45
Slowest packet = 6300
Flit latency average = 19.8784
	minimum = 7
	maximum = 45
Slowest flit = 6300
Fragmentation average = 0
	minimum = 0
	maximum = 0
Injected packet rate average = 0.0198625
	minimum = 0.0174 (at node 14)
	maximum = 0.0236 (at node 11)
Accepted packet rate average = 0.0199375
	minimum = 0.0172 (at node 11)
	maximum = 0.0236 (at node 14)
Injected flit rate average = 0.0198625
	minimum = 0.0174 (at node 14)
	maximum = 0.0236 (at node 11)
Accepted flit rate average= 0.0199375
	minimum = 0.0172 (at node 11)
	maximum = 0.0236 (at node 14)
Injected packet length average = 1
Accepted packet length average = 1
Total in-flight flits = 5 (5 measured)
latency change    = 0.00704908
throughput change = 0.0133229
Draining all recorded packets ...
Draining remaining packets ...
Time taken is 8064 cycles
Class 0:
Packet latency average = 18.7449
	minimum = 7
	maximum = 37
Network latency average = 18.7449
	minimum = 7
	maximum = 37
Slowest packet = 7064
Flit latency average = 18.7449
	minimum = 7
	maximum = 37
Slowest flit = 7064
Fragmentation average = 0
	minimum = 0
	maximum = 0
Injected packet rate average = 0.01875
	minimum = 0.014 (at node 2)
	maximum = 0.025 (at node 0)
Accepted packet rate average = 0.018375
	minimum = 0.013 (at node 8)
	maximum = 0.025 (at node 0)
Injected flit rate average = 0.01875
	minimum = 0.014 (at node 2)
	maximum = 0.025 (at node 0)
Accepted flit rate average= 0.018375
	minimum = 0.013 (at node 8)
	maximum = 0.025 (at node 0)
Injected packet length average = 1
Accepted packet length average = 1
Total in-flight flits = 6 (0 measured)
latency change    = 1
throughput change = 1
Class 0:
Packet latency average = 19.1259
	minimum = 7
	maximum = 37
Network latency average = 19.1259
	minimum = 7
	maximum = 37
Slowest packet = 7064
Flit latency average = 19.1259
	minimum = 7
	maximum = 37
Slowest flit = 7064
Fragmentation average = 0
	minimum = 0
	maximum = 0
Injected packet rate average = 0.0182812
	minimum = 0.0135 (at node 1)
	maximum = 0.025 (at node 11)
Accepted packet rate average = 0.018125
	minimum = 0.0135 (at node 4)
	maximum = 0.025 (at node 14)
Injected flit rate average = 0.0182812
	minimum = 0.0135 (at node 1)
	maximum = 0.025 (at node 11)
Accepted flit rate average= 0.018125
	minimum = 0.0135 (at node 4)
	maximum = 0.025 (at node 14)
Injected packet length average = 1
Accepted packet length average = 1
Total in-flight flits = 5 (0 measured)
latency change    = 0.0199188
throughput change = 0.0137931
Class 0:
Packet latency average = 19.9599
	minimum = 7
	maximum = 41
Network latency average = 19.9599
	minimum = 7
	maximum = 41
Slowest packet = 7782
Flit latency average = 19.9599
	minimum = 7
	maximum = 41
Slowest flit = 7782
Fragmentation average = 0
	minimum = 0
	maximum = 0
Injected packet rate average = 0.0204375
	minimum = 0.015 (at node 3)
	maximum = 0.027 (at node 7)
Accepted packet rate average = 0.02025
	minimum = 0.014 (at node 12)
	maximum = 0.027 (at node 13)
Injected flit rate average = 0.0204375
	minimum = 0.015 (at node 3)
	maximum = 0.027 (at node 7)
Accepted flit rate average= 0.02025
	minimum = 0.014 (at node 12)
	maximum = 0.027 (at node 13)
Injected packet length average = 1
Accepted packet length average = 1
Total in-flight flits = 8 (0 measured)
latency change    = 0.0417846
throughput change = 0.104938
Warmed up ...Time used is 3000 cycles
Class 0:
Packet latency average = 19.8867
	minimum = 7
	maximum = 41
Network latency average = 19.8867
	minimum = 7
	maximum = 41
Slowest packet = 8265
Flit latency average = 20.1039
	minimum = 7
	maximum = 41
Slowest flit = 8265
Fragmentation average = 0
	minimum = 0
	maximum = 0
Injected packet rate average = 0.019125
	minimum = 0.009 (at node 2)
	maximum = 0.031 (at node 3)
Accepted packet rate average = 0.01925
	minimum = 0.009 (at node 8)
	maximum = 0.031 (at node 12)
Injected flit rate average = 0.019125
	minimum = 0.009 (at node 2)
	maximum = 0.031 (at node 3)
Accepted flit rate average= 0.01925
	minimum = 0.009 (at node 8)
	maximum = 0.031 (at node 12)
Injected packet length average = 1
Accepted packet length average = 1
Total in-flight flits = 6 (6 measured)
latency change    = 0.00368135
throughput change = 0.0519481
Class 0:
Packet latency average = 19.7938
	minimum = 7
	maximum = 41
Network latency average = 19.7938
	minimum = 7
	maximum = 41
Slowest packet = 8265
Flit latency average = 19.9085
	minimum = 7
	maximum = 41
Slowest flit = 8265
Fragmentation average = 0
	minimum = 0
	maximum = 0
Injected packet rate average = 0.0184375
	minimum = 0.0135 (at node 12)
	maximum = 0.0265 (at node 3)
Accepted packet rate average = 0.0184375
	minimum = 0.0145 (at node 3)
	maximum = 0.0265 (at node 12)
Injected flit rate average = 0.0184375
	minimum = 0.0135 (at node 12)
	maximum = 0.0265 (at node 3)
Accepted flit rate average= 0.0184375
	minimum = 0.0145 (at node 3)
	maximum = 0.0265 (at node 12)
Injected packet length average = 1
Accepted packet length average = 1
Total in-flight flits = 8 (8 measured)
latency change    = 0.00469097
throughput change = 0.0440678
Class 0:
Packet latency average = 19.8122
	minimum = 7
	maximum = 45
Network latency average = 19.8122
	minimum = 7
	maximum = 45
Slowest packet = 8623
Flit latency average = 19.884
	minimum = 7
	maximum = 45
Slowest flit = 8623
Fragmentation average = 0
	minimum = 0
	maximum = 0
Injected packet rate average = 0.0195625
	minimum = 0.016 (at node 15)
	maximum = 0.0253333 (at node 3)
Accepted packet rate average = 0.0195833
	minimum = 0.016 (at node 8)
	maximum = 0.0256667 (at node 12)
Injected flit rate average = 0.0195625
	minimum = 0.016 (at node 15)
	maximum = 0.0253333 (at node 3)
Accepted flit rate average= 0.0195833
	minimum = 0.016 (at node 8)
	maximum = 0.0256667 (at node 12)
Injected packet length average = 1
Accepted packet length average = 1
Total in-flight flits = 7 (7 measured)
latency change    = 0.000929594
throughput change = 0.0585106
Class 0:
Packet latency average = 19.5558
	minimum = 7
	maximum = 45
Network latency average = 19.5558
	minimum = 7
	maximum = 45
Slowest packet = 8623
Flit latency average = 19.6105
	minimum = 7
	maximum = 45
Slowest flit = 8623
Fragmentation average = 0
	minimum = 0
	maximum = 0
Injected packet rate average = 0.0197969
	minimum = 0.015 (at node 2)
	maximum = 0.02525 (at node 10)
Accepted packet rate average = 0.0198594
	minimum = 0.01475 (at node 8)
	maximum = 0.02525 (at node 10)
Injected flit rate average = 0.0197969
	minimum = 0.015 (at node 2)
	maximum = 0.02525 (at node 10)
Accepted flit rate average= 0.0198594
	minimum = 0.01475 (at node 8)
	maximum = 0.02525 (at node 10)
Injected packet length average = 1
Accepted packet length average = 1
Total in-flight flits = 4 (4 measured)
latency change    = 0.0131118
throughput change = 0.0138998
Class 0:
Packet latency average = 19.6289
	minimum = 7
	maximum = 45
Network latency average = 19.6289
	minimum = 7
	maximum = 45
Slowest packet = 8623
Flit latency average = 19.6726
	minimum = 7
	maximum = 45
Slowest flit = 8623
Fragmentation average = 0
	minimum = 0
	maximum = 0
Injected packet rate average = 0.0197125
	minimum = 0.0156 (at node 2)
	maximum = 0.024 (at node 10)
Accepted packet rate average = 0.0197375
	minimum = 0.0156 (at node 8)
	maximum = 0.024 (at node 10)
Injected flit rate average = 0.0197125
	minimum = 0.0156 (at node 2)
	maximum = 0.024 (at node 10)
Accepted flit rate average= 0.0197375
	minimum = 0.0156 (at node 8)
	maximum = 0.024 (at node 10)
Injected packet length average = 1
Accepted packet length average = 1
Total in-flight flits = 6 (6 measured)
latency change    = 0.00372305
throughput change = 0.00617479
Class 0:
Packet latency average = 19.4818
	minimum = 7
	maximum = 46
Network latency average = 19.4818
	minimum = 7
	maximum = 46
Slowest packet = 9551
Flit latency average = 19.5187
	minimum = 7
	maximum = 46
Slowest flit = 9551
Fragmentation average = 0
	minimum = 0
	maximum = 0
Injected packet rate average = 0.0198021
	minimum = 0.0165 (at node 9)
	maximum = 0.0235 (at node 10)
Accepted packet rate average = 0.0198021
	minimum = 0.0165 (at node 6)
	maximum = 0.0233333 (at node 10)
Injected flit rate average = 0.0198021
	minimum = 0.0165 (at node 9)
	maximum = 0.0235 (at node 10)
Accepted flit rate average= 0.0198021
	minimum = 0.0165 (at node 6)
	maximum = 0.0233333 (at node 10)
Injected packet length average = 1
Accepted packet length average = 1
Total in-flight flits = 8 (8 measured)
latency change    = 0.00755187
throughput change = 0.00326144
Draining all recorded packets ...
Draining remaining packets ...
Time taken is 9052 cycles
Class 0:
Packet latency average = 19.4226
	minimum = 7
	maximum = 39
Network latency average = 19.4226
	minimum = 7
	maximum = 39
Slowest packet = 9975
Flit latency average = 19.4226
	minimum = 7
	maximum = 39
Slowest flit = 9975
Fragmentation average = 0
	minimum = 0
	maximum = 0
Injected packet rate average = 0.021625
	minimum = 0.015 (at node 11)
	maximum = 0.029 (at node 6)
Accepted packet rate average = 0.021
	minimum = 0.015 (at node 14)
	maximum = 0.027 (at node 9)
Injected flit rate average = 0.021625
	minimum = 0.015 (at node 11)
	maximum = 0.029 (at node 6)
Accepted flit rate average= 0.021
	minimum = 0.015 (at node 14)
	maximum = 0.027 (at node 9)
Injected packet length average = 1
Accepted packet length average = 1
Total in-flight flits = 10 (0 measured)
latency change    = 1
throughput change = 1
Class 0:
Packet latency average = 19.4709
	minimum = 7
	maximum = 39
Network latency average = 19.4709
	minimum = 7
	maximum = 39
Slowest packet = 9975
Flit latency average = 19.4709
	minimum = 7
	maximum = 39
Slowest flit = 9975
Fragmentation average = 0
	minimum = 0
	maximum = 0
Injected packet rate average = 0.0202188
	minimum = 0.017 (at node 4)
	maximum = 0.0245 (at node 13)
Accepted packet rate average = 0.0198438
	minimum = 0.017 (at node 1)
	maximum = 0.0235 (at node 10)
Injected flit rate average = 0.0202188
	minimum = 0.017 (at node 4)
	maximum = 0.0245 (at node 13)
Accepted flit rate average= 0.0198438
	minimum = 0.017 (at node 1)
	maximum = 0.0235 (at node 10)
Injected packet length average = 1
Accepted packet length average = 1
Total in-flight flits = 12 (0 measured)
latency change    = 0.00247791
throughput change = 0.0582677
Class 0:
Packet latency average = 20.2831
	minimum = 7
	maximum = 47
Network latency average = 20.2831
	minimum = 7
	maximum = 47
Slowest packet = 10734
Flit latency average = 20.2831
	minimum = 7
	maximum = 47
Slowest flit = 10734
Fragmentation average = 0
	minimum = 0
	maximum = 0
Injected packet rate average = 0.0198125
	minimum = 0.013 (at node 4)
	maximum = 0.025 (at node 12)
Accepted packet rate average = 0.0203125
	minimum = 0.013 (at node 1)
	maximum = 0.025 (at node 3)
Injected flit rate average = 0.0198125
	minimum = 0.013 (at node 4)
	maximum = 0.025 (at node 12)
Accepted flit rate average= 0.0203125
	minimum = 0.013 (at node 1)
	maximum = 0.025 (at node 3)
Injected packet length average = 1
Accepted packet length average = 1
Total in-flight flits = 4 (0 measured)
latency change    = 0.0400438
throughput change = 0.0230769
Warmed up ...Time used is 3000 cycles
Class 0:
Packet latency average = 19.7148
	minimum = 7
	maximum = 38
Network latency average = 19.7148
	minimum = 7
	maximum = 38
Slowest packet = 10900
Flit latency average = 19.8414
	minimum = 7
	maximum = 38
Slowest flit = 10900
Fragmentation average = 0
	minimum = 0
	maximum = 0
Injected packet rate average = 0.0195625
	minimum = 0.012 (at node 0)
	maximum = 0.031 (at node 12)
Accepted packet rate average = 0.0193125
	minimum = 0.012 (at node 0)
	maximum = 0.029 (at node 3)
Injected flit rate average = 0.0195625
	minimum = 0.012 (at node 0)
	maximum = 0.031 (at node 12)
Accepted flit rate average= 0.0193125
	minimum = 0.012 (at node 0)
	maximum = 0.029 (at node 3)
Injected packet length average = 1
Accepted packet length average = 1
Total in-flight flits = 8 (8 measured)
latency change    = 0.0288273
throughput change = 0.0517799
Class 0:
Packet latency average = 19.7592
	minimum = 7
	maximum = 41
Network latency average = 19.7592
	minimum = 7
	maximum = 41
Slowest packet = 11384
Flit latency average = 19.8209
	minimum = 7
	maximum = 41
Slowest flit = 11384
Fragmentation average = 0
	minimum = 0
	maximum = 0
Injected packet rate average = 0.0198125
	minimum = 0.012 (at node 0)
	maximum = 0.025 (at node 12)
Accepted packet rate average = 0.0197188
	minimum = 0.012 (at node 0)
	maximum = 0.0255 (at node 3)
Injected flit rate average = 0.0198125
	minimum = 0.012 (at node 0)
	maximum = 0.025 (at node 12)
Accepted flit rate average= 0.0197188
	minimum = 0.012 (at node 0)
	maximum = 0.0255 (at node 3)
Injected packet length average = 1
Accepted packet length average = 1
Total in-flight flits = 7 (7 measured)
latency change    = 0.0022479
throughput change = 0.0206022
Class 0:
Packet latency average = 19.8763
	minimum = 7
	maximum = 41
Network latency average = 19.8763
	minimum = 7
	maximum = 41
Slowest packet = 11384
Flit latency average = 19.9168
	minimum = 7
	maximum = 41
Slowest flit = 11384
Fragmentation average = 0
	minimum = 0
	maximum = 0
Injected packet rate average = 0.0199167
	minimum = 0.0146667 (at node 0)
	maximum = 0.0246667 (at node 13)
Accepted packet rate average = 0.0197917
	minimum = 0.0143333 (at node 0)
	maximum = 0.0246667 (at node 7)
Injected flit rate average = 0.0199167
	minimum = 0.0146667 (at node 0)
	maximum = 0.0246667 (at node 13)
Accepted flit rate average= 0.0197917
	minimum = 0.0143333 (at node 0)
	maximum = 0.0246667 (at node 7)
Injected packet length average = 1
Accepted packet length average = 1
Total in-flight flits = 10 (10 measured)
latency change    = 0.00589398
throughput change = 0.00368421
Class 0:
Packet latency average = 19.7377
	minimum = 7
	maximum = 41
Network latency average = 19.7377
	minimum = 7
	maximum = 41
Slowest packet = 11384
Flit latency average = 19.7676
	minimum = 7
	maximum = 41
Slowest flit = 11384
Fragmentation average = 0
	minimum = 0
	maximum = 0
Injected packet rate average = 0.0204375
	minimum = 0.01675 (at node 11)
	maximum = 0.02425 (at node 12)
Accepted packet rate average = 0.0204375
	minimum = 0.0165 (at node 14)
	maximum = 0.0245 (at node 3)
Injected flit rate average = 0.0204375
	minimum = 0.01675 (at node 11)
	maximum = 0.02425 (at node 12)
Accepted flit rate average= 0.0204375
	minimum = 0.0165 (at node 14)
	maximum = 0.0245 (at node 3)
Injected packet length average = 1
Accepted packet length average = 1
Total in-flight flits = 4 (4 measured)
latency change    = 0.00702164
throughput change = 0.0316004
Draining all recorded packets ...
Draining remaining packets ...
Time taken is 7047 cycles
Class 0:
Packet latency average = 19.4702
	minimum = 7
	maximum = 38
Network latency average = 19.4702
	minimum = 7
	maximum = 38
Slowest packet = 12283
Flit latency average = 19.4702
	minimum = 7
	maximum = 38
Slowest flit = 12283
Fragmentation average = 0
	minimum = 0
	maximum = 0
Injected packet rate average = 0.0214375
	minimum = 0.012 (at node 1)
	maximum = 0.029 (at node 9)
Accepted packet rate average = 0.021
	minimum = 0.012 (at node 4)
	maximum = 0.029 (at node 6)
Injected flit rate average = 0.0214375
	minimum = 0.012 (at node 1)
	maximum = 0.029 (at node 9)
Accepted flit rate average= 0.021
	minimum = 0.012 (at node 4)
	maximum = 0.029 (at node 6)
Injected packet length average = 1
Accepted packet length average = 1
Total in-flight flits = 7 (0 measured)
latency change    = 1
throughput change = 1
Class 0:
Packet latency average = 19.743
	minimum = 7
	maximum = 46
Network latency average = 19.743
	minimum = 7
	maximum = 46
Slowest packet = 12776
Flit latency average = 19.743
	minimum = 7
	maximum = 46
Slowest flit = 12776
Fragmentation average = 0
	minimum = 0
	maximum = 0
Injected packet rate average = 0.0202813
	minimum = 0.015 (at node 2)
	maximum = 0.027 (at node 11)
Accepted packet rate average = 0.0200625
	minimum = 0.0145 (at node 8)
	maximum = 0.0265 (at node 14)
Injected flit rate average = 0.0202813
	minimum = 0.015 (at node 2)
	maximum = 0.027 (at node 11)
Accepted flit rate average= 0.0200625
	minimum = 0.0145 (at node 8)
	maximum = 0.0265 (at node 14)
Injected packet length average = 1
Accepted packet length average = 1
Total in-flight flits = 7 (0 measured)
latency change    = 0.0138152
throughput change = 0.046729
Class 0:
Packet latency average = 19.6951
	minimum = 7
	maximum = 46
Network latency average = 19.6951
	minimum = 7
	maximum = 46
Slowest packet = 12914
Flit latency average = 19.6951
	minimum = 7
	maximum = 46
Slowest flit = 12914
Fragmentation average = 0
	minimum = 0
	maximum = 0
Injected packet rate average = 0.0204375
	minimum = 0.014 (at node 15)
	maximum = 0.031 (at node 7)
Accepted packet rate average = 0.0205
	minimum = 0.015 (at node 15)
	maximum = 0.03 (at node 13)
Injected flit rate average = 0.0204375
	minimum = 0.014 (at node 15)
	maximum = 0.031 (at node 7)
Accepted flit rate average= 0.0205
	minimum = 0.015 (at node 15)
	maximum = 0.03 (at node 13)
Injected packet length average = 1
Accepted packet length average = 1
Total in-flight flits = 6 (0 measured)
latency change    = 0.00243049
throughput change = 0.0213415
Warmed up ...Time used is 3000 cycles
Class 0:
Packet latency average = 20.1994
	minimum = 7
	maximum = 38
Network latency average = 20.1994
	minimum = 7
	maximum = 38
Slowest packet = 13224
Flit latency average = 20.2019
	minimum = 7
	maximum = 38
Slowest flit = 13224
Fragmentation average = 0
	minimum = 0
	maximum = 0
Injected packet rate average = 0.020375
	minimum = 0.012 (at node 11)
	maximum = 0.027 (at node 13)
Accepted packet rate average = 0.020125
	minimum = 0.013 (at node 14)
	maximum = 0.026 (at node 1)
Injected flit rate average = 0.020375
	minimum = 0.012 (at node 11)
	maximum = 0.027 (at node 13)
Accepted flit rate average= 0.020125
	minimum = 0.013 (at node 14)
	maximum = 0.026 (at node 1)
Injected packet length average = 1
Accepted packet length average = 1
Total in-flight flits = 10 (10 measured)
latency change    = 0.0249634
throughput change = 0.0186335
Class 0:
Packet latency average = 19.9843
	minimum = 7
	maximum = 40
Network latency average = 19.9843
	minimum = 7
	maximum = 40
Slowest packet = 13537
Flit latency average = 19.9875
	minimum = 7
	maximum = 40
Slowest flit = 13537
Fragmentation average = 0
	minimum = 0
	maximum = 0
Injected packet rate average = 0.0202188
	minimum = 0.015 (at node 11)
	maximum = 0.025 (at node 7)
Accepted packet rate average = 0.0200313
	minimum = 0.014 (at node 14)
	maximum = 0.025 (at node 13)
Injected flit rate average = 0.0202188
	minimum = 0.015 (at node 11)
	maximum = 0.025 (at node 7)
Accepted flit rate average= 0.0200313
	minimum = 0.014 (at node 14)
	maximum = 0.025 (at node 13)
Injected packet length average = 1
Accepted packet length average = 1
Total in-flight flits = 12 (12 measured)
latency change    = 0.0107642
throughput change = 0.00468019
Class 0:
Packet latency average = 19.6334
	minimum = 7
	maximum = 40
Network latency average = 19.6334
	minimum = 7
	maximum = 40
Slowest packet = 13537
Flit latency average = 19.6377
	minimum = 7
	maximum = 40
Slowest flit = 13537
Fragmentation average = 0
	minimum = 0
	maximum = 0
Injected packet rate average = 0.0203542
	minimum = 0.0153333 (at node 11)
	maximum = 0.0233333 (at node 4)
Accepted packet rate average = 0.0203542
	minimum = 0.0156667 (at node 14)
	maximum = 0.0233333 (at node 1)
Injected flit rate average = 0.0203542
	minimum = 0.0153333 (at node 11)
	maximum = 0.0233333 (at node 4)
Accepted flit rate average= 0.0203542
	minimum = 0.0156667 (at node 14)
	maximum = 0.0233333 (at node 1)
Injected packet length average = 1
Accepted packet length average = 1
Total in-flight flits = 6 (6 measured)
latency change    = 0.0178718
throughput change = 0.0158649
Draining all recorded packets ...
Draining remaining packets ...
Time taken is 6030 cycles
Class 0:
Packet latency average = 19.7917
	minimum = 7
	maximum = 37
Network latency average = 19.7917
	minimum = 7
	maximum = 37
Slowest packet = 14119
Flit latency average = 19.7917
	minimum = 7
	maximum = 37
Slowest flit = 14119
Fragmentation average = 0
	minimum = 0
	maximum = 0
Injected packet rate average = 0.0200625
	minimum = 0.011 (at node 6)
	maximum = 0.028 (at node 8)
Accepted packet rate average = 0.0195
	minimum = 0.01 (at node 9)
	maximum = 0.027 (at node 2)
Injected flit rate average = 0.0200625
	minimum = 0.011 (at node 6)
	maximum = 0.028 (at node 8)
Accepted flit rate average= 0.0195
	minimum = 0.01 (at node 9)
	maximum = 0.027 (at node 2)
Injected packet length average = 1
Accepted packet length average = 1
Total in-flight flits = 9 (0 measured)
latency change    = 1
throughput change = 1
Class 0:
Packet latency average = 19.5867
	minimum = 7
	maximum = 37
Network latency average = 19.5867
	minimum = 7
	maximum = 37
Slowest packet = 14119
Flit latency average = 19.5867
	minimum = 7
	maximum = 37
Slowest flit = 14119
Fragmentation average = 0
	minimum = 0
	maximum = 0
Injected packet rate average = 0.0209063
	minimum = 0.014 (at node 12)
	maximum = 0.0255 (at node 3)
Accepted packet rate average = 0.0207188
	minimum = 0.014 (at node 3)
	maximum = 0.025 (at node 12)
Injected flit rate average = 0.0209063
	minimum = 0.014 (at node 12)
	maximum = 0.0255 (at node 3)
Accepted flit rate average= 0.0207188
	minimum = 0.014 (at node 3)
	maximum = 0.025 (at node 12)
Injected packet length average = 1
Accepted packet length average = 1
Total in-flight flits = 6 (0 measured)
latency change    = 0.0104632
throughput change = 0.0588235
Class 0:
Packet latency average = 19.5906
	minimum = 7
	maximum = 45
Network latency average = 19.5906
	minimum = 7
	maximum = 45
Slowest packet = 15085
Flit latency average = 19.5906
	minimum = 7
	maximum = 45
Slowest flit = 15085
Fragmentation average = 0
	minimum = 0
	maximum = 0
Injected packet rate average = 0.019625
	minimum = 0.016 (at node 12)
	maximum = 0.026 (at node 7)
Accepted packet rate average = 0.02
	minimum = 0.016 (at node 3)
	maximum = 0.026 (at node 13)
Injected flit rate average = 0.019625
	minimum = 0.016 (at node 12)
	maximum = 0.026 (at node 7)
Accepted flit rate average= 0.02
	minimum = 0.016 (at node 3)
	maximum = 0.026 (at node 13)
Injected packet length average = 1
Accepted packet length average = 1
Total in-flight flits = 0 (0 measured)
latency change    = 0.000198973
throughput change = 0.0359375
Warmed up ...Time used is 3000 cycles
Class 0:
Packet latency average = 18.9914
	minimum = 7
	maximum = 38
Network latency average = 18.9914
	minimum = 7
	maximum = 38
Slowest packet = 15183
Flit latency average = 18.9914
	minimum = 7
	maximum = 38
Slowest flit = 15183
Fragmentation average = 0
	minimum = 0
	maximum = 0
Injected packet rate average = 0.022
	minimum = 0.015 (at node 2)
	maximum = 0.032 (at node 15)
Accepted packet rate average = 0.0216875
	minimum = 0.015 (at node 8)
	maximum = 0.032 (at node 15)
Injected flit rate average = 0.022
	minimum = 0.015 (at node 2)
	maximum = 0.032 (at node 15)
Accepted flit rate average= 0.0216875
	minimum = 0.015 (at node 8)
	maximum = 0.032 (at node 15)
Injected packet length average = 1
Accepted packet length average = 1
Total in-flight flits = 5 (5 measured)
latency change    = 0.0315549
throughput change = 0.0778098
Class 0:
Packet latency average = 19.3452
	minimum = 7
	maximum = 38
Network latency average = 19.3452
	minimum = 7
	maximum = 38
Slowest packet = 15183
Flit latency average = 19.3452
	minimum = 7
	maximum = 38
Slowest flit = 15183
Fragmentation average = 0
	minimum = 0
	maximum = 0
Injected packet rate average = 0.0205313
	minimum = 0.0155 (at node 2)
	maximum = 0.026 (at node 15)
Accepted packet rate average = 0.0201875
	minimum = 0.0155 (at node 8)
	maximum = 0.0255 (at node 15)
Injected flit rate average = 0.0205313
	minimum = 0.0155 (at node 2)
	maximum = 0.026 (at node 15)
Accepted flit rate average= 0.0201875
	minimum = 0.0155 (at node 8)
	maximum = 0.0255 (at node 15)
Injected packet length average = 1
Accepted packet length average = 1
Total in-flight flits = 11 (11 measured)
latency change    = 0.0182912
throughput change = 0.0743034
Class 0:
Packet latency average = 19.4924
	minimum = 7
	maximum = 38
Network latency average = 19.4924
	minimum = 7
	maximum = 38
Slowest packet = 15183
Flit latency average = 19.4924
	minimum = 7
	maximum = 38
Slowest flit = 15183
Fragmentation average = 0
	minimum = 0
	maximum = 0
Injected packet rate average = 0.0207292
	minimum = 0.016 (at node 2)
	maximum = 0.0246667 (at node 15)
Accepted packet rate average = 0.0206042
	minimum = 0.016 (at node 8)
	maximum = 0.0246667 (at node 15)
Injected flit rate average = 0.0207292
	minimum = 0.016 (at node 2)
	maximum = 0.0246667 (at node 15)
Accepted flit rate average= 0.0206042
	minimum = 0.016 (at node 8)
	maximum = 0.0246667 (at node 15)
Injected packet length average = 1
Accepted packet length average = 1
Total in-flight flits = 6 (6 measured)
latency change    = 0.00755244
throughput change = 0.0202224
Class 0:
Packet latency average = 19.7026
	minimum = 7
	maximum = 39
Network latency average = 19.7026
	minimum = 7
	maximum = 39
Slowest packet = 16335
Flit latency average = 19.7026
	minimum = 7
	maximum = 39
Slowest flit = 16335
Fragmentation average = 0
	minimum = 0
	maximum = 0
Injected packet rate average = 0.0203594
	minimum = 0.016 (at node 2)
	maximum = 0.024 (at node 4)
Accepted packet rate average = 0.0202813
	minimum = 0.016 (at node 8)
	maximum = 0.024 (at node 1)
Injected flit rate average = 0.0203594
	minimum = 0.016 (at node 2)
	maximum = 0.024 (at node 4)
Accepted flit rate average= 0.0202813
	minimum = 0.016 (at node 8)
	maximum = 0.024 (at node 1)
Injected packet length average = 1
Accepted packet length average = 1
Total in-flight flits = 5 (5 measured)
latency change    = 0.0106688
throughput change = 0.0159219
Class 0:
Packet latency average = 19.578
	minimum = 7
	maximum = 42
Network latency average = 19.578
	minimum = 7
	maximum = 42
Slowest packet = 16472
Flit latency average = 19.578
	minimum = 7
	maximum = 42
Slowest flit = 16472
Fragmentation average = 0
	minimum = 0
	maximum = 0
Injected packet rate average = 0.02055
	minimum = 0.0166 (at node 10)
	maximum = 0.0254 (at node 4)
Accepted packet rate average = 0.0204375
	minimum = 0.0166 (at node 10)
	maximum = 0.0252 (at node 1)
Injected flit rate average = 0.02055
	minimum = 0.0166 (at node 10)
	maximum = 0.0254 (at node 4)
Accepted flit rate average= 0.0204375
	minimum = 0.0166 (at node 10)
	maximum = 0.0252 (at node 1)
Injected packet length average = 1
Accepted packet length average = 1
Total in-flight flits = 9 (9 measured)
latency change    = 0.00636622
throughput change = 0.00764526
Draining all recorded packets ...
Draining remaining packets ...
Time taken is 8057 cycles
Class 0:
Packet latency average = 18.9934
	minimum = 7
	maximum = 37
Network latency average = 18.9934
	minimum = 7
	maximum = 37
Slowest packet = 16755
Flit latency average = 18.9934
	minimum = 7
	maximum = 37
Slowest flit = 16755
Fragmentation average = 0
	minimum = 0
	maximum = 0
Injected packet rate average = 0.019
	minimum = 0.011 (at node 1)
	maximum = 0.03 (at node 15)
Accepted packet rate average = 0.0188125
	minimum = 0.011 (at node 4)
	maximum = 0.03 (at node 15)
Injected flit rate average = 0.019
	minimum = 0.011 (at node 1)
	maximum = 0.03 (at node 15)
Accepted flit rate average= 0.0188125
	minimum = 0.011 (at node 4)
	maximum = 0.03 (at node 15)
Injected packet length average = 1
Accepted packet length average = 1
Total in-flight flits = 3 (0 measured)
latency change    = 1
throughput change = 1
Class 0:
Packet latency average = 19.6731
	minimum = 7
	maximum = 41
Network latency average = 19.6731
	minimum = 7
	maximum = 41
Slowest packet = 17339
Flit latency average = 19.6731
	minimum = 7
	maximum = 41
Slowest flit = 17339
Fragmentation average = 0
	minimum = 0
	maximum = 0
Injected packet rate average = 0.0194687
	minimum = 0.012 (at node 10)
	maximum = 0.0245 (at node 9)
Accepted packet rate average = 0.0193125
	minimum = 0.012 (at node 10)
	maximum = 0.0245 (at node 6)
Injected flit rate average = 0.0194687
	minimum = 0.012 (at node 10)
	maximum = 0.0245 (at node 9)
Accepted flit rate average= 0.0193125
	minimum = 0.012 (at node 10)
	maximum = 0.0245 (at node 6)
Injected packet length average = 1
Accepted packet length average = 1
Total in-flight flits = 5 (0 measured)
latency change    = 0.0345539
throughput change = 0.02589
Class 0:
Packet latency average = 20.4665
	minimum = 7
	maximum = 39
Network latency average = 20.4665
	minimum = 7
	maximum = 39
Slowest packet = 17663
Flit latency average = 20.4665
	minimum = 7
	maximum = 39
Slowest flit = 17663
Fragmentation average = 0
	minimum = 0
	maximum = 0
Injected packet rate average = 0.0194375
	minimum = 0.01 (at node 1)
	maximum = 0.027 (at node 3)
Accepted packet rate average = 0.0195625
	minimum = 0.01 (at node 4)
	maximum = 0.027 (at node 12)
Injected flit rate average = 0.0194375
	minimum = 0.01 (at node 1)
	maximum = 0.027 (at node 3)
Accepted flit rate average= 0.0195625
	minimum = 0.01 (at node 4)
	maximum = 0.027 (at node 12)
Injected packet length average = 1
Accepted packet length average = 1
Total in-flight flits = 3 (0 measured)
latency change    = 0.0387617
throughput change = 0.0127796
Warmed up ...Time used is 3000 cycles
Class 0:
Packet latency average = 18.8318
	minimum = 7
	maximum = 38
Network latency average = 18.8318
	minimum = 7
	maximum = 38
Slowest packet = 17694
Flit latency average = 18.8758
	minimum = 7
	maximum = 38
Slowest flit = 17694
Fragmentation average = 0
	minimum = 0
	maximum = 0
Injected packet rate average = 0.0206875
	minimum = 0.012 (at node 3)
	maximum = 0.029 (at node 13)
Accepted packet rate average = 0.020625
	minimum = 0.012 (at node 12)
	maximum = 0.03 (at node 7)
Injected flit rate average = 0.0206875
	minimum = 0.012 (at node 3)
	maximum = 0.029 (at node 13)
Accepted flit rate average= 0.020625
	minimum = 0.012 (at node 12)
	maximum = 0.03 (at node 7)
Injected packet length average = 1
Accepted packet length average = 1
Total in-flight flits = 4 (4 measured)
latency change    = 0.0868026
throughput change = 0.0515152
Class 0:
Packet latency average = 19.0384
	minimum = 7
	maximum = 38
Network latency average = 19.0384
	minimum = 7
	maximum = 38
Slowest packet = 17694
Flit latency average = 19.0605
	minimum = 7
	maximum = 38
Slowest flit = 17694
Fragmentation average = 0
	minimum = 0
	maximum = 0
Injected packet rate average = 0.0195938
	minimum = 0.015 (at node 3)
	maximum = 0.0285 (at node 13)
Accepted packet rate average = 0.019625
	minimum = 0.015 (at node 12)
	maximum = 0.029 (at node 7)
Injected flit rate average = 0.0195938
	minimum = 0.015 (at node 3)
	maximum = 0.0285 (at node 13)
Accepted flit rate average= 0.019625
	minimum = 0.015 (at node 12)
	maximum = 0.029 (at node 7)
Injected packet length average = 1
Accepted packet length average = 1
Total in-flight flits = 2 (2 measured)
latency change    = 0.0108515
throughput change = 0.0509554
Class 0:
Packet latency average = 19.2513
	minimum = 7
	maximum = 38
Network latency average = 19.2513
	minimum = 7
	maximum = 38
Slowest packet = 17694
Flit latency average = 19.2653
	minimum = 7
	maximum = 38
Slowest flit = 17694
Fragmentation average = 0
	minimum = 0
	maximum = 0
Injected packet rate average = 0.0197292
	minimum = 0.0166667 (at node 4)
	maximum = 0.0243333 (at node 15)
Accepted packet rate average = 0.0197083
	minimum = 0.0166667 (at node 1)
	maximum = 0.0243333 (at node 15)
Injected flit rate average = 0.0197292
	minimum = 0.0166667 (at node 4)
	maximum = 0.0243333 (at node 15)
Accepted flit rate average= 0.0197083
	minimum = 0.0166667 (at node 1)
	maximum = 0.0243333 (at node 15)
Injected packet length average = 1
Accepted packet length average = 1
Total in-flight flits = 4 (4 measured)
latency change    = 0.0110603
throughput change = 0.00422833
Class 0:
Packet latency average = 19.1347
	minimum = 7
	maximum = 38
Network latency average = 19.1347
	minimum = 7
	maximum = 38
Slowest packet = 17694
Flit latency average = 19.1456
	minimum = 7
	maximum = 38
Slowest flit = 17694
Fragmentation average = 0
	minimum = 0
	maximum = 0
Injected packet rate average = 0.0194844
	minimum = 0.016 (at node 3)
	maximum = 0.02325 (at node 15)
Accepted packet rate average = 0.0194219
	minimum = 0.0155 (at node 12)
	maximum = 0.02325 (at node 15)
Injected flit rate average = 0.0194844
	minimum = 0.016 (at node 3)
	maximum = 0.02325 (at node 15)
Accepted flit rate average= 0.0194219
	minimum = 0.0155 (at node 12)
	maximum = 0.02325 (at node 15)
Injected packet length average = 1
Accepted packet length average = 1
Total in-flight flits = 7 (7 measured)
latency change    = 0.00609616
throughput change = 0.0147493
Class 0:
Packet latency average = 19.1893
	minimum = 7
	maximum = 38
Network latency average = 19.1893
	minimum = 7
	maximum = 38
Slowest packet = 17694
Flit latency average = 19.1979
	minimum = 7
	maximum = 38
Slowest flit = 17694
Fragmentation average = 0
	minimum = 0
	maximum = 0
Injected packet rate average = 0.0195125
	minimum = 0.0156 (at node 3)
	maximum = 0.0226 (at node 15)
Accepted packet rate average = 0.01945
	minimum = 0.0156 (at node 12)
	maximum = 0.0226 (at node 15)
Injected flit rate average = 0.0195125
	minimum = 0.0156 (at node 3)
	maximum = 0.0226 (at node 15)
Accepted flit rate average= 0.01945
	minimum = 0.0156 (at node 12)
	maximum = 0.0226 (at node 15)
Injected packet length average = 1
Accepted packet length average = 1
Total in-flight flits = 8 (8 measured)
latency change    = 0.00284708
throughput change = 0.00144602
Draining all recorded packets ...
Draining remaining packets ...
Time taken is 8049 cycles
Class 0:
Packet latency average = 19.8758
	minimum = 7
	maximum = 39
Network latency average = 19.8758
	minimum = 7
	maximum = 39
Slowest packet = 19560
Flit latency average = 19.8758
	minimum = 7
	maximum = 39
Slowest flit = 19560
Fragmentation average = 0
	minimum = 0
	maximum = 0
Injected packet rate average = 0.0205
	minimum = 0.015 (at node 4)
	maximum = 0.029 (at node 13)
Accepted packet rate average = 0.020125
	minimum = 0.014 (at node 1)
	maximum = 0.027 (at node 7)
Injected flit rate average = 0.0205
	minimum = 0.015 (at node 4)
	maximum = 0.029 (at node 13)
Accepted flit rate average= 0.020125
	minimum = 0.014 (at node 1)
	maximum = 0.027 (at node 7)
Injected packet length average = 1
Accepted packet length average = 1
Total in-flight flits = 6 (0 measured)
latency change    = 1
throughput change = 1
Class 0:
Packet latency average = 20.0629
	minimum = 7
	maximum = 39
Network latency average = 20.0629
	minimum = 7
	maximum = 39
Slowest packet = 19560
Flit latency average = 20.0629
	minimum = 7
	maximum = 39
Slowest flit = 19560
Fragmentation average = 0
	minimum = 0
	maximum = 0
Injected packet rate average = 0.0202813
	minimum = 0.016 (at node 1)
	maximum = 0.026 (at node 13)
Accepted packet rate average = 0.019875
	minimum = 0.0155 (at node 4)
	maximum = 0.026 (at node 7)
Injected flit rate average = 0.0202813
	minimum = 0.016 (at node 1)
	maximum = 0.026 (at node 13)
Accepted flit rate average= 0.019875
	minimum = 0.0155 (at node 4)
	maximum = 0.026 (at node 7)
Injected packet length average = 1
Accepted packet length average = 1
Total in-flight flits = 13 (0 measured)
latency change    = 0.00932651
throughput change = 0.0125786
Class 0:
Packet latency average = 19.6145
	minimum = 7
	maximum = 38
Network latency average = 19.6145
	minimum = 7
	maximum = 38
Slowest packet = 20014
Flit latency average = 19.6145
	minimum = 7
	maximum = 38
Slowest flit = 20014
Fragmentation average = 0
	minimum = 0
	maximum = 0
Injected packet rate average = 0.020625
	minimum = 0.012 (at node 5)
	maximum = 0.029 (at node 6)
Accepted packet rate average = 0.02075
	minimum = 0.012 (at node 5)
	maximum = 0.028 (at node 9)
Injected flit rate average = 0.020625
	minimum = 0.012 (at node 5)
	maximum = 0.029 (at node 6)
Accepted flit rate average= 0.02075
	minimum = 0.012 (at node 5)
	maximum = 0.028 (at node 9)
Injected packet length average = 1
Accepted packet length average = 1
Total in-flight flits = 11 (0 measured)
latency change    = 0.0228625
throughput change = 0.0421687
Warmed up ...Time used is 3000 cycles
Class 0:
Packet latency average = 19.1302
	minimum = 7
	maximum = 38
Network latency average = 19.1302
	minimum = 7
	maximum = 38
Slowest packet = 20487
Flit latency average = 19.3037
	minimum = 7
	maximum = 38
Slowest flit = 20487
Fragmentation average = 0
	minimum = 0
	maximum = 0
Injected packet rate average = 0.02
	minimum = 0.014 (at node 4)
	maximum = 0.027 (at node 11)
Accepted packet rate average = 0.020375
	minimum = 0.014 (at node 1)
	maximum = 0.027 (at node 14)
Injected flit rate average = 0.02
	minimum = 0.014 (at node 4)
	maximum = 0.027 (at node 11)
Accepted flit rate average= 0.020375
	minimum = 0.014 (at node 1)
	maximum = 0.027 (at node 14)
Injected packet length average = 1
Accepted packet length average = 1
Total in-flight flits = 5 (5 measured)
latency change    = 0.025316
throughput change = 0.0184049
Class 0:
Packet latency average = 19.3145
	minimum = 7
	maximum = 38
Network latency average = 19.3145
	minimum = 7
	maximum = 38
Slowest packet = 20487
Flit latency average = 19.406
	minimum = 7
	maximum = 38
Slowest flit = 20487
Fragmentation average = 0
	minimum = 0
	maximum = 0
Injected packet rate average = 0.0183125
	minimum = 0.013 (at node 1)
	maximum = 0.0215 (at node 5)
Accepted packet rate average = 0.018625
	minimum = 0.013 (at node 4)
	maximum = 0.022 (at node 14)
Injected flit rate average = 0.0183125
	minimum = 0.013 (at node 1)
	maximum = 0.0215 (at node 5)
Accepted flit rate average= 0.018625
	minimum = 0.013 (at node 4)
	maximum = 0.022 (at node 14)
Injected packet length average = 1
Accepted packet length average = 1
Total in-flight flits = 1 (1 measured)
latency change    = 0.00954572
throughput change = 0.0939597
Class 0:
Packet latency average = 19.0342
	minimum = 7
	maximum = 39
Network latency average = 19.0342
	minimum = 7
	maximum = 39
Slowest packet = 20841
Flit latency average = 19.0969
	minimum = 7
	maximum = 39
Slowest flit = 20841
Fragmentation average = 0
	minimum = 0
	maximum = 0
Injected packet rate average = 0.0190417
	minimum = 0.0146667 (at node 12)
	maximum = 0.0226667 (at node 9)
Accepted packet rate average = 0.019125
	minimum = 0.015 (at node 3)
	maximum = 0.0226667 (at node 6)
Injected flit rate average = 0.0190417
	minimum = 0.0146667 (at node 12)
	maximum = 0.0226667 (at node 9)
Accepted flit rate average= 0.019125
	minimum = 0.015 (at node 3)
	maximum = 0.0226667 (at node 6)
Injected packet length average = 1
Accepted packet length average = 1
Total in-flight flits = 7 (7 measured)
latency change    = 0.0147288
throughput change = 0.0261438
Class 0:
Packet latency average = 18.9183
	minimum = 7
	maximum = 39
Network latency average = 18.9183
	minimum = 7
	maximum = 39
Slowest packet = 20841
Flit latency average = 18.966
	minimum = 7
	maximum = 39
Slowest flit = 20841
Fragmentation average = 0
	minimum = 0
	maximum = 0
Injected packet rate average = 0.0192656
	minimum = 0.0145 (at node 12)
	maximum = 0.0225 (at node 11)
Accepted packet rate average = 0.0192969
	minimum = 0.0145 (at node 3)
	maximum = 0.0225 (at node 14)
Injected flit rate average = 0.0192656
	minimum = 0.0145 (at node 12)
	maximum = 0.0225 (at node 11)
Accepted flit rate average= 0.0192969
	minimum = 0.0145 (at node 3)
	maximum = 0.0225 (at node 14)
Injected packet length average = 1
Accepted packet length average = 1
Total in-flight flits = 9 (9 measured)
latency change    = 0.00612518
throughput change = 0.00890688
Class 0:
Packet latency average = 19.0532
	minimum = 7
	maximum = 40
Network latency average = 19.0532
	minimum = 7
	maximum = 40
Slowest packet = 21667
Flit latency average = 19.0894
	minimum = 7
	maximum = 40
Slowest flit = 21667
Fragmentation average = 0
	minimum = 0
	maximum = 0
Injected packet rate average = 0.0198375
	minimum = 0.0154 (at node 12)
	maximum = 0.0242 (at node 11)
Accepted packet rate average = 0.0198625
	minimum = 0.0154 (at node 3)
	maximum = 0.0242 (at node 14)
Injected flit rate average = 0.0198375
	minimum = 0.0154 (at node 12)
	maximum = 0.0242 (at node 11)
Accepted flit rate average= 0.0198625
	minimum = 0.0154 (at node 3)
	maximum = 0.0242 (at node 14)
Injected packet length average = 1
Accepted packet length average = 1
Total in-flight flits = 9 (9 measured)
latency change    = 0.00708181
throughput change = 0.028477
Draining all recorded packets ...
Draining remaining packets ...
Time taken is 8044 cycles
Class 0:
Packet latency average = 19.3478
	minimum = 7
	maximum = 43
Network latency average = 19.3478
	minimum = 7
	maximum = 43
Slowest packet = 22109
Flit latency average = 19.3478
	minimum = 7
	maximum = 43
Slowest flit = 22109
Fragmentation average = 0
	minimum = 0
	maximum = 0
Injected packet rate average = 0.020625
	minimum = 0.013 (at node 10)
	maximum = 0.032 (at node 8)
Accepted packet rate average = 0.020125
	minimum = 0.013 (at node 10)
	maximum = 0.03 (at node 2)
Injected flit rate average = 0.020625
	minimum = 0.013 (at node 10)
	maximum = 0.032 (at node 8)
Accepted flit rate average= 0.020125
	minimum = 0.013 (at node 10)
	maximum = 0.03 (at node 2)
Injected packet length average = 1
Accepted packet length average = 1
Total in-flight flits = 8 (0 measured)
latency change    = 1
throughput change = 1
Class 0:
Packet latency average = 19.5623
	minimum = 7
	maximum = 43
Network latency average = 19.5623
	minimum = 7
	maximum = 43
Slowest packet = 22109
Flit latency average = 19.5623
	minimum = 7
	maximum = 43
Slowest flit = 22109
Fragmentation average = 0
	minimum = 0
	maximum = 0
Injected packet rate average = 0.0207188
	minimum = 0.013 (at node 10)
	maximum = 0.0285 (at node 8)
Accepted packet rate average = 0.0205625
	minimum = 0.013 (at node 10)
	maximum = 0.028 (at node 2)
Injected flit rate average = 0.0207188
	minimum = 0.013 (at node 10)
	maximum = 0.0285 (at node 8)
Accepted flit rate average= 0.0205625
	minimum = 0.013 (at node 10)
	maximum = 0.028 (at node 2)
Injected packet length average = 1
Accepted packet length average = 1
Total in-flight flits = 5 (0 measured)
latency change    = 0.0109641
throughput change = 0.0212766
Class 0:
Packet latency average = 19.0529
	minimum = 7
	maximum = 42
Network latency average = 19.0529
	minimum = 7
	maximum = 42
Slowest packet = 22541
Flit latency average = 19.0529
	minimum = 7
	maximum = 42
Slowest flit = 22541
Fragmentation average = 0
	minimum = 0
	maximum = 0
Injected packet rate average = 0.0214375
	minimum = 0.014 (at node 6)
	maximum = 0.031 (at node 9)
Accepted packet rate average = 0.02125
	minimum = 0.014 (at node 3)
	maximum = 0.031 (at node 6)
Injected flit rate average = 0.0214375
	minimum = 0.014 (at node 6)
	maximum = 0.031 (at node 9)
Accepted flit rate average= 0.02125
	minimum = 0.014 (at node 3)
	maximum = 0.031 (at node 6)
Injected packet length average = 1
Accepted packet length average = 1
Total in-flight flits = 8 (0 measured)
latency change    = 0.0267344
throughput change = 0.0323529
Warmed up ...Time used is 3000 cycles
Class 0:
Packet latency average = 18.9699
	minimum = 7
	maximum = 39
Network latency average = 18.9699
	minimum = 7
	maximum = 39
Slowest packet = 22967
Flit latency average = 19.2117
	minimum = 7
	maximum = 39
Slowest flit = 22967
Fragmentation average = 0
	minimum = 0
	maximum = 0
Injected packet rate average = 0.0189375
	minimum = 0.011 (at node 3)
	maximum = 0.025 (at node 5)
Accepted packet rate average = 0.0191875
	minimum = 0.011 (at node 12)
	maximum = 0.026 (at node 5)
Injected flit rate average = 0.0189375
	minimum = 0.011 (at node 3)
	maximum = 0.025 (at node 5)
Accepted flit rate average= 0.0191875
	minimum = 0.011 (at node 12)
	maximum = 0.026 (at node 5)
Injected packet length average = 1
Accepted packet length average = 1
Total in-flight flits = 4 (4 measured)
latency change    = 0.00437754
throughput change = 0.107492
Class 0:
Packet latency average = 19.2931
	minimum = 7
	maximum = 39
Network latency average = 19.2931
	minimum = 7
	maximum = 39
Slowest packet = 22967
Flit latency average = 19.4116
	minimum = 7
	maximum = 39
Slowest flit = 22967
Fragmentation average = 0
	minimum = 0
	maximum = 0
Injected packet rate average = 0.0187812
	minimum = 0.0145 (at node 11)
	maximum = 0.0225 (at node 12)
Accepted packet rate average = 0.0189062
	minimum = 0.0145 (at node 14)
	maximum = 0.024 (at node 3)
Injected flit rate average = 0.0187812
	minimum = 0.0145 (at node 11)
	maximum = 0.0225 (at node 12)
Accepted flit rate average= 0.0189062
	minimum = 0.0145 (at node 14)
	maximum = 0.024 (at node 3)
Injected packet length average = 1
Accepted packet length average = 1
Total in-flight flits = 4 (4 measured)
latency change    = 0.0167538
throughput change = 0.014876
Class 0:
Packet latency average = 19.5431
	minimum = 7
	maximum = 39
Network latency average = 19.5431
	minimum = 7
	maximum = 39
Slowest packet = 22967
Flit latency average = 19.6184
	minimum = 7
	maximum = 39
Slowest flit = 22967
Fragmentation average = 0
	minimum = 0
	maximum = 0
Injected packet rate average = 0.0192708
	minimum = 0.0146667 (at node 11)
	maximum = 0.0246667 (at node 12)
Accepted packet rate average = 0.0192708
	minimum = 0.0146667 (at node 14)
	maximum = 0.0253333 (at node 3)
Injected flit rate average = 0.0192708
	minimum = 0.0146667 (at node 11)
	maximum = 0.0246667 (at node 12)
Accepted flit rate average= 0.0192708
	minimum = 0.0146667 (at node 14)
	maximum = 0.0253333 (at node 3)
Injected packet length average = 1
Accepted packet length average = 1
Total in-flight flits = 8 (8 measured)
latency change    = 0.0127893
throughput change = 0.0189189
Class 0:
Packet latency average = 19.6574
	minimum = 7
	maximum = 45
Network latency average = 19.6574
	minimum = 7
	maximum = 45
Slowest packet = 23885
Flit latency average = 19.713
	minimum = 7
	maximum = 45
Slowest flit = 23885
Fragmentation average = 0
	minimum = 0
	maximum = 0
Injected packet rate average = 0.0193281
	minimum = 0.0145 (at node 11)
	maximum = 0.023 (at node 12)
Accepted packet rate average = 0.0193281
	minimum = 0.0145 (at node 14)
	maximum = 0.02375 (at node 3)
Injected flit rate average = 0.0193281
	minimum = 0.0145 (at node 11)
	maximum = 0.023 (at node 12)
Accepted flit rate average= 0.0193281
	minimum = 0.0145 (at node 14)
	maximum = 0.02375 (at node 3)
Injected packet length average = 1
Accepted packet length average = 1
Total in-flight flits = 8 (8 measured)
latency change    = 0.00581814
throughput change = 0.00296416
Draining all recorded packets ...
Draining remaining packets ...
Time taken is 7049 cycles
Class 0:
Packet latency average = 19.5917
	minimum = 7
	maximum = 39
Network latency average = 19.5917
	minimum = 7
	maximum = 39
Slowest packet = 24206
Flit latency average = 19.5917
	minimum = 7
	maximum = 39
Slowest flit = 24206
Fragmentation average = 0
	minimum = 0
	maximum = 0
Injected packet rate average = 0.0215
	minimum = 0.015 (at node 8)
	maximum = 0.028 (at node 3)
Accepted packet rate average = 0.021125
	minimum = 0.015 (at node 2)
	maximum = 0.028 (at node 10)
Injected flit rate average = 0.0215
	minimum = 0.015 (at node 8)
	maximum = 0.028 (at node 3)
Accepted flit rate average= 0.021125
	minimum = 0.015 (at node 2)
	maximum = 0.028 (at node 10)
Injected packet length average = 1
Accepted packet length average = 1
Total in-flight flits = 6 (0 measured)
latency change    = 1
throughput change = 1
Class 0:
Packet latency average = 19.4358
	minimum = 7
	maximum = 39
Network latency average = 19.4358
	minimum = 7
	maximum = 39
Slowest packet = 24206
Flit latency average = 19.4358
	minimum = 7
	maximum = 39
Slowest flit = 24206
Fragmentation average = 0
	minimum = 0
	maximum = 0
Injected packet rate average = 0.0199063
	minimum = 0.0125 (at node 8)
	maximum = 0.0235 (at node 3)
Accepted packet rate average = 0.0197188
	minimum = 0.012 (at node 2)
	maximum = 0.0235 (at node 9)
Injected flit rate average = 0.0199063
	minimum = 0.0125 (at node 8)
	maximum = 0.0235 (at node 3)
Accepted flit rate average= 0.0197188
	minimum = 0.012 (at node 2)
	maximum = 0.0235 (at node 9)
Injected packet length average = 1
Accepted packet length average = 1
Total in-flight flits = 6 (0 measured)
latency change    = 0.00802126
throughput change = 0.0713154
Class 0:
Packet latency average = 18.9875
	minimum = 7
	maximum = 40
Network latency average = 18.9875
	minimum = 7
	maximum = 40
Slowest packet = 24860
Flit latency average = 18.9875
	minimum = 7
	maximum = 40
Slowest flit = 24860
Fragmentation average = 0
	minimum = 0
	maximum = 0
Injected packet rate average = 0.0199375
	minimum = 0.011 (at node 12)
	maximum = 0.026 (at node 2)
Accepted packet rate average = 0.02
	minimum = 0.011 (at node 3)
	maximum = 0.027 (at node 6)
Injected flit rate average = 0.0199375
	minimum = 0.011 (at node 12)
	maximum = 0.026 (at node 2)
Accepted flit rate average= 0.02
	minimum = 0.011 (at node 3)
	maximum = 0.027 (at node 6)
Injected packet length average = 1
Accepted packet length average = 1
Total in-flight flits = 5 (0 measured)
latency change    = 0.0236111
throughput change = 0.0140625
Warmed up ...Time used is 3000 cycles
Class 0:
Packet latency average = 18.9852
	minimum = 7
	maximum = 38
Network latency average = 18.9852
	minimum = 7
	maximum = 38
Slowest packet = 25153
Flit latency average = 18.9563
	minimum = 7
	maximum = 38
Slowest flit = 25153
Fragmentation average = 0
	minimum = 0
	maximum = 0
Injected packet rate average = 0.0218125
	minimum = 0.017 (at node 4)
	maximum = 0.03 (at node 15)
Accepted packet rate average = 0.0214375
	minimum = 0.015 (at node 3)
	maximum = 0.03 (at node 15)
Injected flit rate average = 0.0218125
	minimum = 0.017 (at node 4)
	maximum = 0.03 (at node 15)
Accepted flit rate average= 0.0214375
	minimum = 0.015 (at node 3)
	maximum = 0.03 (at node 15)
Injected packet length average = 1
Accepted packet length average = 1
Total in-flight flits = 11 (11 measured)
latency change    = 0.000120773
throughput change = 0.0670554
Class 0:
Packet latency average = 19.6024
	minimum = 7
	maximum = 38
Network latency average = 19.6024
	minimum = 7
	maximum = 38
Slowest packet = 25153
Flit latency average = 19.583
	minimum = 7
	maximum = 38
Slowest flit = 25153
Fragmentation average = 0
	minimum = 0
	maximum = 0
Injected packet rate average = 0.0209375
	minimum = 0.0185 (at node 5)
	maximum = 0.0245 (at node 15)
Accepted packet rate average = 0.0209063
	minimum = 0.0185 (at node 5)
	maximum = 0.0245 (at node 15)
Injected flit rate average = 0.0209375
	minimum = 0.0185 (at node 5)
	maximum = 0.0245 (at node 15)
Accepted flit rate average= 0.0209063
	minimum = 0.0185 (at node 5)
	maximum = 0.0245 (at node 15)
Injected packet length average = 1
Accepted packet length average = 1
Total in-flight flits = 6 (6 measured)
latency change    = 0.0314861
throughput change = 0.0254111
Class 0:
Packet latency average = 19.9264
	minimum = 7
	maximum = 39
Network latency average = 19.9264
	minimum = 7
	maximum = 39
Slowest packet = 25740
Flit latency average = 19.9121
	minimum = 7
	maximum = 39
Slowest flit = 25740
Fragmentation average = 0
	minimum = 0
	maximum = 0
Injected packet rate average = 0.0213542
	minimum = 0.0163333 (at node 1)
	maximum = 0.0263333 (at node 12)
Accepted packet rate average = 0.0213333
	minimum = 0.0166667 (at node 4)
	maximum = 0.026 (at node 3)
Injected flit rate average = 0.0213542
	minimum = 0.0163333 (at node 1)
	maximum = 0.0263333 (at node 12)
Accepted flit rate average= 0.0213333
	minimum = 0.0166667 (at node 4)
	maximum = 0.026 (at node 3)
Injected packet length average = 1
Accepted packet length average = 1
Total in-flight flits = 6 (6 measured)
latency change    = 0.0162593
throughput change = 0.0200195
Class 0:
Packet latency average = 20.0098
	minimum = 7
	maximum = 39
Network latency average = 20.0098
	minimum = 7
	maximum = 39
Slowest packet = 25740
Flit latency average = 19.9985
	minimum = 7
	maximum = 39
Slowest flit = 25740
Fragmentation average = 0
	minimum = 0
	maximum = 0
Injected packet rate average = 0.0207344
	minimum = 0.018 (at node 1)
	maximum = 0.02575 (at node 12)
Accepted packet rate average = 0.02075
	minimum = 0.018 (at node 10)
	maximum = 0.02575 (at node 3)
Injected flit rate average = 0.0207344
	minimum = 0.018 (at node 1)
	maximum = 0.02575 (at node 12)
Accepted flit rate average= 0.02075
	minimum = 0.018 (at node 10)
	maximum = 0.02575 (at node 3)
Injected packet length average = 1
Accepted packet length average = 1
Total in-flight flits = 4 (4 measured)
latency change    = 0.00416934
throughput change = 0.0281124
Draining all recorded packets ...
Draining remaining packets ...
Time taken is 7038 cycles
Class 0:
Packet latency average = 19.7768
	minimum = 7
	maximum = 44
Network latency average = 19.7768
	minimum = 7
	maximum = 44
Slowest packet = 26634
Flit latency average = 19.7768
	minimum = 7
	maximum = 44
Slowest flit = 26634
Fragmentation average = 0
	minimum = 0
	maximum = 0
Injected packet rate average = 0.022125
	minimum = 0.018 (at node 2)
	maximum = 0.029 (at node 3)
Accepted packet rate average = 0.0215625
	minimum = 0.017 (at node 4)
	maximum = 0.029 (at node 5)
Injected flit rate average = 0.022125
	minimum = 0.018 (at node 2)
	maximum = 0.029 (at node 3)
Accepted flit rate average= 0.0215625
	minimum = 0.017 (at node 4)
	maximum = 0.029 (at node 5)
Injected packet length average = 1
Accepted packet length average = 1
Total in-flight flits = 9 (0 measured)
latency change    = 1
throughput change = 1
Class 0:
Packet latency average = 19.9834
	minimum = 7
	maximum = 44
Network latency average = 19.9834
	minimum = 7
	maximum = 44
Slowest packet = 26634
Flit latency average = 19.9834
	minimum = 7
	maximum = 44
Slowest flit = 26634
Fragmentation average = 0
	minimum = 0
	maximum = 0
Injected packet rate average = 0.020875
	minimum = 0.017 (at node 1)
	maximum = 0.0265 (at node 13)
Accepted packet rate average = 0.0206563
	minimum = 0.016 (at node 4)
	maximum = 0.0265 (at node 7)
Injected flit rate average = 0.020875
	minimum = 0.017 (at node 1)
	maximum = 0.0265 (at node 13)
Accepted flit rate average= 0.0206563
	minimum = 0.016 (at node 4)
	maximum = 0.0265 (at node 7)
Injected packet length average = 1
Accepted packet length average = 1
Total in-flight flits = 7 (0 measured)
latency change    = 0.0103359
throughput change = 0.0438729
Class 0:
Packet latency average = 18.2883
	minimum = 7
	maximum = 37
Network latency average = 18.2883
	minimum = 7
	maximum = 37
Slowest packet = 27035
Flit latency average = 18.2883
	minimum = 7
	maximum = 37
Slowest flit = 27035
Fragmentation average = 0
	minimum = 0
	maximum = 0
Injected packet rate average = 0.020375
	minimum = 0.012 (at node 8)
	maximum = 0.027 (at node 1)
Accepted packet rate average = 0.020375
	minimum = 0.012 (at node 2)
	maximum = 0.028 (at node 4)
Injected flit rate average = 0.020375
	minimum = 0.012 (at node 8)
	maximum = 0.027 (at node 1)
Accepted flit rate average= 0.020375
	minimum = 0.012 (at node 2)
	maximum = 0.028 (at node 4)
Injected packet length average = 1
Accepted packet length average = 1
Total in-flight flits = 7 (0 measured)
latency change    = 0.0926828
throughput change = 0.0138037
Warmed up ...Time used is 3000 cycles
Class 0:
Packet latency average = 20.0325
	minimum = 7
	maximum = 38
Network latency average = 20.0325
	minimum = 7
	maximum = 38
Slowest packet = 27594
Flit latency average = 20
	minimum = 7
	maximum = 38
Slowest flit = 27594
Fragmentation average = 0
	minimum = 0
	maximum = 0
Injected packet rate average = 0.022
	minimum = 0.015 (at node 11)
	maximum = 0.034 (at node 13)
Accepted packet rate average = 0.0215625
	minimum = 0.015 (at node 4)
	maximum = 0.032 (at node 7)
Injected flit rate average = 0.022
	minimum = 0.015 (at node 11)
	maximum = 0.034 (at node 13)
Accepted flit rate average= 0.0215625
	minimum = 0.015 (at node 4)
	maximum = 0.032 (at node 7)
Injected packet length average = 1
Accepted packet length average = 1
Total in-flight flits = 14 (14 measured)
latency change    = 0.0870684
throughput change = 0.0550725
Class 0:
Packet latency average = 19.9784
	minimum = 7
	maximum = 38
Network latency average = 19.9784
	minimum = 7
	maximum = 38
Slowest packet = 27594
Flit latency average = 19.963
	minimum = 7
	maximum = 38
Slowest flit = 27594
Fragmentation average = 0
	minimum = 0
	maximum = 0
Injected packet rate average = 0.0219062
	minimum = 0.0165 (at node 1)
	maximum = 0.0315 (at node 13)
Accepted packet rate average = 0.0219375
	minimum = 0.017 (at node 4)
	maximum = 0.032 (at node 7)
Injected flit rate average = 0.0219062
	minimum = 0.0165 (at node 1)
	maximum = 0.0315 (at node 13)
Accepted flit rate average= 0.0219375
	minimum = 0.017 (at node 4)
	maximum = 0.032 (at node 7)
Injected packet length average = 1
Accepted packet length average = 1
Total in-flight flits = 6 (6 measured)
latency change    = 0.00270928
throughput change = 0.017094
Class 0:
Packet latency average = 20.0853
	minimum = 7
	maximum = 45
Network latency average = 20.0853
	minimum = 7
	maximum = 45
Slowest packet = 28323
Flit latency average = 20.0739
	minimum = 7
	maximum = 45
Slowest flit = 28323
Fragmentation average = 0
	minimum = 0
	maximum = 0
Injected packet rate average = 0.021125
	minimum = 0.0163333 (at node 15)
	maximum = 0.029 (at node 13)
Accepted packet rate average = 0.0211458
	minimum = 0.0163333 (at node 15)
	maximum = 0.029 (at node 7)
Injected flit rate average = 0.021125
	minimum = 0.0163333 (at node 15)
	maximum = 0.029 (at node 13)
Accepted flit rate average= 0.0211458
	minimum = 0.0163333 (at node 15)
	maximum = 0.029 (at node 7)
Injected packet length average = 1
Accepted packet length average = 1
Total in-flight flits = 6 (6 measured)
latency change    = 0.00532231
throughput change = 0.0374384
Class 0:
Packet latency average = 19.6457
	minimum = 7
	maximum = 45
Network latency average = 19.6457
	minimum = 7
	maximum = 45
Slowest packet = 28323
Flit latency average = 19.6393
	minimum = 7
	maximum = 45
Slowest flit = 28323
Fragmentation average = 0
	minimum = 0
	maximum = 0
Injected packet rate average = 0.0207031
	minimum = 0.016 (at node 11)
	maximum = 0.02625 (at node 13)
Accepted packet rate average = 0.02075
	minimum = 0.01625 (at node 14)
	maximum = 0.02625 (at node 7)
Injected flit rate average = 0.0207031
	minimum = 0.016 (at node 11)
	maximum = 0.02625 (at node 13)
Accepted flit rate average= 0.02075
	minimum = 0.01625 (at node 14)
	maximum = 0.02625 (at node 7)
Injected packet length average = 1
Accepted packet length average = 1
Total in-flight flits = 4 (4 measured)
latency change    = 0.0223761
throughput change = 0.0190763
Draining all recorded packets ...
Draining remaining packets ...
Time taken is 7049 cycles
Class 0:
Packet latency average = 19.3559
	minimum = 7
	maximum = 37
Network latency average = 19.3559
	minimum = 7
	maximum = 37
Slowest packet = 28689
Flit latency average = 19.3559
	minimum = 7
	maximum = 37
Slowest flit = 28689
Fragmentation average = 0
	minimum = 0
	maximum = 0
Injected packet rate average = 0.021625
	minimum = 0.017 (at node 1)
	maximum = 0.029 (at node 7)
Accepted packet rate average = 0.02125
	minimum = 0.016 (at node 4)
	maximum = 0.028 (at node 13)
Injected flit rate average = 0.021625
	minimum = 0.017 (at node 1)
	maximum = 0.029 (at node 7)
Accepted flit rate average= 0.02125
	minimum = 0.016 (at node 4)
	maximum = 0.028 (at node 13)
Injected packet length average = 1
Accepted packet length average = 1
Total in-flight flits = 6 (0 measured)
latency change    = 1
throughput change = 1
Class 0:
Packet latency average = 19.6803
	minimum = 7
	maximum = 47
Network latency average = 19.6803
	minimum = 7
	maximum = 47
Slowest packet = 29081
Flit latency average = 19.6803
	minimum = 7
	maximum = 47
Slowest flit = 29081
Fragmentation average = 0
	minimum = 0
	maximum = 0
Injected packet rate average = 0.0202188
	minimum = 0.014 (at node 12)
	maximum = 0.0255 (at node 8)
Accepted packet rate average = 0.0199375
	minimum = 0.0135 (at node 3)
	maximum = 0.025 (at node 2)
Injected flit rate average = 0.0202188
	minimum = 0.014 (at node 12)
	maximum = 0.0255 (at node 8)
Accepted flit rate average= 0.0199375
	minimum = 0.0135 (at node 3)
	maximum = 0.025 (at node 2)
Injected packet length average = 1
Accepted packet length average = 1
Total in-flight flits = 9 (0 measured)
latency change    = 0.0164819
throughput change = 0.0658307
Class 0:
Packet latency average = 20.2156
	minimum = 7
	maximum = 37
Network latency average = 20.2156
	minimum = 7
	maximum = 37
Slowest packet = 29325
Flit latency average = 20.2156
	minimum = 7
	maximum = 37
Slowest flit = 29325
Fragmentation average = 0
	minimum = 0
	maximum = 0
Injected packet rate average = 0.0196875
	minimum = 0.014 (at node 0)
	maximum = 0.03 (at node 8)
Accepted packet rate average = 0.02
	minimum = 0.014 (at node 0)
	maximum = 0.03 (at node 2)
Injected flit rate average = 0.0196875
	minimum = 0.014 (at node 0)
	maximum = 0.03 (at node 8)
Accepted flit rate average= 0.02
	minimum = 0.014 (at node 0)
	maximum = 0.03 (at node 2)
Injected packet length average = 1
Accepted packet length average = 1
[...]
	minimum = 7
	maximum = 38
Slowest flit = 216490
Fragmentation average = 0
	minimum = 0
	maximum = 0
Injected packet rate average = 0.01825
	minimum = 0.011 (at node 5)
	maximum = 0.026 (at node 8)
Accepted packet rate average = 0.0179375
	minimum = 0.011 (at node 5)
	maximum = 0.026 (at node 2)
Injected flit rate average = 0.01825
	minimum = 0.011 (at node 5)
	maximum = 0.026 (at node 8)
Accepted flit rate average= 0.0179375
	minimum = 0.011 (at node 5)
	maximum = 0.026 (at node 2)
Injected packet length average = 1
Accepted packet length average = 1
Total in-flight flits = 5 (0 measured)
latency change    = 1
throughput change = 1
Class 0:
Packet latency average = 20.0853
	minimum = 7
	maximum = 45
Network latency average = 20.0853
	minimum = 7
	maximum = 45
Slowest packet = 216754
Flit latency average = 20.0853
	minimum = 7
	maximum = 45
Slowest flit = 216754
Fragmentation average = 0
	minimum = 0
	maximum = 0
Injected packet rate average = 0.0185625
	minimum = 0.013 (at node 15)
	maximum = 0.0235 (at node 1)
Accepted packet rate average = 0.0183125
	minimum = 0.013 (at node 15)
	maximum = 0.0235 (at node 4)
Injected flit rate average = 0.0185625
	minimum = 0.013 (at node 15)
	maximum = 0.0235 (at node 1)
Accepted flit rate average= 0.0183125
	minimum = 0.013 (at node 15)
	maximum = 0.0235 (at node 4)
Injected packet length average = 1
Accepted packet length average = 1
Total in-flight flits = 8 (0 measured)
latency change    = 0.00407461
throughput change = 0.0204778
Class 0:
Packet latency average = 20.2744
	minimum = 7
	maximum = 43
Network latency average = 20.2744
	minimum = 7
	maximum = 43
Slowest packet = 216950
Flit latency average = 20.2744
	minimum = 7
	maximum = 43
Slowest flit = 216950
Fragmentation average = 0
	minimum = 0
	maximum = 0
Injected packet rate average = 0.020125
	minimum = 0.013 (at node 14)
	maximum = 0.032 (at node 4)
Accepted packet rate average = 0.0205
	minimum = 0.013 (at node 11)
	maximum = 0.033 (at node 1)
Injected flit rate average = 0.020125
	minimum = 0.013 (at node 14)
	maximum = 0.032 (at node 4)
Accepted flit rate average= 0.0205
	minimum = 0.013 (at node 11)
	maximum = 0.033 (at node 1)
Injected packet length average = 1
Accepted packet length average = 1
Total in-flight flits = 2 (0 measured)
latency change    = 0.00932536
throughput change = 0.106707
Warmed up ...Time used is 3000 cycles
Class 0:
Packet latency average = 19.1054
	minimum = 7
	maximum = 43
Network latency average = 19.1054
	minimum = 7
	maximum = 43
Slowest packet = 217318
Flit latency average = 19.1826
	minimum = 7
	maximum = 43
Slowest flit = 217318
Fragmentation average = 0
	minimum = 0
	maximum = 0
Injected packet rate average = 0.0209375
	minimum = 0.013 (at node 15)
	maximum = 0.032 (at node 0)
Accepted packet rate average = 0.020875
	minimum = 0.013 (at node 15)
	maximum = 0.031 (at node 0)
Injected flit rate average = 0.0209375
	minimum = 0.013 (at node 15)
	maximum = 0.032 (at node 0)
Accepted flit rate average= 0.020875
	minimum = 0.013 (at node 15)
	maximum = 0.031 (at node 0)
Injected packet length average = 1
Accepted packet length average = 1
Total in-flight flits = 3 (3 measured)
latency change    = 0.0611852
throughput change = 0.0179641
Class 0:
Packet latency average = 19.169
	minimum = 7
	maximum = 43
Network latency average = 19.169
	minimum = 7
	maximum = 43
Slowest packet = 217318
Flit latency average = 19.2094
	minimum = 7
	maximum = 43
Slowest flit = 217318
Fragmentation average = 0
	minimum = 0
	maximum = 0
Injected packet rate average = 0.0200313
	minimum = 0.016 (at node 14)
	maximum = 0.0255 (at node 0)
Accepted packet rate average = 0.0198438
	minimum = 0.016 (at node 11)
	maximum = 0.0255 (at node 0)
Injected flit rate average = 0.0200313
	minimum = 0.016 (at node 14)
	maximum = 0.0255 (at node 0)
Accepted flit rate average= 0.0198438
	minimum = 0.016 (at node 11)
	maximum = 0.0255 (at node 0)
Injected packet length average = 1
Accepted packet length average = 1
Total in-flight flits = 8 (8 measured)
latency change    = 0.00331861
throughput change = 0.0519685
Class 0:
Packet latency average = 19.2097
	minimum = 7
	maximum = 43
Network latency average = 19.2097
	minimum = 7
	maximum = 43
Slowest packet = 217318
Flit latency average = 19.2371
	minimum = 7
	maximum = 43
Slowest flit = 217318
Fragmentation average = 0
	minimum = 0
	maximum = 0
Injected packet rate average = 0.0194583
	minimum = 0.017 (at node 14)
	maximum = 0.0236667 (at node 0)
Accepted packet rate average = 0.0194167
	minimum = 0.0166667 (at node 12)
	maximum = 0.0236667 (at node 5)
Injected flit rate average = 0.0194583
	minimum = 0.017 (at node 14)
	maximum = 0.0236667 (at node 0)
Accepted flit rate average= 0.0194167
	minimum = 0.0166667 (at node 12)
	maximum = 0.0236667 (at node 5)
Injected packet length average = 1
Accepted packet length average = 1
Total in-flight flits = 4 (4 measured)
latency change    = 0.00211566
throughput change = 0.0219957
Class 0:
Packet latency average = 19.0032
	minimum = 7
	maximum = 43
Network latency average = 19.0032
	minimum = 7
	maximum = 43
Slowest packet = 217318
Flit latency average = 19.0241
	minimum = 7
	maximum = 43
Slowest flit = 217318
Fragmentation average = 0
	minimum = 0
	maximum = 0
Injected packet rate average = 0.0194687
	minimum = 0.016 (at node 6)
	maximum = 0.024 (at node 0)
Accepted packet rate average = 0.0194219
	minimum = 0.016 (at node 9)
	maximum = 0.024 (at node 0)
Injected flit rate average = 0.0194687
	minimum = 0.016 (at node 6)
	maximum = 0.024 (at node 0)
Accepted flit rate average= 0.0194219
	minimum = 0.016 (at node 9)
	maximum = 0.024 (at node 0)
Injected packet length average = 1
Accepted packet length average = 1
Total in-flight flits = 5 (5 measured)
latency change    = 0.0108642
throughput change = 0.000268168
Class 0:
Packet latency average = 19.3164
	minimum = 7
	maximum = 43
Network latency average = 19.3164
	minimum = 7
	maximum = 43
Slowest packet = 217318
Flit latency average = 19.3325
	minimum = 7
	maximum = 43
Slowest flit = 217318
Fragmentation average = 0
	minimum = 0
	maximum = 0
Injected packet rate average = 0.0197
	minimum = 0.016 (at node 6)
	maximum = 0.0234 (at node 13)
Accepted packet rate average = 0.0196625
	minimum = 0.016 (at node 9)
	maximum = 0.0234 (at node 7)
Injected flit rate average = 0.0197
	minimum = 0.016 (at node 6)
	maximum = 0.0234 (at node 13)
Accepted flit rate average= 0.0196625
	minimum = 0.016 (at node 9)
	maximum = 0.0234 (at node 7)
Injected packet length average = 1
Accepted packet length average = 1
Total in-flight flits = 5 (5 measured)
latency change    = 0.0162109
throughput change = 0.0122378
Draining all recorded packets ...
Draining remaining packets ...
Time taken is 8061 cycles
Class 0:
Packet latency average = 18.9839
	minimum = 7
	maximum = 38
Network latency average = 18.9839
	minimum = 7
	maximum = 38
Slowest packet = 218976
Flit latency average = 18.9839
	minimum = 7
	maximum = 38
Slowest flit = 218976
Fragmentation average = 0
	minimum = 0
	maximum = 0
Injected packet rate average = 0.0198125
	minimum = 0.01 (at node 12)
	maximum = 0.033 (at node 5)
Accepted packet rate average = 0.019375
	minimum = 0.009 (at node 3)
	maximum = 0.033 (at node 5)
Injected flit rate average = 0.0198125
	minimum = 0.01 (at node 12)
	maximum = 0.033 (at node 5)
Accepted flit rate average= 0.019375
	minimum = 0.009 (at node 3)
	maximum = 0.033 (at node 5)
Injected packet length average = 1
Accepted packet length average = 1
Total in-flight flits = 7 (0 measured)
latency change    = 1
throughput change = 1
Class 0:
Packet latency average = 19.0615
	minimum = 7
	maximum = 39
Network latency average = 19.0615
	minimum = 7
	maximum = 39
Slowest packet = 219349
Flit latency average = 19.0615
	minimum = 7
	maximum = 39
Slowest flit = 219349
Fragmentation average = 0
	minimum = 0
	maximum = 0
Injected packet rate average = 0.0199688
	minimum = 0.012 (at node 12)
	maximum = 0.026 (at node 5)
Accepted packet rate average = 0.0198125
	minimum = 0.012 (at node 3)
	maximum = 0.026 (at node 5)
Injected flit rate average = 0.0199688
	minimum = 0.012 (at node 12)
	maximum = 0.026 (at node 5)
Accepted flit rate average= 0.0198125
	minimum = 0.012 (at node 3)
	maximum = 0.026 (at node 5)
Injected packet length average = 1
Accepted packet length average = 1
Total in-flight flits = 5 (0 measured)
latency change    = 0.0040733
throughput change = 0.022082
Class 0:
Packet latency average = 18.4831
	minimum = 7
	maximum = 44
Network latency average = 18.4831
	minimum = 7
	maximum = 44
Slowest packet = 219479
Flit latency average = 18.4831
	minimum = 7
	maximum = 44
Slowest flit = 219479
Fragmentation average = 0
	minimum = 0
	maximum = 0
Injected packet rate average = 0.018625
	minimum = 0.012 (at node 2)
	maximum = 0.027 (at node 10)
Accepted packet rate average = 0.0185
	minimum = 0.013 (at node 8)
	maximum = 0.028 (at node 10)
Injected flit rate average = 0.018625
	minimum = 0.012 (at node 2)
	maximum = 0.027 (at node 10)
Accepted flit rate average= 0.0185
	minimum = 0.013 (at node 8)
	maximum = 0.028 (at node 10)
Injected packet length average = 1
Accepted packet length average = 1
Total in-flight flits = 7 (0 measured)
latency change    = 0.0312938
throughput change = 0.0709459
Warmed up ...Time used is 3000 cycles
Class 0:
Packet latency average = 18.6282
	minimum = 7
	maximum = 37
Network latency average = 18.6282
	minimum = 7
	maximum = 37
Slowest packet = 219777
Flit latency average = 18.7179
	minimum = 7
	maximum = 37
Slowest flit = 219761
Fragmentation average = 0
	minimum = 0
	maximum = 0
Injected packet rate average = 0.0199375
	minimum = 0.012 (at node 8)
	maximum = 0.027 (at node 15)
Accepted packet rate average = 0.0199375
	minimum = 0.012 (at node 2)
	maximum = 0.028 (at node 15)
Injected flit rate average = 0.0199375
	minimum = 0.012 (at node 8)
	maximum = 0.027 (at node 15)
Accepted flit rate average= 0.0199375
	minimum = 0.012 (at node 2)
	maximum = 0.028 (at node 15)
Injected packet length average = 1
Accepted packet length average = 1
Total in-flight flits = 7 (7 measured)
latency change    = 0.0077891
throughput change = 0.0721003
Class 0:
Packet latency average = 19.0658
	minimum = 7
	maximum = 45
Network latency average = 19.0658
	minimum = 7
	maximum = 45
Slowest packet = 220155
Flit latency average = 19.1063
	minimum = 7
	maximum = 45
Slowest flit = 220155
Fragmentation average = 0
	minimum = 0
	maximum = 0
Injected packet rate average = 0.0196563
	minimum = 0.0135 (at node 6)
	maximum = 0.025 (at node 15)
Accepted packet rate average = 0.0196875
	minimum = 0.0135 (at node 9)
	maximum = 0.0255 (at node 15)
Injected flit rate average = 0.0196563
	minimum = 0.0135 (at node 6)
	maximum = 0.025 (at node 15)
Accepted flit rate average= 0.0196875
	minimum = 0.0135 (at node 9)
	maximum = 0.0255 (at node 15)
Injected packet length average = 1
Accepted packet length average = 1
Total in-flight flits = 6 (6 measured)
latency change    = 0.0229524
throughput change = 0.0126984
Class 0:
Packet latency average = 19.5461
	minimum = 7
	maximum = 45
Network latency average = 19.5461
	minimum = 7
	maximum = 45
Slowest packet = 220155
Flit latency average = 19.5695
	minimum = 7
	maximum = 45
Slowest flit = 220155
Fragmentation average = 0
	minimum = 0
	maximum = 0
Injected packet rate average = 0.0198125
	minimum = 0.016 (at node 6)
	maximum = 0.023 (at node 5)
Accepted packet rate average = 0.0197917
	minimum = 0.016 (at node 9)
	maximum = 0.023 (at node 5)
Injected flit rate average = 0.0198125
	minimum = 0.016 (at node 6)
	maximum = 0.023 (at node 5)
Accepted flit rate average= 0.0197917
	minimum = 0.016 (at node 9)
	maximum = 0.023 (at node 5)
Injected packet length average = 1
Accepted packet length average = 1
Total in-flight flits = 8 (8 measured)
latency change    = 0.0245736
throughput change = 0.00526316
Class 0:
Packet latency average = 19.4256
	minimum = 7
	maximum = 45
Network latency average = 19.4256
	minimum = 7
	maximum = 45
Slowest packet = 220155
Flit latency average = 19.4437
	minimum = 7
	maximum = 45
Slowest flit = 220155
Fragmentation average = 0
	minimum = 0
	maximum = 0
Injected packet rate average = 0.0199531
	minimum = 0.016 (at node 6)
	maximum = 0.0235 (at node 5)
Accepted packet rate average = 0.0199688
	minimum = 0.016 (at node 9)
	maximum = 0.0235 (at node 5)
Injected flit rate average = 0.0199531
	minimum = 0.016 (at node 6)
	maximum = 0.0235 (at node 5)
Accepted flit rate average= 0.0199688
	minimum = 0.016 (at node 9)
	maximum = 0.0235 (at node 5)
Injected packet length average = 1
Accepted packet length average = 1
Total in-flight flits = 6 (6 measured)
latency change    = 0.00620212
throughput change = 0.00886802
Draining all recorded packets ...
Draining remaining packets ...
Time taken is 7035 cycles
Class 0:
Packet latency average = 19.7121
	minimum = 7
	maximum = 42
Network latency average = 19.7121
	minimum = 7
	maximum = 42
Slowest packet = 221216
Flit latency average = 19.7121
	minimum = 7
	maximum = 42
Slowest flit = 221216
Fragmentation average = 0
	minimum = 0
	maximum = 0
Injected packet rate average = 0.020625
	minimum = 0.01 (at node 12)
	maximum = 0.03 (at node 9)
Accepted packet rate average = 0.0201875
	minimum = 0.01 (at node 3)
	maximum = 0.03 (at node 6)
Injected flit rate average = 0.020625
	minimum = 0.01 (at node 12)
	maximum = 0.03 (at node 9)
Accepted flit rate average= 0.0201875
	minimum = 0.01 (at node 3)
	maximum = 0.03 (at node 6)
Injected packet length average = 1
Accepted packet length average = 1
Total in-flight flits = 7 (0 measured)
latency change    = 1
throughput change = 1
Class 0:
Packet latency average = 19.7909
	minimum = 7
	maximum = 42
Network latency average = 19.7909
	minimum = 7
	maximum = 42
Slowest packet = 221216
Flit latency average = 19.7909
	minimum = 7
	maximum = 42
Slowest flit = 221216
Fragmentation average = 0
	minimum = 0
	maximum = 0
Injected packet rate average = 0.0200625
	minimum = 0.0155 (at node 12)
	maximum = 0.0255 (at node 3)
Accepted packet rate average = 0.019875
	minimum = 0.015 (at node 3)
	maximum = 0.025 (at node 12)
Injected flit rate average = 0.0200625
	minimum = 0.0155 (at node 12)
	maximum = 0.0255 (at node 3)
Accepted flit rate average= 0.019875
	minimum = 0.015 (at node 3)
	maximum = 0.025 (at node 12)
Injected packet length average = 1
Accepted packet length average = 1
Total in-flight flits = 6 (0 measured)
latency change    = 0.00398195
throughput change = 0.0157233
Class 0:
Packet latency average = 20.1174
	minimum = 7
	maximum = 40
Network latency average = 20.1174
	minimum = 7
	maximum = 40
Slowest packet = 221692
Flit latency average = 20.1174
	minimum = 7
	maximum = 40
Slowest flit = 221692
Fragmentation average = 0
	minimum = 0
	maximum = 0
Injected packet rate average = 0.018625
	minimum = 0.01 (at node 11)
	maximum = 0.027 (at node 12)
Accepted packet rate average = 0.018625
	minimum = 0.01 (at node 14)
	maximum = 0.026 (at node 3)
Injected flit rate average = 0.018625
	minimum = 0.01 (at node 11)
	maximum = 0.027 (at node 12)
Accepted flit rate average= 0.018625
	minimum = 0.01 (at node 14)
	maximum = 0.026 (at node 3)
Injected packet length average = 1
Accepted packet length average = 1
Total in-flight flits = 6 (0 measured)
latency change    = 0.0162331
throughput change = 0.0671141
Warmed up ...Time used is 3000 cycles
Class 0:
Packet latency average = 19.106
	minimum = 7
	maximum = 38
Network latency average = 19.106
	minimum = 7
	maximum = 38
Slowest packet = 222164
Flit latency average = 19.2353
	minimum = 7
	maximum = 38
Slowest flit = 222164
Fragmentation average = 0
	minimum = 0
	maximum = 0
Injected packet rate average = 0.0183125
	minimum = 0.009 (at node 6)
	maximum = 0.025 (at node 5)
Accepted packet rate average = 0.0180625
	minimum = 0.008 (at node 9)
	maximum = 0.025 (at node 5)
Injected flit rate average = 0.0183125
	minimum = 0.009 (at node 6)
	maximum = 0.025 (at node 5)
Accepted flit rate average= 0.0180625
	minimum = 0.008 (at node 9)
	maximum = 0.025 (at node 5)
Injected packet length average = 1
Accepted packet length average = 1
Total in-flight flits = 10 (10 measured)
latency change    = 0.0529385
throughput change = 0.0311419
Class 0:
Packet latency average = 19.0498
	minimum = 7
	maximum = 39
Network latency average = 19.0498
	minimum = 7
	maximum = 39
Slowest packet = 222550
Flit latency average = 19.1118
	minimum = 7
	maximum = 39
Slowest flit = 222550
Fragmentation average = 0
	minimum = 0
	maximum = 0
Injected packet rate average = 0.019
	minimum = 0.0145 (at node 6)
	maximum = 0.025 (at node 15)
Accepted packet rate average = 0.019
	minimum = 0.0145 (at node 9)
	maximum = 0.025 (at node 15)
Injected flit rate average = 0.019
	minimum = 0.0145 (at node 6)
	maximum = 0.025 (at node 15)
Accepted flit rate average= 0.019
	minimum = 0.0145 (at node 9)
	maximum = 0.025 (at node 15)
Injected packet length average = 1
Accepted packet length average = 1
Total in-flight flits = 6 (6 measured)
latency change    = 0.00294875
throughput change = 0.0493421
Class 0:
Packet latency average = 19.3123
	minimum = 7
	maximum = 39
Network latency average = 19.3123
	minimum = 7
	maximum = 39
Slowest packet = 222550
Flit latency average = 19.352
	minimum = 7
	maximum = 39
Slowest flit = 222550
Fragmentation average = 0
	minimum = 0
	maximum = 0
Injected packet rate average = 0.0188958
	minimum = 0.016 (at node 14)
	maximum = 0.0223333 (at node 9)
Accepted packet rate average = 0.0189375
	minimum = 0.0163333 (at node 7)
	maximum = 0.0223333 (at node 6)
Injected flit rate average = 0.0188958
	minimum = 0.016 (at node 14)
	maximum = 0.0223333 (at node 9)
Accepted flit rate average= 0.0189375
	minimum = 0.0163333 (at node 7)
	maximum = 0.0223333 (at node 6)
Injected packet length average = 1
Accepted packet length average = 1
Total in-flight flits = 4 (4 measured)
latency change    = 0.0135902
throughput change = 0.00330033
Class 0:
Packet latency average = 19.4151
	minimum = 7
	maximum = 43
Network latency average = 19.4151
	minimum = 7
	maximum = 43
Slowest packet = 223106
Flit latency average = 19.4441
	minimum = 7
	maximum = 43
Slowest flit = 223106
Fragmentation average = 0
	minimum = 0
	maximum = 0
Injected packet rate average = 0.0192031
	minimum = 0.0165 (at node 11)
	maximum = 0.0215 (at node 9)
Accepted packet rate average = 0.0191406
	minimum = 0.01625 (at node 14)
	maximum = 0.0215 (at node 6)
Injected flit rate average = 0.0192031
	minimum = 0.0165 (at node 11)
	maximum = 0.0215 (at node 9)
Accepted flit rate average= 0.0191406
	minimum = 0.01625 (at node 14)
	maximum = 0.0215 (at node 6)
Injected packet length average = 1
Accepted packet length average = 1
Total in-flight flits = 10 (10 measured)
latency change    = 0.00529495
throughput change = 0.0106122
Draining all recorded packets ...
Draining remaining packets ...
Time taken is 7065 cycles
====== Overall Traffic Statistics ======
====== Traffic class 0 ======
Packet latency average = 19.5403 (100 samples)
	minimum = 7 (100 samples)
	maximum = 43.86 (100 samples)
Network latency average = 19.5403 (100 samples)
	minimum = 7 (100 samples)
	maximum = 43.86 (100 samples)
Flit latency average = 19.5627 (100 samples)
	minimum = 7 (100 samples)
	maximum = 43.92 (100 samples)
Fragmentation average = 0 (100 samples)
	minimum = 0 (100 samples)
	maximum = 0 (100 samples)
Injected packet rate average = 0.0199703 (100 samples)
	minimum = 0.0160995 (100 samples)
	maximum = 0.0240827 (100 samples)
Accepted packet rate average = 0.0199704 (100 samples)
	minimum = 0.0160985 (100 samples)
	maximum = 0.0240578 (100 samples)
Injected flit rate average = 0.0199703 (100 samples)
	minimum = 0.0160995 (100 samples)
	maximum = 0.0240827 (100 samples)
Accepted flit rate average = 0.0199704 (100 samples)
	minimum = 0.0160985 (100 samples)
	maximum = 0.0240578 (100 samples)
Injected packet size average = 1 (100 samples)
Accepted packet size average = 1 (100 samples)
Hops average = 3.49813 (100 samples)
Total run time 19.4695
