BEGIN Configuration File: /tmp/tmpq9rmjdpt.cfg
topology = mesh;
k = 4;
n = 2;
routing_function = gnn_port_score_route_4x4;
num_vcs = 4;
vc_buf_size = 4;
wait_for_tail_credit = 1;
vc_allocator = islip;
sw_allocator = islip;
alloc_iters = 1;
credit_delay = 2;
routing_delay = 1;
vc_alloc_delay = 1;
sw_alloc_delay = 1;
input_speedup = 2;
output_speedup = 1;
internal_speedup = 1.0;
traffic = transpose;
packet_size = 1;
sim_type = latency;
injection_rate = 0.02;
warmup_periods = 3;
sample_period = 1000;
sim_count = 100;
seed = 4;

END Configuration File: /tmp/tmpq9rmjdpt.cfg
Class 0:
Packet latency average = 19.3675
	minimum = 7
	maximum = 46
Network latency average = 19.3675
	minimum = 7
	maximum = 46
Slowest packet = 87
Flit latency average = 19.3675
	minimum = 7
	maximum = 46
Slowest flit = 87
Fragmentation average = 0
	minimum = 0
	maximum = 0
Injected packet rate average = 0.021
	minimum = 0.011 (at node 0)
	maximum = 0.032 (at node 5)
Accepted packet rate average = 0.02075
	minimum = 0.011 (at node 0)
	maximum = 0.032 (at node 5)
Injected flit rate average = 0.021
	minimum = 0.011 (at node 0)
	maximum = 0.032 (at node 5)
Accepted flit rate average= 0.02075
	minimum = 0.011 (at node 0)
	maximum = 0.032 (at node 5)
Injected packet length average = 1
Accepted packet length average = 1
Total in-flight flits = 4 (0 measured)
latency change    = 1
throughput change = 1
Class 0:
Packet latency average = 19.8331
	minimum = 7
	maximum = 46
Network latency average = 19.8331
	minimum = 7
	maximum = 46
Slowest packet = 87
Flit latency average = 19.8331
	minimum = 7
	maximum = 46
Slowest flit = 87
Fragmentation average = 0
	minimum = 0
	maximum = 0
Injected packet rate average = 0.0207188
	minimum = 0.0135 (at node 0)
	maximum = 0.025 (at node 5)
Accepted packet rate average = 0.0205938
	minimum = 0.0135 (at node 0)
	maximum = 0.025 (at node 5)
Injected flit rate average = 0.0207188
	minimum = 0.0135 (at node 0)
	maximum = 0.025 (at node 5)
Accepted flit rate average= 0.0205938
	minimum = 0.0135 (at node 0)
	maximum = 0.025 (at node 5)
Injected packet length average = 1
Accepted packet length average = 1
Total in-flight flits = 4 (0 measured)
latency change    = 0.0234765
throughput change = 0.00758725
Class 0:
Packet latency average = 19.7577
	minimum = 7
	maximum = 47
Network latency average = 19.7577
	minimum = 7
	maximum = 47
Slowest packet = 967
Flit latency average = 19.7577
	minimum = 7
	maximum = 47
Slowest flit = 967
Fragmentation average = 0
	minimum = 0
	maximum = 0
Injected packet rate average = 0.0204375
	minimum = 0.011 (at node 6)
	maximum = 0.031 (at node 14)
Accepted packet rate average = 0.020375
	minimum = 0.01 (at node 9)
	maximum = 0.03 (at node 11)
Injected flit rate average = 0.0204375
	minimum = 0.011 (at node 6)
	maximum = 0.031 (at node 14)
Accepted flit rate average= 0.020375
	minimum = 0.01 (at node 9)
	maximum = 0.03 (at node 11)
Injected packet length average = 1
Accepted packet length average = 1
Total in-flight flits = 5 (0 measured)
latency change    = 0.00381683
throughput change = 0.0107362
Warmed up ...Time used is 3000 cycles
Class 0:
Packet latency average = 18.8205
	minimum = 7
	maximum = 38
Network latency average = 18.8205
	minimum = 7
	maximum = 38
Slowest packet = 999
Flit latency average = 18.8233
	minimum = 7
	maximum = 38
Slowest flit = 999
Fragmentation average = 0
	minimum = 0
	maximum = 0
Injected packet rate average = 0.019875
	minimum = 0.011 (at node 12)
	maximum = 0.028 (at node 6)
Accepted packet rate average = 0.0198125
	minimum = 0.012 (at node 3)
	maximum = 0.029 (at node 9)
Injected flit rate average = 0.019875
	minimum = 0.011 (at node 12)
	maximum = 0.028 (at node 6)
Accepted flit rate average= 0.0198125
	minimum = 0.012 (at node 3)
	maximum = 0.029 (at node 9)
Injected packet length average = 1
Accepted packet length average = 1
Total in-flight flits = 6 (6 measured)
latency change    = 0.0497944
throughput change = 0.0283912
Class 0:
Packet latency average = 19.432
	minimum = 7
	maximum = 38
Network latency average = 19.432
	minimum = 7
	maximum = 38
Slowest packet = 999
Flit latency average = 19.4286
	minimum = 7
	maximum = 38
Slowest flit = 999
Fragmentation average = 0
	minimum = 0
	maximum = 0
Injected packet rate average = 0.0197813
	minimum = 0.0115 (at node 4)
	maximum = 0.0265 (at node 13)
Accepted packet rate average = 0.0196875
	minimum = 0.0115 (at node 1)
	maximum = 0.026 (at node 9)
Injected flit rate average = 0.0197813
	minimum = 0.0115 (at node 4)
	maximum = 0.0265 (at node 13)
Accepted flit rate average= 0.0196875
	minimum = 0.0115 (at node 1)
	maximum = 0.026 (at node 9)
Injected packet length average = 1
Accepted packet length average = 1
Total in-flight flits = 8 (8 measured)
latency change    = 0.0314681
throughput change = 0.00634921
Class 0:
Packet latency average = 19.0881
	minimum = 7
	maximum = 38
Network latency average = 19.0881
	minimum = 7
	maximum = 38
Slowest packet = 999
Flit latency average = 19.0877
	minimum = 7
	maximum = 38
Slowest flit = 999
Fragmentation average = 0
	minimum = 0
	maximum = 0
Injected packet rate average = 0.0199792
	minimum = 0.0133333 (at node 4)
	maximum = 0.0256667 (at node 6)
Accepted packet rate average = 0.0199583
	minimum = 0.0133333 (at node 1)
	maximum = 0.026 (at node 9)
Injected flit rate average = 0.0199792
	minimum = 0.0133333 (at node 4)
	maximum = 0.0256667 (at node 6)
Accepted flit rate average= 0.0199583
	minimum = 0.0133333 (at node 1)
	maximum = 0.026 (at node 9)
Injected packet length average = 1
Accepted packet length average = 1
Total in-flight flits = 6 (6 measured)
latency change    = 0.0180142
throughput change = 0.0135699
Draining all recorded packets ...
Draining remaining packets ...
Time taken is 6061 cycles
Class 0:
Packet latency average = 19.0409
	minimum = 7
	maximum = 39
Network latency average = 19.0409
	minimum = 7
	maximum = 39
Slowest packet = 2085
Flit latency average = 19.0409
	minimum = 7
	maximum = 39
Slowest flit = 2085
Fragmentation average = 0
	minimum = 0
	maximum = 0
Injected packet rate average = 0.020375
	minimum = 0.012 (at node 8)
	maximum = 0.028 (at node 10)
Accepted packet rate average = 0.019875
	minimum = 0.011 (at node 2)
	maximum = 0.027 (at node 10)
Injected flit rate average = 0.020375
	minimum = 0.012 (at node 8)
	maximum = 0.028 (at node 10)
Accepted flit rate average= 0.019875
	minimum = 0.011 (at node 2)
	maximum = 0.027 (at node 10)
Injected packet length average = 1
Accepted packet length average = 1
Total in-flight flits = 8 (0 measured)
latency change    = 1
throughput change = 1
Class 0:
Packet latency average = 19.3432
	minimum = 7
	maximum = 41
Network latency average = 19.3432
	minimum = 7
	maximum = 41
Slowest packet = 2332
Flit latency average = 19.3432
	minimum = 7
	maximum = 41
Slowest flit = 2332
Fragmentation average = 0
	minimum = 0
	maximum = 0
Injected packet rate average = 0.0201875
	minimum = 0.013 (at node 2)
	maximum = 0.0285 (at node 10)
Accepted packet rate average = 0.0200313
	minimum = 0.013 (at node 2)
	maximum = 0.0285 (at node 10)
Injected flit rate average = 0.0201875
	minimum = 0.013 (at node 2)
	maximum = 0.0285 (at node 10)
Accepted flit rate average= 0.0200313
	minimum = 0.013 (at node 2)
	maximum = 0.0285 (at node 10)
Injected packet length average = 1
Accepted packet length average = 1
Total in-flight flits = 5 (0 measured)
latency change    = 0.0156299
throughput change = 0.00780031
Class 0:
Packet latency average = 20.0535
	minimum = 7
	maximum = 37
Network latency average = 20.0535
	minimum = 7
	maximum = 37
Slowest packet = 2608
Flit latency average = 20.0535
	minimum = 7
	maximum = 37
Slowest flit = 2608
Fragmentation average = 0
	minimum = 0
	maximum = 0
Injected packet rate average = 0.0200625
	minimum = 0.014 (at node 15)
	maximum = 0.03 (at node 7)
Accepted packet rate average = 0.019875
	minimum = 0.014 (at node 15)
	maximum = 0.03 (at node 13)
Injected flit rate average = 0.0200625
	minimum = 0.014 (at node 15)
	maximum = 0.03 (at node 7)
Accepted flit rate average= 0.019875
	minimum = 0.014 (at node 15)
	maximum = 0.03 (at node 13)
Injected packet length average = 1
Accepted packet length average = 1
Total in-flight flits = 8 (0 measured)
latency change    = 0.0354176
throughput change = 0.00786164
Warmed up ...Time used is 3000 cycles
Class 0:
Packet latency average = 19.2404
	minimum = 7
	maximum = 37
Network latency average = 19.2404
	minimum = 7
	maximum = 37
Slowest packet = 2930
Flit latency average = 19.1831
	minimum = 7
	maximum = 37
Slowest flit = 2930
Fragmentation average = 0
	minimum = 0
	maximum = 0
Injected packet rate average = 0.0181875
	minimum = 0.011 (at node 3)
	maximum = 0.029 (at node 12)
Accepted packet rate average = 0.0184375
	minimum = 0.01 (at node 12)
	maximum = 0.028 (at node 3)
Injected flit rate average = 0.0181875
	minimum = 0.011 (at node 3)
	maximum = 0.029 (at node 12)
Accepted flit rate average= 0.0184375
	minimum = 0.01 (at node 12)
	maximum = 0.028 (at node 3)
Injected packet length average = 1
Accepted packet length average = 1
Total in-flight flits = 4 (4 measured)
latency change    = 0.0422569
throughput change = 0.0779661
Class 0:
Packet latency average = 19.2165
	minimum = 7
	maximum = 37
Network latency average = 19.2165
	minimum = 7
	maximum = 37
Slowest packet = 2930
Flit latency average = 19.1881
	minimum = 7
	maximum = 37
Slowest flit = 2930
Fragmentation average = 0
	minimum = 0
	maximum = 0
Injected packet rate average = 0.0183437
	minimum = 0.014 (at node 7)
	maximum = 0.025 (at node 15)
Accepted packet rate average = 0.0184375
	minimum = 0.014 (at node 13)
	maximum = 0.0255 (at node 15)
Injected flit rate average = 0.0183437
	minimum = 0.014 (at node 7)
	maximum = 0.025 (at node 15)
Accepted flit rate average= 0.0184375
	minimum = 0.014 (at node 13)
	maximum = 0.0255 (at node 15)
Injected packet length average = 1
Accepted packet length average = 1
Total in-flight flits = 5 (5 measured)
latency change    = 0.00124493
throughput change = 0
Class 0:
Packet latency average = 19.1524
	minimum = 7
	maximum = 37
Network latency average = 19.1524
	minimum = 7
	maximum = 37
Slowest packet = 2930
Flit latency average = 19.1339
	minimum = 7
	maximum = 37
Slowest flit = 2930
Fragmentation average = 0
	minimum = 0
	maximum = 0
Injected packet rate average = 0.0181875
	minimum = 0.014 (at node 2)
	maximum = 0.0233333 (at node 15)
Accepted packet rate average = 0.0182083
	minimum = 0.0136667 (at node 8)
	maximum = 0.0236667 (at node 15)
Injected flit rate average = 0.0181875
	minimum = 0.014 (at node 2)
	maximum = 0.0233333 (at node 15)
Accepted flit rate average= 0.0182083
	minimum = 0.0136667 (at node 8)
	maximum = 0.0236667 (at node 15)
Injected packet length average = 1
Accepted packet length average = 1
Total in-flight flits = 7 (7 measured)
latency change    = 0.00334526
throughput change = 0.0125858
Class 0:
Packet latency average = 19.0398
	minimum = 7
	maximum = 45
Network latency average = 19.0398
	minimum = 7
	maximum = 45
Slowest packet = 3957
Flit latency average = 19.0269
	minimum = 7
	maximum = 45
Slowest flit = 3957
Fragmentation average = 0
	minimum = 0
	maximum = 0
Injected packet rate average = 0.0185312
	minimum = 0.014 (at node 7)
	maximum = 0.024 (at node 15)
Accepted packet rate average = 0.0185625
	minimum = 0.014 (at node 12)
	maximum = 0.02425 (at node 15)
Injected flit rate average = 0.0185312
	minimum = 0.014 (at node 7)
	maximum = 0.024 (at node 15)
Accepted flit rate average= 0.0185625
	minimum = 0.014 (at node 12)
	maximum = 0.02425 (at node 15)
Injected packet length average = 1
Accepted packet length average = 1
Total in-flight flits = 6 (6 measured)
latency change    = 0.00591363
throughput change = 0.0190797
Draining all recorded packets ...
Draining remaining packets ...
Time taken is 7036 cycles
Class 0:
Packet latency average = 18.697
	minimum = 7
	maximum = 38
Network latency average = 18.697
	minimum = 7
	maximum = 38
Slowest packet = 4117
Flit latency average = 18.697
	minimum = 7
	maximum = 38
Slowest flit = 4117
Fragmentation average = 0
	minimum = 0
	maximum = 0
Injected packet rate average = 0.021
	minimum = 0.011 (at node 1)
	maximum = 0.029 (at node 8)
Accepted packet rate average = 0.020625
	minimum = 0.011 (at node 4)
	maximum = 0.028 (at node 10)
Injected flit rate average = 0.021
	minimum = 0.011 (at node 1)
	maximum = 0.029 (at node 8)
Accepted flit rate average= 0.020625
	minimum = 0.011 (at node 4)
	maximum = 0.028 (at node 10)
Injected packet length average = 1
Accepted packet length average = 1
Total in-flight flits = 6 (0 measured)
latency change    = 1
throughput change = 1
Class 0:
Packet latency average = 19.7863
	minimum = 7
	maximum = 43
Network latency average = 19.7863
	minimum = 7
	maximum = 43
Slowest packet = 4556
Flit latency average = 19.7863
	minimum = 7
	maximum = 43
Slowest flit = 4556
Fragmentation average = 0
	minimum = 0
	maximum = 0
Injected packet rate average = 0.0195
	minimum = 0.0135 (at node 5)
	maximum = 0.025 (at node 2)
Accepted packet rate average = 0.0191562
	minimum = 0.0135 (at node 5)
	maximum = 0.0245 (at node 2)
Injected flit rate average = 0.0195
	minimum = 0.0135 (at node 5)
	maximum = 0.025 (at node 2)
Accepted flit rate average= 0.0191562
	minimum = 0.0135 (at node 5)
	maximum = 0.0245 (at node 2)
Injected packet length average = 1
Accepted packet length average = 1
Total in-flight flits = 11 (0 measured)
latency change    = 0.0550546
throughput change = 0.0766721
Class 0:
Packet latency average = 19.3225
	minimum = 7
	maximum = 38
Network latency average = 19.3225
	minimum = 7
	maximum = 38
Slowest packet = 4768
Flit latency average = 19.3225
	minimum = 7
	maximum = 38
Slowest flit = 4768
Fragmentation average = 0
	minimum = 0
	maximum = 0
Injected packet rate average = 0.018875
	minimum = 0.015 (at node 6)
	maximum = 0.023 (at node 11)
Accepted packet rate average = 0.0191875
	minimum = 0.016 (at node 4)
	maximum = 0.024 (at node 14)
Injected flit rate average = 0.018875
	minimum = 0.015 (at node 6)
	maximum = 0.023 (at node 11)
Accepted flit rate average= 0.0191875
	minimum = 0.016 (at node 4)
	maximum = 0.024 (at node 14)
Injected packet length average = 1
Accepted packet length average = 1
Total in-flight flits = 6 (0 measured)
latency change    = 0.0240042
throughput change = 0.00162866
Warmed up ...Time used is 3000 cycles
Class 0:
Packet latency average = 19.2215
	minimum = 7
	maximum = 38
Network latency average = 19.2215
	minimum = 7
	maximum = 38
Slowest packet = 5046
Flit latency average = 19.3975
	minimum = 7
	maximum = 38
Slowest flit = 5046
Fragmentation average = 0
	minimum = 0
	maximum = 0
Injected packet rate average = 0.02025
	minimum = 0.013 (at node 14)
	maximum = 0.027 (at node 12)
Accepted packet rate average = 0.020125
	minimum = 0.013 (at node 2)
	maximum = 0.027 (at node 3)
Injected flit rate average = 0.02025
	minimum = 0.013 (at node 14)
	maximum = 0.027 (at node 12)
Accepted flit rate average= 0.020125
	minimum = 0.013 (at node 2)
	maximum = 0.027 (at node 3)
Injected packet length average = 1
Accepted packet length average = 1
Total in-flight flits = 8 (8 measured)
latency change    = 0.00525227
throughput change = 0.0465839
Class 0:
Packet latency average = 18.9608
	minimum = 7
	maximum = 41
Network latency average = 18.9608
	minimum = 7
	maximum = 41
Slowest packet = 5648
Flit latency average = 19.0512
	minimum = 7
	maximum = 41
Slowest flit = 5648
Fragmentation average = 0
	minimum = 0
	maximum = 0
Injected packet rate average = 0.0200938
	minimum = 0.016 (at node 1)
	maximum = 0.027 (at node 15)
Accepted packet rate average = 0.020125
	minimum = 0.016 (at node 4)
	maximum = 0.027 (at node 15)
Injected flit rate average = 0.0200938
	minimum = 0.016 (at node 1)
	maximum = 0.027 (at node 15)
Accepted flit rate average= 0.020125
	minimum = 0.016 (at node 4)
	maximum = 0.027 (at node 15)
Injected packet length average = 1
Accepted packet length average = 1
Total in-flight flits = 5 (5 measured)
latency change    = 0.0137496
throughput change = 0
Class 0:
Packet latency average = 19.1277
	minimum = 7
	maximum = 41
Network latency average = 19.1277
	minimum = 7
	maximum = 41
Slowest packet = 5648
Flit latency average = 19.1858
	minimum = 7
	maximum = 41
Slowest flit = 5648
Fragmentation average = 0
	minimum = 0
	maximum = 0
Injected packet rate average = 0.0205417
	minimum = 0.0153333 (at node 2)
	maximum = 0.025 (at node 0)
Accepted packet rate average = 0.0205208
	minimum = 0.0153333 (at node 8)
	maximum = 0.025 (at node 0)
Injected flit rate average = 0.0205417
	minimum = 0.0153333 (at node 2)
	maximum = 0.025 (at node 0)
Accepted flit rate average= 0.0205208
	minimum = 0.0153333 (at node 8)
	maximum = 0.025 (at node 0)
Injected packet length average = 1
Accepted packet length average = 1
Total in-flight flits = 7 (7 measured)
latency change    = 0.00872381
throughput change = 0.0192893
Draining all recorded packets ...
Draining remaining packets ...
Time taken is 6061 cycles
Class 0:
Packet latency average = 19.5188
	minimum = 7
	maximum = 38
Network latency average = 19.5188
	minimum = 7
	maximum = 38
Slowest packet = 6063
Flit latency average = 19.5188
	minimum = 7
	maximum = 38
Slowest flit = 6063
Fragmentation average = 0
	minimum = 0
	maximum = 0
Injected packet rate average = 0.02025
	minimum = 0.015 (at node 5)
	maximum = 0.03 (at node 10)
Accepted packet rate average = 0.02
	minimum = 0.015 (at node 5)
	maximum = 0.03 (at node 10)
Injected flit rate average = 0.02025
	minimum = 0.015 (at node 5)
	maximum = 0.03 (at node 10)
Accepted flit rate average= 0.02
	minimum = 0.015 (at node 5)
	maximum = 0.03 (at node 10)
Injected packet length average = 1
Accepted packet length average = 1
Total in-flight flits = 4 (0 measured)
latency change    = 1
throughput change = 1
Class 0:
Packet latency average = 19.4317
	minimum = 7
	maximum = 38
Network latency average = 19.4317
	minimum = 7
	maximum = 38
Slowest packet = 6063
Flit latency average = 19.4317
	minimum = 7
	maximum = 38
Slowest flit = 6063
Fragmentation average = 0
	minimum = 0
	maximum = 0
Injected packet rate average = 0.0202188
	minimum = 0.0145 (at node 5)
	maximum = 0.024 (at node 4)
Accepted packet rate average = 0.020125
	minimum = 0.0145 (at node 5)
	maximum = 0.024 (at node 1)
Injected flit rate average = 0.0202188
	minimum = 0.0145 (at node 5)
	maximum = 0.024 (at node 4)
Accepted flit rate average= 0.020125
	minimum = 0.0145 (at node 5)
	maximum = 0.024 (at node 1)
Injected packet length average = 1
Accepted packet length average = 1
Total in-flight flits = 3 (0 measured)
latency change    = 0.00448098
throughput change = 0.00621118
Class 0:
Packet latency average = 19.512
	minimum = 7
	maximum = 38
Network latency average = 19.512
	minimum = 7
	maximum = 38
Slowest packet = 6760
Flit latency average = 19.512
	minimum = 7
	maximum = 38
Slowest flit = 6760
Fragmentation average = 0
	minimum = 0
	maximum = 0
Injected packet rate average = 0.020875
	minimum = 0.014 (at node 0)
	maximum = 0.028 (at node 4)
Accepted packet rate average = 0.020875
	minimum = 0.014 (at node 0)
	maximum = 0.028 (at node 1)
Injected flit rate average = 0.020875
	minimum = 0.014 (at node 0)
	maximum = 0.028 (at node 4)
Accepted flit rate average= 0.020875
	minimum = 0.014 (at node 0)
	maximum = 0.028 (at node 1)
Injected packet length average = 1
Accepted packet length average = 1
Total in-flight flits = 3 (0 measured)
latency change    = 0.00411537
throughput change = 0.0359281
Warmed up ...Time used is 3000 cycles
Class 0:
Packet latency average = 19.468
	minimum = 7
	maximum = 38
Network latency average = 19.468
	minimum = 7
	maximum = 38
Slowest packet = 7084
Flit latency average = 19.51
	minimum = 7
	maximum = 38
Slowest flit = 7084
Fragmentation average = 0
	minimum = 0
	maximum = 0
Injected packet rate average = 0.018875
	minimum = 0.013 (at node 7)
	maximum = 0.026 (at node 15)
Accepted packet rate average = 0.01875
	minimum = 0.012 (at node 13)
	maximum = 0.026 (at node 15)
Injected flit rate average = 0.018875
	minimum = 0.013 (at node 7)
	maximum = 0.026 (at node 15)
Accepted flit rate average= 0.01875
	minimum = 0.012 (at node 13)
	maximum = 0.026 (at node 15)
Injected packet length average = 1
Accepted packet length average = 1
Total in-flight flits = 5 (5 measured)
latency change    = 0.0022582
throughput change = 0.113333
Class 0:
Packet latency average = 19.3063
	minimum = 7
	maximum = 40
Network latency average = 19.3063
	minimum = 7
	maximum = 40
Slowest packet = 7311
Flit latency average = 19.3274
	minimum = 7
	maximum = 40
Slowest flit = 7311
Fragmentation average = 0
	minimum = 0
	maximum = 0
Injected packet rate average = 0.0194687
	minimum = 0.013 (at node 7)
	maximum = 0.026 (at node 11)
Accepted packet rate average = 0.019375
	minimum = 0.013 (at node 13)
	maximum = 0.026 (at node 14)
Injected flit rate average = 0.0194687
	minimum = 0.013 (at node 7)
	maximum = 0.026 (at node 11)
Accepted flit rate average= 0.019375
	minimum = 0.013 (at node 13)
	maximum = 0.026 (at node 14)
Injected packet length average = 1
Accepted packet length average = 1
Total in-flight flits = 6 (6 measured)
latency change    = 0.00837511
throughput change = 0.0322581
Class 0:
Packet latency average = 19.7604
	minimum = 7
	maximum = 45
Network latency average = 19.7604
	minimum = 7
	maximum = 45
Slowest packet = 7649
Flit latency average = 19.7728
	minimum = 7
	maximum = 45
Slowest flit = 7649
Fragmentation average = 0
	minimum = 0
	maximum = 0
Injected packet rate average = 0.0197083
	minimum = 0.016 (at node 7)
	maximum = 0.0236667 (at node 11)
Accepted packet rate average = 0.019625
	minimum = 0.016 (at node 13)
	maximum = 0.0233333 (at node 14)
Injected flit rate average = 0.0197083
	minimum = 0.016 (at node 7)
	maximum = 0.0236667 (at node 11)
Accepted flit rate average= 0.019625
	minimum = 0.016 (at node 13)
	maximum = 0.0233333 (at node 14)
Injected packet length average = 1
Accepted packet length average = 1
Total in-flight flits = 7 (7 measured)
latency change    = 0.0229784
throughput change = 0.0127389
Class 0:
Packet latency average = 19.4581
	minimum = 7
	maximum = 45
Network latency average = 19.4581
	minimum = 7
	maximum = 45
Slowest packet = 7649
Flit latency average = 19.468
	minimum = 7
	maximum = 45
Slowest flit = 7649
Fragmentation average = 0
	minimum = 0
	maximum = 0
Injected packet rate average = 0.0198281
	minimum = 0.0165 (at node 7)
	maximum = 0.02225 (at node 11)
Accepted packet rate average = 0.0197969
	minimum = 0.0165 (at node 13)
	maximum = 0.02225 (at node 14)
Injected flit rate average = 0.0198281
	minimum = 0.0165 (at node 7)
	maximum = 0.02225 (at node 11)
Accepted flit rate average= 0.0197969
	minimum = 0.0165 (at node 13)
	maximum = 0.02225 (at node 14)
Injected packet length average = 1
Accepted packet length average = 1
Total in-flight flits = 5 (5 measured)
latency change    = 0.0155367
throughput change = 0.00868193
Draining all recorded packets ...
Draining remaining packets ...
Time taken is 7061 cycles
Class 0:
Packet latency average = 19.44
	minimum = 7
	maximum = 41
Network latency average = 19.44
	minimum = 7
	maximum = 41
Slowest packet = 8408
Flit latency average = 19.44
	minimum = 7
	maximum = 41
Slowest flit = 8408
Fragmentation average = 0
	minimum = 0
	maximum = 0
Injected packet rate average = 0.0205625
	minimum = 0.015 (at node 1)
	maximum = 0.027 (at node 2)
Accepted packet rate average = 0.0203125
	minimum = 0.015 (at node 4)
	maximum = 0.026 (at node 8)
Injected flit rate average = 0.0205625
	minimum = 0.015 (at node 1)
	maximum = 0.027 (at node 2)
Accepted flit rate average= 0.0203125
	minimum = 0.015 (at node 4)
	maximum = 0.026 (at node 8)
Injected packet length average = 1
Accepted packet length average = 1
Total in-flight flits = 4 (0 measured)
latency change    = 1
throughput change = 1
Class 0:
Packet latency average = 19.5393
	minimum = 7
	maximum = 41
Network latency average = 19.5393
	minimum = 7
	maximum = 41
Slowest packet = 8408
Flit latency average = 19.5393
	minimum = 7
	maximum = 41
Slowest flit = 8408
Fragmentation average = 0
	minimum = 0
	maximum = 0
Injected packet rate average = 0.02025
	minimum = 0.016 (at node 0)
	maximum = 0.0245 (at node 5)
Accepted packet rate average = 0.019875
	minimum = 0.0155 (at node 4)
	maximum = 0.024 (at node 5)
Injected flit rate average = 0.02025
	minimum = 0.016 (at node 0)
	maximum = 0.0245 (at node 5)
Accepted flit rate average= 0.019875
	minimum = 0.0155 (at node 4)
	maximum = 0.024 (at node 5)
Injected packet length average = 1
Accepted packet length average = 1
Total in-flight flits = 12 (0 measured)
latency change    = 0.00508248
throughput change = 0.0220126
Class 0:
Packet latency average = 19.0703
	minimum = 7
	maximum = 45
Network latency average = 19.0703
	minimum = 7
	maximum = 45
Slowest packet = 9069
Flit latency average = 19.0703
	minimum = 7
	maximum = 45
Slowest flit = 9069
Fragmentation average = 0
	minimum = 0
	maximum = 0
Injected packet rate average = 0.02
	minimum = 0.012 (at node 8)
	maximum = 0.031 (at node 1)
Accepted packet rate average = 0.0204375
	minimum = 0.013 (at node 7)
	maximum = 0.03 (at node 4)
Injected flit rate average = 0.02
	minimum = 0.012 (at node 8)
	maximum = 0.031 (at node 1)
Accepted flit rate average= 0.0204375
	minimum = 0.013 (at node 7)
	maximum = 0.03 (at node 4)
Injected packet length average = 1
Accepted packet length average = 1
Total in-flight flits = 5 (0 measured)
latency change    = 0.0245917
throughput change = 0.0275229
Warmed up ...Time used is 3000 cycles
Class 0:
Packet latency average = 20.3576
	minimum = 7
	maximum = 44
Network latency average = 20.3576
	minimum = 7
	maximum = 44
Slowest packet = 9437
Flit latency average = 20.3988
	minimum = 7
	maximum = 44
Slowest flit = 9437
Fragmentation average = 0
	minimum = 0
	maximum = 0
Injected packet rate average = 0.0198125
	minimum = 0.013 (at node 9)
	maximum = 0.028 (at node 7)
Accepted packet rate average = 0.0200625
	minimum = 0.013 (at node 6)
	maximum = 0.028 (at node 13)
Injected flit rate average = 0.0198125
	minimum = 0.013 (at node 9)
	maximum = 0.028 (at node 7)
Accepted flit rate average= 0.0200625
	minimum = 0.013 (at node 6)
	maximum = 0.028 (at node 13)
Injected packet length average = 1
Accepted packet length average = 1
Total in-flight flits = 1 (1 measured)
latency change    = 0.0632323
throughput change = 0.0186916
Class 0:
Packet latency average = 19.4526
	minimum = 7
	maximum = 44
Network latency average = 19.4526
	minimum = 7
	maximum = 44
Slowest packet = 9437
Flit latency average = 19.4799
	minimum = 7
	maximum = 44
Slowest flit = 9437
Fragmentation average = 0
	minimum = 0
	maximum = 0
Injected packet rate average = 0.0203125
	minimum = 0.0145 (at node 15)
	maximum = 0.0275 (at node 6)
Accepted packet rate average = 0.02025
	minimum = 0.0145 (at node 15)
	maximum = 0.0275 (at node 9)
Injected flit rate average = 0.0203125
	minimum = 0.0145 (at node 15)
	maximum = 0.0275 (at node 6)
Accepted flit rate average= 0.02025
	minimum = 0.0145 (at node 15)
	maximum = 0.0275 (at node 9)
Injected packet length average = 1
Accepted packet length average = 1
Total in-flight flits = 7 (7 measured)
latency change    = 0.0465249
throughput change = 0.00925926
Class 0:
Packet latency average = 19.4926
	minimum = 7
	maximum = 44
Network latency average = 19.4926
	minimum = 7
	maximum = 44
Slowest packet = 9437
Flit latency average = 19.511
	minimum = 7
	maximum = 44
Slowest flit = 9437
Fragmentation average = 0
	minimum = 0
	maximum = 0
Injected packet rate average = 0.0199792
	minimum = 0.0143333 (at node 11)
	maximum = 0.0273333 (at node 6)
Accepted packet rate average = 0.0199375
	minimum = 0.0143333 (at node 14)
	maximum = 0.0273333 (at node 9)
Injected flit rate average = 0.0199792
	minimum = 0.0143333 (at node 11)
	maximum = 0.0273333 (at node 6)
Accepted flit rate average= 0.0199375
	minimum = 0.0143333 (at node 14)
	maximum = 0.0273333 (at node 9)
Injected packet length average = 1
Accepted packet length average = 1
Total in-flight flits = 7 (7 measured)
latency change    = 0.00205621
throughput change = 0.015674
Class 0:
Packet latency average = 19.3468
	minimum = 7
	maximum = 44
Network latency average = 19.3468
	minimum = 7
	maximum = 44
Slowest packet = 9437
Flit latency average = 19.3607
	minimum = 7
	maximum = 44
Slowest flit = 9437
Fragmentation average = 0
	minimum = 0
	maximum = 0
Injected packet rate average = 0.0205156
	minimum = 0.01575 (at node 3)
	maximum = 0.02625 (at node 6)
Accepted packet rate average = 0.0205313
	minimum = 0.016 (at node 12)
	maximum = 0.02625 (at node 9)
Injected flit rate average = 0.0205156
	minimum = 0.01575 (at node 3)
	maximum = 0.02625 (at node 6)
Accepted flit rate average= 0.0205313
	minimum = 0.016 (at node 12)
	maximum = 0.02625 (at node 9)
Injected packet length average = 1
Accepted packet length average = 1
Total in-flight flits = 4 (4 measured)
latency change    = 0.00753702
throughput change = 0.0289193
Draining all recorded packets ...
Draining remaining packets ...
Time taken is 7055 cycles
Class 0:
Packet latency average = 19.1188
	minimum = 7
	maximum = 37
Network latency average = 19.1188
	minimum = 7
	maximum = 37
Slowest packet = 10599
Flit latency average = 19.1188
	minimum = 7
	maximum = 37
Slowest flit = 10599
Fragmentation average = 0
	minimum = 0
	maximum = 0
Injected packet rate average = 0.01925
	minimum = 0.012 (at node 8)
	maximum = 0.033 (at node 14)
Accepted packet rate average = 0.0189375
	minimum = 0.012 (at node 2)
	maximum = 0.033 (at node 11)
Injected flit rate average = 0.01925
	minimum = 0.012 (at node 8)
	maximum = 0.033 (at node 14)
Accepted flit rate average= 0.0189375
	minimum = 0.012 (at node 2)
	maximum = 0.033 (at node 11)
Injected packet length average = 1
Accepted packet length average = 1
Total in-flight flits = 5 (0 measured)
latency change    = 1
throughput change = 1
Class 0:
Packet latency average = 18.9275
	minimum = 7
	maximum = 37
Network latency average = 18.9275
	minimum = 7
	maximum = 37
Slowest packet = 10599
Flit latency average = 18.9275
	minimum = 7
	maximum = 37
Slowest flit = 10599
Fragmentation average = 0
	minimum = 0
	maximum = 0
Injected packet rate average = 0.0205625
	minimum = 0.015 (at node 3)
	maximum = 0.0285 (at node 14)
Accepted packet rate average = 0.02025
	minimum = 0.0145 (at node 12)
	maximum = 0.028 (at node 11)
Injected flit rate average = 0.0205625
	minimum = 0.015 (at node 3)
	maximum = 0.0285 (at node 14)
Accepted flit rate average= 0.02025
	minimum = 0.0145 (at node 12)
	maximum = 0.028 (at node 11)
Injected packet length average = 1
Accepted packet length average = 1
Total in-flight flits = 10 (0 measured)
latency change    = 0.0101093
throughput change = 0.0648148
Class 0:
Packet latency average = 20.197
	minimum = 7
	maximum = 43
Network latency average = 20.197
	minimum = 7
	maximum = 43
Slowest packet = 11522
Flit latency average = 20.197
	minimum = 7
	maximum = 43
Slowest flit = 11522
Fragmentation average = 0
	minimum = 0
	maximum = 0
Injected packet rate average = 0.02075
	minimum = 0.014 (at node 14)
	maximum = 0.031 (at node 13)
Accepted packet rate average = 0.0209375
	minimum = 0.015 (at node 11)
	maximum = 0.031 (at node 7)
Injected flit rate average = 0.02075
	minimum = 0.014 (at node 14)
	maximum = 0.031 (at node 13)
Accepted flit rate average= 0.0209375
	minimum = 0.015 (at node 11)
	maximum = 0.031 (at node 7)
Injected packet length average = 1
Accepted packet length average = 1
Total in-flight flits = 7 (0 measured)
latency change    = 0.0628581
throughput change = 0.0328358
Warmed up ...Time used is 3000 cycles
Class 0:
Packet latency average = 19.8773
	minimum = 7
	maximum = 43
Network latency average = 19.8773
	minimum = 7
	maximum = 43
Slowest packet = 11867
Flit latency average = 19.9069
	minimum = 7
	maximum = 43
Slowest flit = 11867
Fragmentation average = 0
	minimum = 0
	maximum = 0
Injected packet rate average = 0.0208125
	minimum = 0.012 (at node 1)
	maximum = 0.03 (at node 8)
Accepted packet rate average = 0.0208125
	minimum = 0.012 (at node 4)
	maximum = 0.03 (at node 2)
Injected flit rate average = 0.0208125
	minimum = 0.012 (at node 1)
	maximum = 0.03 (at node 8)
Accepted flit rate average= 0.0208125
	minimum = 0.012 (at node 4)
	maximum = 0.03 (at node 2)
Injected packet length average = 1
Accepted packet length average = 1
Total in-flight flits = 7 (7 measured)
latency change    = 0.0160844
throughput change = 0.00600601
Class 0:
Packet latency average = 19.6153
	minimum = 7
	maximum = 43
Network latency average = 19.6153
	minimum = 7
	maximum = 43
Slowest packet = 11867
Flit latency average = 19.6336
	minimum = 7
	maximum = 43
Slowest flit = 11867
Fragmentation average = 0
	minimum = 0
	maximum = 0
Injected packet rate average = 0.01975
	minimum = 0.0155 (at node 1)
	maximum = 0.0255 (at node 11)
Accepted packet rate average = 0.019875
	minimum = 0.0155 (at node 4)
	maximum = 0.0255 (at node 14)
Injected flit rate average = 0.01975
	minimum = 0.0155 (at node 1)
	maximum = 0.0255 (at node 11)
Accepted flit rate average= 0.019875
	minimum = 0.0155 (at node 4)
	maximum = 0.0255 (at node 14)
Injected packet length average = 1
Accepted packet length average = 1
Total in-flight flits = 3 (3 measured)
latency change    = 0.0133589
throughput change = 0.0471698
Class 0:
Packet latency average = 19.7063
	minimum = 7
	maximum = 43
Network latency average = 19.7063
	minimum = 7
	maximum = 43
Slowest packet = 11867
Flit latency average = 19.7183
	minimum = 7
	maximum = 43
Slowest flit = 11867
Fragmentation average = 0
	minimum = 0
	maximum = 0
Injected packet rate average = 0.0192708
	minimum = 0.0156667 (at node 6)
	maximum = 0.023 (at node 11)
Accepted packet rate average = 0.0192292
	minimum = 0.016 (at node 9)
	maximum = 0.023 (at node 14)
Injected flit rate average = 0.0192708
	minimum = 0.0156667 (at node 6)
	maximum = 0.023 (at node 11)
Accepted flit rate average= 0.0192292
	minimum = 0.016 (at node 9)
	maximum = 0.023 (at node 14)
Injected packet length average = 1
Accepted packet length average = 1
Total in-flight flits = 9 (9 measured)
latency change    = 0.00462133
throughput change = 0.0335861
Draining all recorded packets ...
Draining remaining packets ...
Time taken is 6060 cycles
Class 0:
Packet latency average = 20.232
	minimum = 7
	maximum = 45
Network latency average = 20.232
	minimum = 7
	maximum = 45
Slowest packet = 12704
Flit latency average = 20.232
	minimum = 7
	maximum = 45
Slowest flit = 12704
Fragmentation average = 0
	minimum = 0
	maximum = 0
Injected packet rate average = 0.020125
	minimum = 0.011 (at node 5)
	maximum = 0.029 (at node 7)
Accepted packet rate average = 0.0199375
	minimum = 0.011 (at node 5)
	maximum = 0.029 (at node 13)
Injected flit rate average = 0.020125
	minimum = 0.011 (at node 5)
	maximum = 0.029 (at node 7)
Accepted flit rate average= 0.0199375
	minimum = 0.011 (at node 5)
	maximum = 0.029 (at node 13)
Injected packet length average = 1
Accepted packet length average = 1
Total in-flight flits = 3 (0 measured)
latency change    = 1
throughput change = 1
Class 0:
Packet latency average = 19.6929
	minimum = 7
	maximum = 45
Network latency average = 19.6929
	minimum = 7
	maximum = 45
Slowest packet = 12704
Flit latency average = 19.6929
	minimum = 7
	maximum = 45
Slowest flit = 12704
Fragmentation average = 0
	minimum = 0
	maximum = 0
Injected packet rate average = 0.0199688
	minimum = 0.015 (at node 14)
	maximum = 0.0275 (at node 0)
Accepted packet rate average = 0.0198438
	minimum = 0.015 (at node 11)
	maximum = 0.0275 (at node 0)
Injected flit rate average = 0.0199688
	minimum = 0.015 (at node 14)
	maximum = 0.0275 (at node 0)
Accepted flit rate average= 0.0198438
	minimum = 0.015 (at node 11)
	maximum = 0.0275 (at node 0)
Injected packet length average = 1
Accepted packet length average = 1
Total in-flight flits = 4 (0 measured)
latency change    = 0.0273734
throughput change = 0.00472441
Class 0:
Packet latency average = 18.8665
	minimum = 7
	maximum = 37
Network latency average = 18.8665
	minimum = 7
	maximum = 37
Slowest packet = 13144
Flit latency average = 18.8665
	minimum = 7
	maximum = 37
Slowest flit = 13144
Fragmentation average = 0
	minimum = 0
	maximum = 0
Injected packet rate average = 0.022875
	minimum = 0.015 (at node 12)
	maximum = 0.028 (at node 0)
Accepted packet rate average = 0.0229375
	minimum = 0.016 (at node 3)
	maximum = 0.028 (at node 0)
Injected flit rate average = 0.022875
	minimum = 0.015 (at node 12)
	maximum = 0.028 (at node 0)
Accepted flit rate average= 0.0229375
	minimum = 0.016 (at node 3)
	maximum = 0.028 (at node 0)
Injected packet length average = 1
Accepted packet length average = 1
Total in-flight flits = 3 (0 measured)
latency change    = 0.043804
throughput change = 0.134877
Warmed up ...Time used is 3000 cycles
Class 0:
Packet latency average = 19.068
	minimum = 7
	maximum = 37
Network latency average = 19.068
	minimum = 7
	maximum = 37
Slowest packet = 13541
Flit latency average = 19.0833
	minimum = 7
	maximum = 37
Slowest flit = 13541
Fragmentation average = 0
	minimum = 0
	maximum = 0
Injected packet rate average = 0.0200625
	minimum = 0.009 (at node 12)
	maximum = 0.03 (at node 7)
Accepted packet rate average = 0.0195
	minimum = 0.008 (at node 3)
	maximum = 0.029 (at node 13)
Injected flit rate average = 0.0200625
	minimum = 0.009 (at node 12)
	maximum = 0.03 (at node 7)
Accepted flit rate average= 0.0195
	minimum = 0.008 (at node 3)
	maximum = 0.029 (at node 13)
Injected packet length average = 1
Accepted packet length average = 1
Total in-flight flits = 12 (12 measured)
latency change    = 0.0105662
throughput change = 0.176282
Class 0:
Packet latency average = 19.5516
	minimum = 7
	maximum = 37
Network latency average = 19.5516
	minimum = 7
	maximum = 37
Slowest packet = 13541
Flit latency average = 19.5568
	minimum = 7
	maximum = 37
Slowest flit = 13541
Fragmentation average = 0
	minimum = 0
	maximum = 0
Injected packet rate average = 0.0202188
	minimum = 0.015 (at node 12)
	maximum = 0.0275 (at node 8)
Accepted packet rate average = 0.0200938
	minimum = 0.0145 (at node 3)
	maximum = 0.0275 (at node 2)
Injected flit rate average = 0.0202188
	minimum = 0.015 (at node 12)
	maximum = 0.0275 (at node 8)
Accepted flit rate average= 0.0200938
	minimum = 0.0145 (at node 3)
	maximum = 0.0275 (at node 2)
Injected packet length average = 1
Accepted packet length average = 1
Total in-flight flits = 7 (7 measured)
latency change    = 0.0247347
throughput change = 0.029549
Class 0:
Packet latency average = 19.3635
	minimum = 7
	maximum = 42
Network latency average = 19.3635
	minimum = 7
	maximum = 42
Slowest packet = 14412
Flit latency average = 19.3677
	minimum = 7
	maximum = 42
Slowest flit = 14412
Fragmentation average = 0
	minimum = 0
	maximum = 0
Injected packet rate average = 0.0196667
	minimum = 0.0146667 (at node 12)
	maximum = 0.0253333 (at node 8)
Accepted packet rate average = 0.0196042
	minimum = 0.0143333 (at node 3)
	maximum = 0.0256667 (at node 2)
Injected flit rate average = 0.0196667
	minimum = 0.0146667 (at node 12)
	maximum = 0.0253333 (at node 8)
Accepted flit rate average= 0.0196042
	minimum = 0.0143333 (at node 3)
	maximum = 0.0256667 (at node 2)
Injected packet length average = 1
Accepted packet length average = 1
Total in-flight flits = 6 (6 measured)
latency change    = 0.00971016
throughput change = 0.0249734
Class 0:
Packet latency average = 19.5047
	minimum = 7
	maximum = 46
Network latency average = 19.5047
	minimum = 7
	maximum = 46
Slowest packet = 14692
Flit latency average = 19.5074
	minimum = 7
	maximum = 46
Slowest flit = 14692
Fragmentation average = 0
	minimum = 0
	maximum = 0
Injected packet rate average = 0.020125
	minimum = 0.01575 (at node 1)
	maximum = 0.02575 (at node 8)
Accepted packet rate average = 0.0200156
	minimum = 0.0155 (at node 3)
	maximum = 0.0255 (at node 2)
Injected flit rate average = 0.020125
	minimum = 0.01575 (at node 1)
	maximum = 0.02575 (at node 8)
Accepted flit rate average= 0.0200156
	minimum = 0.0155 (at node 3)
	maximum = 0.0255 (at node 2)
Injected packet length average = 1
Accepted packet length average = 1
Total in-flight flits = 10 (10 measured)
latency change    = 0.007237
throughput change = 0.0205569
Draining all recorded packets ...
Draining remaining packets ...
Time taken is 7058 cycles
Class 0:
Packet latency average = 18.5927
	minimum = 7
	maximum = 46
Network latency average = 18.5927
	minimum = 7
	maximum = 46
Slowest packet = 15050
Flit latency average = 18.5927
	minimum = 7
	maximum = 46
Slowest flit = 15050
Fragmentation average = 0
	minimum = 0
	maximum = 0
Injected packet rate average = 0.019
	minimum = 0.013 (at node 1)
	maximum = 0.029 (at node 10)
Accepted packet rate average = 0.018875
	minimum = 0.013 (at node 4)
	maximum = 0.029 (at node 10)
Injected flit rate average = 0.019
	minimum = 0.013 (at node 1)
	maximum = 0.029 (at node 10)
Accepted flit rate average= 0.018875
	minimum = 0.013 (at node 4)
	maximum = 0.029 (at node 10)
Injected packet length average = 1
Accepted packet length average = 1
Total in-flight flits = 2 (0 measured)
latency change    = 1
throughput change = 1
Class 0:
Packet latency average = 18.7755
	minimum = 7
	maximum = 46
Network latency average = 18.7755
	minimum = 7
	maximum = 46
Slowest packet = 15050
Flit latency average = 18.7755
	minimum = 7
	maximum = 46
Slowest flit = 15050
Fragmentation average = 0
	minimum = 0
	maximum = 0
Injected packet rate average = 0.0189062
	minimum = 0.011 (at node 1)
	maximum = 0.0265 (at node 9)
Accepted packet rate average = 0.0186562
	minimum = 0.0105 (at node 4)
	maximum = 0.026 (at node 6)
Injected flit rate average = 0.0189062
	minimum = 0.011 (at node 1)
	maximum = 0.0265 (at node 9)
Accepted flit rate average= 0.0186562
	minimum = 0.0105 (at node 4)
	maximum = 0.026 (at node 6)
Injected packet length average = 1
Accepted packet length average = 1
Total in-flight flits = 8 (0 measured)
latency change    = 0.00973762
throughput change = 0.0117253
Class 0:
Packet latency average = 19.5132
	minimum = 7
	maximum = 43
Network latency average = 19.5132
	minimum = 7
	maximum = 43
Slowest packet = 15656
Flit latency average = 19.5132
	minimum = 7
	maximum = 43
Slowest flit = 15656
Fragmentation average = 0
	minimum = 0
	maximum = 0
Injected packet rate average = 0.018875
	minimum = 0.008 (at node 8)
	maximum = 0.026 (at node 6)
Accepted packet rate average = 0.019
	minimum = 0.008 (at node 2)
	maximum = 0.027 (at node 9)
Injected flit rate average = 0.018875
	minimum = 0.008 (at node 8)
	maximum = 0.026 (at node 6)
Accepted flit rate average= 0.019
	minimum = 0.008 (at node 2)
	maximum = 0.027 (at node 9)
Injected packet length average = 1
Accepted packet length average = 1
Total in-flight flits = 6 (0 measured)
latency change    = 0.0378008
throughput change = 0.0180921
Warmed up ...Time used is 3000 cycles
Class 0:
Packet latency average = 20.0453
	minimum = 7
	maximum = 37
Network latency average = 20.0453
	minimum = 7
	maximum = 37
Slowest packet = 15729
Flit latency average = 20.256
	minimum = 7
	maximum = 37
Slowest flit = 15715
Fragmentation average = 0
	minimum = 0
	maximum = 0
Injected packet rate average = 0.018375
	minimum = 0.014 (at node 11)
	maximum = 0.027 (at node 4)
Accepted packet rate average = 0.0183125
	minimum = 0.014 (at node 14)
	maximum = 0.025 (at node 1)
Injected flit rate average = 0.018375
	minimum = 0.014 (at node 11)
	maximum = 0.027 (at node 4)
Accepted flit rate average= 0.0183125
	minimum = 0.014 (at node 14)
	maximum = 0.025 (at node 1)
Injected packet length average = 1
Accepted packet length average = 1
Total in-flight flits = 7 (7 measured)
latency change    = 0.0265468
throughput change = 0.0375427
Class 0:
Packet latency average = 19.9502
	minimum = 7
	maximum = 37
Network latency average = 19.9502
	minimum = 7
	maximum = 37
Slowest packet = 15729
Flit latency average = 20.0494
	minimum = 7
	maximum = 37
Slowest flit = 15715
Fragmentation average = 0
	minimum = 0
	maximum = 0
Injected packet rate average = 0.019625
	minimum = 0.0125 (at node 9)
	maximum = 0.0265 (at node 13)
Accepted packet rate average = 0.019625
	minimum = 0.0125 (at node 6)
	maximum = 0.0265 (at node 7)
Injected flit rate average = 0.019625
	minimum = 0.0125 (at node 9)
	maximum = 0.0265 (at node 13)
Accepted flit rate average= 0.019625
	minimum = 0.0125 (at node 6)
	maximum = 0.0265 (at node 7)
Injected packet length average = 1
Accepted packet length average = 1
Total in-flight flits = 6 (6 measured)
latency change    = 0.00476865
throughput change = 0.066879
Class 0:
Packet latency average = 19.7129
	minimum = 7
	maximum = 43
Network latency average = 19.7129
	minimum = 7
	maximum = 43
Slowest packet = 16344
Flit latency average = 19.78
	minimum = 7
	maximum = 43
Slowest flit = 16344
Fragmentation average = 0
	minimum = 0
	maximum = 0
Injected packet rate average = 0.01975
	minimum = 0.0146667 (at node 9)
	maximum = 0.025 (at node 3)
Accepted packet rate average = 0.0197917
	minimum = 0.0143333 (at node 6)
	maximum = 0.0246667 (at node 12)
Injected flit rate average = 0.01975
	minimum = 0.0146667 (at node 9)
	maximum = 0.025 (at node 3)
Accepted flit rate average= 0.0197917
	minimum = 0.0143333 (at node 6)
	maximum = 0.0246667 (at node 12)
Injected packet length average = 1
Accepted packet length average = 1
Total in-flight flits = 4 (4 measured)
latency change    = 0.0120346
throughput change = 0.00842105
Class 0:
Packet latency average = 19.4905
	minimum = 7
	maximum = 43
Network latency average = 19.4905
	minimum = 7
	maximum = 43
Slowest packet = 16344
Flit latency average = 19.5418
	minimum = 7
	maximum = 43
Slowest flit = 16344
Fragmentation average = 0
	minimum = 0
	maximum = 0
Injected packet rate average = 0.0198281
	minimum = 0.01625 (at node 6)
	maximum = 0.02575 (at node 3)
Accepted packet rate average = 0.0198125
	minimum = 0.01625 (at node 9)
	maximum = 0.02525 (at node 12)
Injected flit rate average = 0.0198281
	minimum = 0.01625 (at node 6)
	maximum = 0.02575 (at node 3)
Accepted flit rate average= 0.0198125
	minimum = 0.01625 (at node 9)
	maximum = 0.02525 (at node 12)
Injected packet length average = 1
Accepted packet length average = 1
Total in-flight flits = 7 (7 measured)
latency change    = 0.0114124
throughput change = 0.00105152
Class 0:
Packet latency average = 19.5118
	minimum = 7
	maximum = 45
Network latency average = 19.5118
	minimum = 7
	maximum = 45
Slowest packet = 17113
Flit latency average = 19.5529
	minimum = 7
	maximum = 45
Slowest flit = 17113
Fragmentation average = 0
	minimum = 0
	maximum = 0
Injected packet rate average = 0.0197125
	minimum = 0.0166 (at node 6)
	maximum = 0.0248 (at node 3)
Accepted packet rate average = 0.0197375
	minimum = 0.0166 (at node 9)
	maximum = 0.0246 (at node 12)
Injected flit rate average = 0.0197125
	minimum = 0.0166 (at node 6)
	maximum = 0.0248 (at node 3)
Accepted flit rate average= 0.0197375
	minimum = 0.0166 (at node 9)
	maximum = 0.0246 (at node 12)
Injected packet length average = 1
Accepted packet length average = 1
Total in-flight flits = 4 (4 measured)
latency change    = 0.0010901
throughput change = 0.00379987
Draining all recorded packets ...
Draining remaining packets ...
Time taken is 8046 cycles
Class 0:
Packet latency average = 19.7708
	minimum = 7
	maximum = 38
Network latency average = 19.7708
	minimum = 7
	maximum = 38
Slowest packet = 17317
Flit latency average = 19.7708
	minimum = 7
	maximum = 38
Slowest flit = 17317
Fragmentation average = 0
	minimum = 0
	maximum = 0
Injected packet rate average = 0.018375
	minimum = 0.012 (at node 8)
	maximum = 0.027 (at node 12)
Accepted packet rate average = 0.018
	minimum = 0.011 (at node 2)
	maximum = 0.026 (at node 3)
Injected flit rate average = 0.018375
	minimum = 0.012 (at node 8)
	maximum = 0.027 (at node 12)
Accepted flit rate average= 0.018
	minimum = 0.011 (at node 2)
	maximum = 0.026 (at node 3)
Injected packet length average = 1
Accepted packet length average = 1
Total in-flight flits = 6 (0 measured)
latency change    = 1
throughput change = 1
Class 0:
Packet latency average = 20.1122
	minimum = 7
	maximum = 45
Network latency average = 20.1122
	minimum = 7
	maximum = 45
Slowest packet = 17860
Flit latency average = 20.1122
	minimum = 7
	maximum = 45
Slowest flit = 17860
Fragmentation average = 0
	minimum = 0
	maximum = 0
Injected packet rate average = 0.0190625
	minimum = 0.0155 (at node 15)
	maximum = 0.0245 (at node 12)
Accepted packet rate average = 0.0189375
	minimum = 0.0155 (at node 15)
	maximum = 0.0245 (at node 3)
Injected flit rate average = 0.0190625
	minimum = 0.0155 (at node 15)
	maximum = 0.0245 (at node 12)
Accepted flit rate average= 0.0189375
	minimum = 0.0155 (at node 15)
	maximum = 0.0245 (at node 3)
Injected packet length average = 1
Accepted packet length average = 1
Total in-flight flits = 4 (0 measured)
latency change    = 0.0169737
throughput change = 0.049505
Class 0:
Packet latency average = 19.9709
	minimum = 7
	maximum = 37
Network latency average = 19.9709
	minimum = 7
	maximum = 37
Slowest packet = 17906
Flit latency average = 19.9709
	minimum = 7
	maximum = 37
Slowest flit = 17906
Fragmentation average = 0
	minimum = 0
	maximum = 0
Injected packet rate average = 0.01925
	minimum = 0.011 (at node 5)
	maximum = 0.025 (at node 11)
Accepted packet rate average = 0.0193125
	minimum = 0.011 (at node 5)
	maximum = 0.026 (at node 11)
Injected flit rate average = 0.01925
	minimum = 0.011 (at node 5)
	maximum = 0.025 (at node 11)
Accepted flit rate average= 0.0193125
	minimum = 0.011 (at node 5)
	maximum = 0.026 (at node 11)
Injected packet length average = 1
Accepted packet length average = 1
Total in-flight flits = 3 (0 measured)
latency change    = 0.00707718
throughput change = 0.0194175
Warmed up ...Time used is 3000 cycles
Class 0:
Packet latency average = 18.5743
	minimum = 7
	maximum = 40
Network latency average = 18.5743
	minimum = 7
	maximum = 40
Slowest packet = 18234
Flit latency average = 18.6763
	minimum = 7
	maximum = 40
Slowest flit = 18234
Fragmentation average = 0
	minimum = 0
	maximum = 0
Injected packet rate average = 0.0216875
	minimum = 0.015 (at node 3)
	maximum = 0.032 (at node 10)
Accepted packet rate average = 0.021625
	minimum = 0.015 (at node 12)
	maximum = 0.032 (at node 10)
Injected flit rate average = 0.0216875
	minimum = 0.015 (at node 3)
	maximum = 0.032 (at node 10)
Accepted flit rate average= 0.021625
	minimum = 0.015 (at node 12)
	maximum = 0.032 (at node 10)
Injected packet length average = 1
Accepted packet length average = 1
Total in-flight flits = 4 (4 measured)
latency change    = 0.075186
throughput change = 0.106936
Class 0:
Packet latency average = 18.9799
	minimum = 7
	maximum = 40
Network latency average = 18.9799
	minimum = 7
	maximum = 40
Slowest packet = 18234
Flit latency average = 19.0324
	minimum = 7
	maximum = 40
Slowest flit = 18234
Fragmentation average = 0
	minimum = 0
	maximum = 0
Injected packet rate average = 0.0203438
	minimum = 0.016 (at node 13)
	maximum = 0.027 (at node 5)
Accepted packet rate average = 0.0202813
	minimum = 0.016 (at node 7)
	maximum = 0.027 (at node 5)
Injected flit rate average = 0.0203438
	minimum = 0.016 (at node 13)
	maximum = 0.027 (at node 5)
Accepted flit rate average= 0.0202813
	minimum = 0.016 (at node 7)
	maximum = 0.027 (at node 5)
Injected packet length average = 1
Accepted packet length average = 1
Total in-flight flits = 5 (5 measured)
latency change    = 0.0213664
throughput change = 0.0662558
Class 0:
Packet latency average = 19.1631
	minimum = 7
	maximum = 42
Network latency average = 19.1631
	minimum = 7
	maximum = 42
Slowest packet = 19122
Flit latency average = 19.1985
	minimum = 7
	maximum = 42
Slowest flit = 19122
Fragmentation average = 0
	minimum = 0
	maximum = 0
Injected packet rate average = 0.01975
	minimum = 0.016 (at node 13)
	maximum = 0.0253333 (at node 5)
Accepted packet rate average = 0.0197292
	minimum = 0.0156667 (at node 7)
	maximum = 0.0253333 (at node 5)
Injected flit rate average = 0.01975
	minimum = 0.016 (at node 13)
	maximum = 0.0253333 (at node 5)
Accepted flit rate average= 0.0197292
	minimum = 0.0156667 (at node 7)
	maximum = 0.0253333 (at node 5)
Injected packet length average = 1
Accepted packet length average = 1
Total in-flight flits = 4 (4 measured)
latency change    = 0.00956312
throughput change = 0.0279831
Class 0:
Packet latency average = 19.2774
	minimum = 7
	maximum = 42
Network latency average = 19.2774
	minimum = 7
	maximum = 42
Slowest packet = 19122
Flit latency average = 19.3037
	minimum = 7
	maximum = 42
Slowest flit = 19122
Fragmentation average = 0
	minimum = 0
	maximum = 0
Injected packet rate average = 0.0197188
	minimum = 0.01625 (at node 15)
	maximum = 0.02375 (at node 5)
Accepted packet rate average = 0.0197031
	minimum = 0.01625 (at node 15)
	maximum = 0.02375 (at node 5)
Injected flit rate average = 0.0197188
	minimum = 0.01625 (at node 15)
	maximum = 0.02375 (at node 5)
Accepted flit rate average= 0.0197031
	minimum = 0.01625 (at node 15)
	maximum = 0.02375 (at node 5)
Injected packet length average = 1
Accepted packet length average = 1
Total in-flight flits = 4 (4 measured)
latency change    = 0.00592864
throughput change = 0.0013217
Class 0:
Packet latency average = 19.297
	minimum = 7
	maximum = 42
Network latency average = 19.297
	minimum = 7
	maximum = 42
Slowest packet = 19122
Flit latency average = 19.3178
	minimum = 7
	maximum = 42
Slowest flit = 19122
Fragmentation average = 0
	minimum = 0
	maximum = 0
Injected packet rate average = 0.01995
	minimum = 0.0172 (at node 13)
	maximum = 0.0224 (at node 11)
Accepted packet rate average = 0.0198625
	minimum = 0.0168 (at node 7)
	maximum = 0.0222 (at node 14)
Injected flit rate average = 0.01995
	minimum = 0.0172 (at node 13)
	maximum = 0.0224 (at node 11)
Accepted flit rate average= 0.0198625
	minimum = 0.0168 (at node 7)
	maximum = 0.0222 (at node 14)
Injected packet length average = 1
Accepted packet length average = 1
Total in-flight flits = 10 (10 measured)
latency change    = 0.00101306
throughput change = 0.00802391
Draining all recorded packets ...
Draining remaining packets ...
Time taken is 8056 cycles
Class 0:
Packet latency average = 18.4831
	minimum = 7
	maximum = 37
Network latency average = 18.4831
	minimum = 7
	maximum = 37
Slowest packet = 19830
Flit latency average = 18.4831
	minimum = 7
	maximum = 37
Slowest flit = 19830
Fragmentation average = 0
	minimum = 0
	maximum = 0
Injected packet rate average = 0.0208125
	minimum = 0.012 (at node 13)
	maximum = 0.03 (at node 5)
Accepted packet rate average = 0.0203125
	minimum = 0.012 (at node 7)
	maximum = 0.029 (at node 5)
Injected flit rate average = 0.0208125
	minimum = 0.012 (at node 13)
	maximum = 0.03 (at node 5)
Accepted flit rate average= 0.0203125
	minimum = 0.012 (at node 7)
	maximum = 0.029 (at node 5)
Injected packet length average = 1
Accepted packet length average = 1
Total in-flight flits = 8 (0 measured)
latency change    = 1
throughput change = 1
Class 0:
Packet latency average = 19.3675
	minimum = 7
	maximum = 45
Network latency average = 19.3675
	minimum = 7
	maximum = 45
Slowest packet = 20399
Flit latency average = 19.3675
	minimum = 7
	maximum = 45
Slowest flit = 20399
Fragmentation average = 0
	minimum = 0
	maximum = 0
Injected packet rate average = 0.0199375
	minimum = 0.0135 (at node 13)
	maximum = 0.024 (at node 5)
Accepted packet rate average = 0.0198125
	minimum = 0.0135 (at node 7)
	maximum = 0.024 (at node 5)
Injected flit rate average = 0.0199375
	minimum = 0.0135 (at node 13)
	maximum = 0.024 (at node 5)
Accepted flit rate average= 0.0198125
	minimum = 0.0135 (at node 7)
	maximum = 0.024 (at node 5)
Injected packet length average = 1
Accepted packet length average = 1
Total in-flight flits = 4 (0 measured)
latency change    = 0.0456657
throughput change = 0.0252366
Class 0:
Packet latency average = 18.6451
	minimum = 7
	maximum = 37
Network latency average = 18.6451
	minimum = 7
	maximum = 37
Slowest packet = 20475
Flit latency average = 18.6451
	minimum = 7
	maximum = 37
Slowest flit = 20475
Fragmentation average = 0
	minimum = 0
	maximum = 0
Injected packet rate average = 0.0204375
	minimum = 0.01 (at node 4)
	maximum = 0.031 (at node 5)
Accepted packet rate average = 0.02025
	minimum = 0.01 (at node 1)
	maximum = 0.031 (at node 5)
Injected flit rate average = 0.0204375
	minimum = 0.01 (at node 4)
	maximum = 0.031 (at node 5)
Accepted flit rate average= 0.02025
	minimum = 0.01 (at node 1)
	maximum = 0.031 (at node 5)
Injected packet length average = 1
Accepted packet length average = 1
Total in-flight flits = 7 (0 measured)
latency change    = 0.0387473
throughput change = 0.0216049
Warmed up ...Time used is 3000 cycles
Class 0:
Packet latency average = 18.9167
	minimum = 7
	maximum = 43
Network latency average = 18.9167
	minimum = 7
	maximum = 43
Slowest packet = 20869
Flit latency average = 19.1567
	minimum = 7
	maximum = 43
Slowest flit = 20869
Fragmentation average = 0
	minimum = 0
	maximum = 0
Injected packet rate average = 0.019875
	minimum = 0.011 (at node 11)
	maximum = 0.029 (at node 1)
Accepted packet rate average = 0.0199375
	minimum = 0.012 (at node 14)
	maximum = 0.029 (at node 4)
Injected flit rate average = 0.019875
	minimum = 0.011 (at node 11)
	maximum = 0.029 (at node 1)
Accepted flit rate average= 0.0199375
	minimum = 0.012 (at node 14)
	maximum = 0.029 (at node 4)
Injected packet length average = 1
Accepted packet length average = 1
Total in-flight flits = 6 (6 measured)
latency change    = 0.014358
throughput change = 0.015674
Class 0:
Packet latency average = 19.3547
	minimum = 7
	maximum = 43
Network latency average = 19.3547
	minimum = 7
	maximum = 43
Slowest packet = 20869
Flit latency average = 19.4683
	minimum = 7
	maximum = 43
Slowest flit = 20869
Fragmentation average = 0
	minimum = 0
	maximum = 0
Injected packet rate average = 0.020375
	minimum = 0.017 (at node 15)
	maximum = 0.0275 (at node 1)
Accepted packet rate average = 0.0202188
	minimum = 0.017 (at node 2)
	maximum = 0.0275 (at node 4)
Injected flit rate average = 0.020375
	minimum = 0.017 (at node 15)
	maximum = 0.0275 (at node 1)
Accepted flit rate average= 0.0202188
	minimum = 0.017 (at node 2)
	maximum = 0.0275 (at node 4)
Injected packet length average = 1
Accepted packet length average = 1
Total in-flight flits = 12 (12 measured)
latency change    = 0.0226313
throughput change = 0.0139104
Class 0:
Packet latency average = 19.4498
	minimum = 7
	maximum = 43
Network latency average = 19.4498
	minimum = 7
	maximum = 43
Slowest packet = 20869
Flit latency average = 19.5262
	minimum = 7
	maximum = 43
Slowest flit = 20869
Fragmentation average = 0
	minimum = 0
	maximum = 0
Injected packet rate average = 0.0198125
	minimum = 0.0176667 (at node 15)
	maximum = 0.0223333 (at node 9)
Accepted packet rate average = 0.019875
	minimum = 0.0176667 (at node 15)
	maximum = 0.0223333 (at node 6)
Injected flit rate average = 0.0198125
	minimum = 0.0176667 (at node 15)
	maximum = 0.0223333 (at node 9)
Accepted flit rate average= 0.019875
	minimum = 0.0176667 (at node 15)
	maximum = 0.0223333 (at node 6)
Injected packet length average = 1
Accepted packet length average = 1
Total in-flight flits = 4 (4 measured)
latency change    = 0.00489228
throughput change = 0.0172956
Draining all recorded packets ...
Draining remaining packets ...
Time taken is 6050 cycles
Class 0:
Packet latency average = 20.1879
	minimum = 7
	maximum = 39
Network latency average = 20.1879
	minimum = 7
	maximum = 39
Slowest packet = 21853
Flit latency average = 20.1879
	minimum = 7
	maximum = 39
Slowest flit = 21853
Fragmentation average = 0
	minimum = 0
	maximum = 0
Injected packet rate average = 0.01975
	minimum = 0.015 (at node 8)
	maximum = 0.027 (at node 1)
Accepted packet rate average = 0.019625
	minimum = 0.015 (at node 2)
	maximum = 0.026 (at node 4)
Injected flit rate average = 0.01975
	minimum = 0.015 (at node 8)
	maximum = 0.027 (at node 1)
Accepted flit rate average= 0.019625
	minimum = 0.015 (at node 2)
	maximum = 0.026 (at node 4)
Injected packet length average = 1
Accepted packet length average = 1
Total in-flight flits = 2 (0 measured)
latency change    = 1
throughput change = 1
Class 0:
Packet latency average = 19.6945
	minimum = 7
	maximum = 39
Network latency average = 19.6945
	minimum = 7
	maximum = 39
Slowest packet = 21853
Flit latency average = 19.6945
	minimum = 7
	maximum = 39
Slowest flit = 21853
Fragmentation average = 0
	minimum = 0
	maximum = 0
Injected packet rate average = 0.0199375
	minimum = 0.015 (at node 8)
	maximum = 0.026 (at node 1)
Accepted packet rate average = 0.0198438
	minimum = 0.015 (at node 2)
	maximum = 0.026 (at node 4)
Injected flit rate average = 0.0199375
	minimum = 0.015 (at node 8)
	maximum = 0.026 (at node 1)
Accepted flit rate average= 0.0198438
	minimum = 0.015 (at node 2)
	maximum = 0.026 (at node 4)
Injected packet length average = 1
Accepted packet length average = 1
Total in-flight flits = 3 (0 measured)
latency change    = 0.0250532
throughput change = 0.0110236
Class 0:
Packet latency average = 19.1447
	minimum = 7
	maximum = 37
Network latency average = 19.1447
	minimum = 7
	maximum = 37
Slowest packet = 22396
Flit latency average = 19.1447
	minimum = 7
	maximum = 37
Slowest flit = 22396
Fragmentation average = 0
	minimum = 0
	maximum = 0
Injected packet rate average = 0.0205
	minimum = 0.015 (at node 9)
	maximum = 0.027 (at node 13)
Accepted packet rate average = 0.019875
	minimum = 0.015 (at node 3)
	maximum = 0.026 (at node 7)
Injected flit rate average = 0.0205
	minimum = 0.015 (at node 9)
	maximum = 0.027 (at node 13)
Accepted flit rate average= 0.019875
	minimum = 0.015 (at node 3)
	maximum = 0.026 (at node 7)
Injected packet length average = 1
Accepted packet length average = 1
Total in-flight flits = 13 (0 measured)
latency change    = 0.02872
throughput change = 0.00157233
Warmed up ...Time used is 3000 cycles
Class 0:
Packet latency average = 20.1792
	minimum = 7
	maximum = 43
Network latency average = 20.1792
	minimum = 7
	maximum = 43
Slowest packet = 22859
Flit latency average = 20.2375
	minimum = 7
	maximum = 43
Slowest flit = 22859
Fragmentation average = 0
	minimum = 0
	maximum = 0
Injected packet rate average = 0.019875
	minimum = 0.011 (at node 6)
	maximum = 0.026 (at node 1)
Accepted packet rate average = 0.02
	minimum = 0.012 (at node 9)
	maximum = 0.028 (at node 13)
Injected flit rate average = 0.019875
	minimum = 0.011 (at node 6)
	maximum = 0.026 (at node 1)
Accepted flit rate average= 0.02
	minimum = 0.012 (at node 9)
	maximum = 0.028 (at node 13)
Injected packet length average = 1
Accepted packet length average = 1
Total in-flight flits = 11 (11 measured)
latency change    = 0.0512657
throughput change = 0.00625
Class 0:
Packet latency average = 20.0252
	minimum = 7
	maximum = 47
Network latency average = 20.0252
	minimum = 7
	maximum = 47
Slowest packet = 23139
Flit latency average = 20.0572
	minimum = 7
	maximum = 47
Slowest flit = 23139
Fragmentation average = 0
	minimum = 0
	maximum = 0
Injected packet rate average = 0.0200313
	minimum = 0.015 (at node 15)
	maximum = 0.024 (at node 1)
Accepted packet rate average = 0.0202188
	minimum = 0.0155 (at node 15)
	maximum = 0.0245 (at node 1)
Injected flit rate average = 0.0200313
	minimum = 0.015 (at node 15)
	maximum = 0.024 (at node 1)
Accepted flit rate average= 0.0202188
	minimum = 0.0155 (at node 15)
	maximum = 0.0245 (at node 1)
Injected packet length average = 1
Accepted packet length average = 1
Total in-flight flits = 7 (7 measured)
latency change    = 0.00768613
throughput change = 0.0108192
Class 0:
Packet latency average = 19.9484
	minimum = 7
	maximum = 47
Network latency average = 19.9484
	minimum = 7
	maximum = 47
Slowest packet = 23139
Flit latency average = 19.9709
	minimum = 7
	maximum = 47
Slowest flit = 23139
Fragmentation average = 0
	minimum = 0
	maximum = 0
Injected packet rate average = 0.0199167
	minimum = 0.016 (at node 10)
	maximum = 0.0233333 (at node 4)
Accepted packet rate average = 0.0200417
	minimum = 0.0156667 (at node 10)
	maximum = 0.0243333 (at node 13)
Injected flit rate average = 0.0199167
	minimum = 0.016 (at node 10)
	maximum = 0.0233333 (at node 4)
Accepted flit rate average= 0.0200417
	minimum = 0.0156667 (at node 10)
	maximum = 0.0243333 (at node 13)
Injected packet length average = 1
Accepted packet length average = 1
Total in-flight flits = 7 (7 measured)
latency change    = 0.00385344
throughput change = 0.00883576
Class 0:
Packet latency average = 19.8593
	minimum = 7
	maximum = 47
Network latency average = 19.8593
	minimum = 7
	maximum = 47
Slowest packet = 23139
Flit latency average = 19.8769
	minimum = 7
	maximum = 47
Slowest flit = 23139
Fragmentation average = 0
	minimum = 0
	maximum = 0
Injected packet rate average = 0.0200781
	minimum = 0.01675 (at node 6)
	maximum = 0.0245 (at node 4)
Accepted packet rate average = 0.0201875
	minimum = 0.017 (at node 9)
	maximum = 0.02425 (at node 1)
Injected flit rate average = 0.0200781
	minimum = 0.01675 (at node 6)
	maximum = 0.0245 (at node 4)
Accepted flit rate average= 0.0201875
	minimum = 0.017 (at node 9)
	maximum = 0.02425 (at node 1)
Injected packet length average = 1
Accepted packet length average = 1
Total in-flight flits = 6 (6 measured)
latency change    = 0.00448665
throughput change = 0.00722394
Draining all recorded packets ...
Draining remaining packets ...
Time taken is 7062 cycles
Class 0:
Packet latency average = 19.0865
	minimum = 7
	maximum = 38
Network latency average = 19.0865
	minimum = 7
	maximum = 38
Slowest packet = 24129
Flit latency average = 19.0865
	minimum = 7
	maximum = 38
Slowest flit = 24129
Fragmentation average = 0
	minimum = 0
	maximum = 0
Injected packet rate average = 0.01825
	minimum = 0.01 (at node 13)
	maximum = 0.028 (at node 1)
Accepted packet rate average = 0.0180625
	minimum = 0.01 (at node 1)
	maximum = 0.028 (at node 4)
Injected flit rate average = 0.01825
	minimum = 0.01 (at node 13)
	maximum = 0.028 (at node 1)
Accepted flit rate average= 0.0180625
	minimum = 0.01 (at node 1)
	maximum = 0.028 (at node 4)
Injected packet length average = 1
Accepted packet length average = 1
Total in-flight flits = 3 (0 measured)
latency change    = 1
throughput change = 1
Class 0:
Packet latency average = 18.7945
	minimum = 7
	maximum = 38
Network latency average = 18.7945
	minimum = 7
	maximum = 38
Slowest packet = 24129
Flit latency average = 18.7945
	minimum = 7
	maximum = 38
Slowest flit = 24129
Fragmentation average = 0
	minimum = 0
	maximum = 0
Injected packet rate average = 0.0185
	minimum = 0.0115 (at node 4)
	maximum = 0.0255 (at node 1)
Accepted packet rate average = 0.01825
	minimum = 0.0115 (at node 1)
	maximum = 0.025 (at node 4)
Injected flit rate average = 0.0185
	minimum = 0.0115 (at node 4)
	maximum = 0.0255 (at node 1)
Accepted flit rate average= 0.01825
	minimum = 0.0115 (at node 1)
	maximum = 0.025 (at node 4)
Injected packet length average = 1
Accepted packet length average = 1
Total in-flight flits = 8 (0 measured)
latency change    = 0.0155356
throughput change = 0.010274
Class 0:
Packet latency average = 19.6455
	minimum = 7
	maximum = 45
Network latency average = 19.6455
	minimum = 7
	maximum = 45
Slowest packet = 24784
Flit latency average = 19.6455
	minimum = 7
	maximum = 45
Slowest flit = 24784
Fragmentation average = 0
	minimum = 0
	maximum = 0
Injected packet rate average = 0.021875
	minimum = 0.015 (at node 6)
	maximum = 0.029 (at node 5)
Accepted packet rate average = 0.0216875
	minimum = 0.015 (at node 9)
	maximum = 0.027 (at node 5)
Injected flit rate average = 0.021875
	minimum = 0.015 (at node 6)
	maximum = 0.029 (at node 5)
Accepted flit rate average= 0.0216875
	minimum = 0.015 (at node 9)
	maximum = 0.027 (at node 5)
Injected packet length average = 1
Accepted packet length average = 1
Total in-flight flits = 11 (0 measured)
latency change    = 0.0433184
throughput change = 0.158501
Warmed up ...Time used is 3000 cycles
Class 0:
Packet latency average = 19.7449
	minimum = 7
	maximum = 44
Network latency average = 19.7449
	minimum = 7
	maximum = 44
Slowest packet = 25009
Flit latency average = 19.9082
	minimum = 7
	maximum = 44
Slowest flit = 25009
Fragmentation average = 0
	minimum = 0
	maximum = 0
Injected packet rate average = 0.0185625
	minimum = 0.009 (at node 2)
	maximum = 0.027 (at node 7)
Accepted packet rate average = 0.0190625
	minimum = 0.01 (at node 8)
	maximum = 0.028 (at node 13)
Injected flit rate average = 0.0185625
	minimum = 0.009 (at node 2)
	maximum = 0.027 (at node 7)
Accepted flit rate average= 0.0190625
	minimum = 0.01 (at node 8)
	maximum = 0.028 (at node 13)
Injected packet length average = 1
Accepted packet length average = 1
Total in-flight flits = 3 (3 measured)
latency change    = 0.00503243
throughput change = 0.137705
Class 0:
Packet latency average = 19.4742
	minimum = 7
	maximum = 44
Network latency average = 19.4742
	minimum = 7
	maximum = 44
Slowest packet = 25009
Flit latency average = 19.5554
	minimum = 7
	maximum = 44
Slowest flit = 25009
Fragmentation average = 0
	minimum = 0
	maximum = 0
Injected packet rate average = 0.0200938
	minimum = 0.0145 (at node 3)
	maximum = 0.027 (at node 7)
Accepted packet rate average = 0.0203125
	minimum = 0.0145 (at node 15)
	maximum = 0.027 (at node 13)
Injected flit rate average = 0.0200938
	minimum = 0.0145 (at node 3)
	maximum = 0.027 (at node 7)
Accepted flit rate average= 0.0203125
	minimum = 0.0145 (at node 15)
	maximum = 0.027 (at node 13)
Injected packet length average = 1
Accepted packet length average = 1
Total in-flight flits = 4 (4 measured)
latency change    = 0.0139015
throughput change = 0.0615385
Class 0:
Packet latency average = 19.3948
	minimum = 7
	maximum = 44
Network latency average = 19.3948
	minimum = 7
	maximum = 44
Slowest packet = 25009
Flit latency average = 19.4498
	minimum = 7
	maximum = 44
Slowest flit = 25009
Fragmentation average = 0
	minimum = 0
	maximum = 0
Injected packet rate average = 0.02025
	minimum = 0.0156667 (at node 2)
	maximum = 0.0236667 (at node 14)
Accepted packet rate average = 0.0203333
	minimum = 0.016 (at node 8)
	maximum = 0.024 (at node 11)
Injected flit rate average = 0.02025
	minimum = 0.0156667 (at node 2)
	maximum = 0.0236667 (at node 14)
Accepted flit rate average= 0.0203333
	minimum = 0.016 (at node 8)
	maximum = 0.024 (at node 11)
Injected packet length average = 1
Accepted packet length average = 1
Total in-flight flits = 7 (7 measured)
latency change    = 0.0040918
throughput change = 0.00102459
Class 0:
Packet latency average = 19.439
	minimum = 7
	maximum = 44
Network latency average = 19.439
	minimum = 7
	maximum = 44
Slowest packet = 25009
Flit latency average = 19.4805
	minimum = 7
	maximum = 44
Slowest flit = 25009
Fragmentation average = 0
	minimum = 0
	maximum = 0
Injected packet rate average = 0.0199688
	minimum = 0.01525 (at node 5)
	maximum = 0.0235 (at node 10)
Accepted packet rate average = 0.0200313
	minimum = 0.0155 (at node 8)
	maximum = 0.0235 (at node 10)
Injected flit rate average = 0.0199688
	minimum = 0.01525 (at node 5)
	maximum = 0.0235 (at node 10)
Accepted flit rate average= 0.0200313
	minimum = 0.0155 (at node 8)
	maximum = 0.0235 (at node 10)
Injected packet length average = 1
Accepted packet length average = 1
Total in-flight flits = 7 (7 measured)
latency change    = 0.00227407
throughput change = 0.0150806
Class 0:
Packet latency average = 19.4662
	minimum = 7
	maximum = 45
Network latency average = 19.4662
	minimum = 7
	maximum = 45
Slowest packet = 26499
Flit latency average = 19.4988
	minimum = 7
	maximum = 45
Slowest flit = 26499
Fragmentation average = 0
	minimum = 0
	maximum = 0
Injected packet rate average = 0.020225
	minimum = 0.0162 (at node 5)
	maximum = 0.0238 (at node 10)
Accepted packet rate average = 0.0203
	minimum = 0.0166 (at node 5)
	maximum = 0.0238 (at node 10)
Injected flit rate average = 0.020225
	minimum = 0.0162 (at node 5)
	maximum = 0.0238 (at node 10)
Accepted flit rate average= 0.0203
	minimum = 0.0166 (at node 5)
	maximum = 0.0238 (at node 10)
Injected packet length average = 1
Accepted packet length average = 1
Total in-flight flits = 5 (5 measured)
latency change    = 0.00139666
throughput change = 0.0132389
Draining all recorded packets ...
Draining remaining packets ...
Time taken is 8063 cycles
Class 0:
Packet latency average = 19.8031
	minimum = 7
	maximum = 45
Network latency average = 19.8031
	minimum = 7
	maximum = 45
Slowest packet = 26727
Flit latency average = 19.8031
	minimum = 7
	maximum = 45
Slowest flit = 26727
Fragmentation average = 0
	minimum = 0
	maximum = 0
Injected packet rate average = 0.020125
	minimum = 0.013 (at node 14)
	maximum = 0.028 (at node 7)
Accepted packet rate average = 0.02
	minimum = 0.012 (at node 11)
	maximum = 0.028 (at node 13)
Injected flit rate average = 0.020125
	minimum = 0.013 (at node 14)
	maximum = 0.028 (at node 7)
Accepted flit rate average= 0.02
	minimum = 0.012 (at node 11)
	maximum = 0.028 (at node 13)
Injected packet length average = 1
Accepted packet length average = 1
Total in-flight flits = 2 (0 measured)
latency change    = 1
throughput change = 1
Class 0:
Packet latency average = 19.9519
	minimum = 7
	maximum = 45
Network latency average = 19.9519
	minimum = 7
	maximum = 45
Slowest packet = 26727
Flit latency average = 19.9519
	minimum = 7
	maximum = 45
Slowest flit = 26727
Fragmentation average = 0
	minimum = 0
	maximum = 0
Injected packet rate average = 0.0204063
	minimum = 0.017 (at node 0)
	maximum = 0.0245 (at node 9)
Accepted packet rate average = 0.020125
	minimum = 0.0165 (at node 11)
	maximum = 0.0245 (at node 6)
Injected flit rate average = 0.0204063
	minimum = 0.017 (at node 0)
	maximum = 0.0245 (at node 9)
Accepted flit rate average= 0.020125
	minimum = 0.0165 (at node 11)
	maximum = 0.0245 (at node 6)
Injected packet length average = 1
Accepted packet length average = 1
Total in-flight flits = 9 (0 measured)
latency change    = 0.00745486
throughput change = 0.00621118
Class 0:
Packet latency average = 19.8683
	minimum = 7
	maximum = 37
Network latency average = 19.8683
	minimum = 7
	maximum = 37
Slowest packet = 27223
Flit latency average = 19.8683
	minimum = 7
	maximum = 37
Slowest flit = 27223
Fragmentation average = 0
	minimum = 0
	maximum = 0
Injected packet rate average = 0.02075
	minimum = 0.013 (at node 7)
	maximum = 0.028 (at node 3)
Accepted packet rate average = 0.020875
	minimum = 0.013 (at node 13)
	maximum = 0.028 (at node 12)
Injected flit rate average = 0.02075
	minimum = 0.013 (at node 7)
	maximum = 0.028 (at node 3)
Accepted flit rate average= 0.020875
	minimum = 0.013 (at node 13)
	maximum = 0.028 (at node 12)
Injected packet length average = 1
Accepted packet length average = 1
Total in-flight flits = 7 (0 measured)
latency change    = 0.00420771
throughput change = 0.0359281
Warmed up ...Time used is 3000 cycles
Class 0:
Packet latency average = 19.6721
	minimum = 7
	maximum = 44
Network latency average = 19.6721
	minimum = 7
	maximum = 44
Slowest packet = 27679
Flit latency average = 19.8349
	minimum = 7
	maximum = 44
Slowest flit = 27679
Fragmentation average = 0
	minimum = 0
	maximum = 0
Injected packet rate average = 0.01975
	minimum = 0.015 (at node 0)
	maximum = 0.026 (at node 3)
Accepted packet rate average = 0.0196875
	minimum = 0.015 (at node 0)
	maximum = 0.027 (at node 12)
Injected flit rate average = 0.01975
	minimum = 0.015 (at node 0)
	maximum = 0.026 (at node 3)
Accepted flit rate average= 0.0196875
	minimum = 0.015 (at node 0)
	maximum = 0.027 (at node 12)
Injected packet length average = 1
Accepted packet length average = 1
Total in-flight flits = 8 (8 measured)
latency change    = 0.00997279
throughput change = 0.0603175
Class 0:
Packet latency average = 19.782
	minimum = 7
	maximum = 44
Network latency average = 19.782
	minimum = 7
	maximum = 44
Slowest packet = 27679
Flit latency average = 19.8582
	minimum = 7
	maximum = 44
Slowest flit = 27679
Fragmentation average = 0
	minimum = 0
	maximum = 0
Injected packet rate average = 0.0206563
	minimum = 0.017 (at node 7)
	maximum = 0.026 (at node 14)
Accepted packet rate average = 0.0207188
	minimum = 0.0165 (at node 6)
	maximum = 0.0265 (at node 12)
Injected flit rate average = 0.0206563
	minimum = 0.017 (at node 7)
	maximum = 0.026 (at node 14)
Accepted flit rate average= 0.0207188
	minimum = 0.0165 (at node 6)
	maximum = 0.0265 (at node 12)
Injected packet length average = 1
Accepted packet length average = 1
Total in-flight flits = 5 (5 measured)
latency change    = 0.00555728
throughput change = 0.0497738
Class 0:
Packet latency average = 19.942
	minimum = 7
	maximum = 44
Network latency average = 19.942
	minimum = 7
	maximum = 44
Slowest packet = 27679
Flit latency average = 19.9937
	minimum = 7
	maximum = 44
Slowest flit = 27679
Fragmentation average = 0
	minimum = 0
	maximum = 0
Injected packet rate average = 0.0198333
	minimum = 0.0173333 (at node 1)
	maximum = 0.0236667 (at node 3)
Accepted packet rate average = 0.0199167
	minimum = 0.0173333 (at node 4)
	maximum = 0.0243333 (at node 12)
Injected flit rate average = 0.0198333
	minimum = 0.0173333 (at node 1)
	maximum = 0.0236667 (at node 3)
Accepted flit rate average= 0.0199167
	minimum = 0.0173333 (at node 4)
	maximum = 0.0243333 (at node 12)
Injected packet length average = 1
Accepted packet length average = 1
Total in-flight flits = 3 (3 measured)
latency change    = 0.00802486
throughput change = 0.040272
Class 0:
Packet latency average = 19.8057
	minimum = 7
	maximum = 44
Network latency average = 19.8057
	minimum = 7
	maximum = 44
Slowest packet = 27679
Flit latency average = 19.8468
	minimum = 7
	maximum = 44
Slowest flit = 27679
Fragmentation average = 0
	minimum = 0
	maximum = 0
Injected packet rate average = 0.0192187
	minimum = 0.01675 (at node 7)
	maximum = 0.02225 (at node 3)
Accepted packet rate average = 0.0191719
	minimum = 0.01675 (at node 13)
	maximum = 0.02275 (at node 12)
Injected flit rate average = 0.0192187
	minimum = 0.01675 (at node 7)
	maximum = 0.02225 (at node 3)
Accepted flit rate average= 0.0191719
	minimum = 0.01675 (at node 13)
	maximum = 0.02275 (at node 12)
Injected packet length average = 1
Accepted packet length average = 1
Total in-flight flits = 10 (10 measured)
latency change    = 0.00688217
throughput change = 0.0388481
Draining all recorded packets ...
Draining remaining packets ...
Time taken is 7072 cycles
Class 0:
Packet latency average = 18.4137
	minimum = 7
	maximum = 41
Network latency average = 18.4137
	minimum = 7
	maximum = 41
Slowest packet = 29047
Flit latency average = 18.4137
	minimum = 7
	maximum = 41
Slowest flit = 29047
Fragmentation average = 0
	minimum = 0
	maximum = 0
Injected packet rate average = 0.0211875
	minimum = 0.014 (at node 7)
	maximum = 0.032 (at node 5)
Accepted packet rate average = 0.021
	minimum = 0.014 (at node 13)
	maximum = 0.032 (at node 5)
Injected flit rate average = 0.0211875
	minimum = 0.014 (at node 7)
	maximum = 0.032 (at node 5)
Accepted flit rate average= 0.021
	minimum = 0.014 (at node 13)
	maximum = 0.032 (at node 5)
Injected packet length average = 1
Accepted packet length average = 1
Total in-flight flits = 3 (0 measured)
latency change    = 1
throughput change = 1
Class 0:
Packet latency average = 18.6667
	minimum = 7
	maximum = 41
Network latency average = 18.6667
	minimum = 7
	maximum = 41
Slowest packet = 29047
Flit latency average = 18.6667
	minimum = 7
	maximum = 41
Slowest flit = 29047
Fragmentation average = 0
	minimum = 0
	maximum = 0
Injected packet rate average = 0.0204375
	minimum = 0.0145 (at node 7)
	maximum = 0.025 (at node 14)
Accepted packet rate average = 0.0203438
	minimum = 0.0145 (at node 7)
	maximum = 0.025 (at node 11)
Injected flit rate average = 0.0204375
	minimum = 0.0145 (at node 7)
	maximum = 0.025 (at node 14)
Accepted flit rate average= 0.0203438
	minimum = 0.0145 (at node 7)
	maximum = 0.025 (at node 11)
Injected packet length average = 1
Accepted packet length average = 1
[...]
Fragmentation average = 0
	minimum = 0
	maximum = 0
Injected packet rate average = 0.019875
	minimum = 0.0145 (at node 2)
	maximum = 0.027 (at node 14)
Accepted packet rate average = 0.0197813
	minimum = 0.0145 (at node 1)
	maximum = 0.027 (at node 11)
Injected flit rate average = 0.019875
	minimum = 0.0145 (at node 2)
	maximum = 0.027 (at node 14)
Accepted flit rate average= 0.0197813
	minimum = 0.0145 (at node 1)
	maximum = 0.027 (at node 11)
Injected packet length average = 1
Accepted packet length average = 1
Total in-flight flits = 3 (0 measured)
latency change    = 0.0225839
throughput change = 0.0205371
Class 0:
Packet latency average = 19.9884
	minimum = 7
	maximum = 37
Network latency average = 19.9884
	minimum = 7
	maximum = 37
Slowest packet = 215488
Flit latency average = 19.9884
	minimum = 7
	maximum = 37
Slowest flit = 215488
Fragmentation average = 0
	minimum = 0
	maximum = 0
Injected packet rate average = 0.0218125
	minimum = 0.011 (at node 1)
	maximum = 0.032 (at node 13)
Accepted packet rate average = 0.021625
	minimum = 0.011 (at node 4)
	maximum = 0.031 (at node 7)
Injected flit rate average = 0.0218125
	minimum = 0.011 (at node 1)
	maximum = 0.032 (at node 13)
Accepted flit rate average= 0.021625
	minimum = 0.011 (at node 4)
	maximum = 0.031 (at node 7)
Injected packet length average = 1
Accepted packet length average = 1
Total in-flight flits = 6 (0 measured)
latency change    = 0.0513474
throughput change = 0.0852601
Warmed up ...Time used is 3000 cycles
Class 0:
Packet latency average = 19.8203
	minimum = 7
	maximum = 45
Network latency average = 19.8203
	minimum = 7
	maximum = 45
Slowest packet = 215994
Flit latency average = 19.9302
	minimum = 7
	maximum = 45
Slowest flit = 215994
Fragmentation average = 0
	minimum = 0
	maximum = 0
Injected packet rate average = 0.0185
	minimum = 0.012 (at node 0)
	maximum = 0.024 (at node 4)
Accepted packet rate average = 0.0188125
	minimum = 0.012 (at node 0)
	maximum = 0.026 (at node 1)
Injected flit rate average = 0.0185
	minimum = 0.012 (at node 0)
	maximum = 0.024 (at node 4)
Accepted flit rate average= 0.0188125
	minimum = 0.012 (at node 0)
	maximum = 0.026 (at node 1)
Injected packet length average = 1
Accepted packet length average = 1
Total in-flight flits = 1 (1 measured)
latency change    = 0.0084812
throughput change = 0.149502
Class 0:
Packet latency average = 19.5207
	minimum = 7
	maximum = 45
Network latency average = 19.5207
	minimum = 7
	maximum = 45
Slowest packet = 215994
Flit latency average = 19.5802
	minimum = 7
	maximum = 45
Slowest flit = 215994
Fragmentation average = 0
	minimum = 0
	maximum = 0
Injected packet rate average = 0.0184062
	minimum = 0.013 (at node 3)
	maximum = 0.0235 (at node 14)
Accepted packet rate average = 0.0183125
	minimum = 0.0125 (at node 12)
	maximum = 0.024 (at node 11)
Injected flit rate average = 0.0184062
	minimum = 0.013 (at node 3)
	maximum = 0.0235 (at node 14)
Accepted flit rate average= 0.0183125
	minimum = 0.0125 (at node 12)
	maximum = 0.024 (at node 11)
Injected packet length average = 1
Accepted packet length average = 1
Total in-flight flits = 9 (9 measured)
latency change    = 0.0153503
throughput change = 0.0273038
Class 0:
Packet latency average = 19.8549
	minimum = 7
	maximum = 45
Network latency average = 19.8549
	minimum = 7
	maximum = 45
Slowest packet = 215994
Flit latency average = 19.8916
	minimum = 7
	maximum = 45
Slowest flit = 215994
Fragmentation average = 0
	minimum = 0
	maximum = 0
Injected packet rate average = 0.0187292
	minimum = 0.0133333 (at node 0)
	maximum = 0.0216667 (at node 7)
Accepted packet rate average = 0.0186458
	minimum = 0.0133333 (at node 0)
	maximum = 0.0213333 (at node 13)
Injected flit rate average = 0.0187292
	minimum = 0.0133333 (at node 0)
	maximum = 0.0216667 (at node 7)
Accepted flit rate average= 0.0186458
	minimum = 0.0133333 (at node 0)
	maximum = 0.0213333 (at node 13)
Injected packet length average = 1
Accepted packet length average = 1
Total in-flight flits = 10 (10 measured)
latency change    = 0.0168323
throughput change = 0.0178771
Class 0:
Packet latency average = 19.6003
	minimum = 7
	maximum = 45
Network latency average = 19.6003
	minimum = 7
	maximum = 45
Slowest packet = 215994
Flit latency average = 19.6281
	minimum = 7
	maximum = 45
Slowest flit = 215994
Fragmentation average = 0
	minimum = 0
	maximum = 0
Injected packet rate average = 0.0193594
	minimum = 0.01625 (at node 0)
	maximum = 0.02275 (at node 7)
Accepted packet rate average = 0.0193281
	minimum = 0.01625 (at node 0)
	maximum = 0.0225 (at node 13)
Injected flit rate average = 0.0193594
	minimum = 0.01625 (at node 0)
	maximum = 0.02275 (at node 7)
Accepted flit rate average= 0.0193281
	minimum = 0.01625 (at node 0)
	maximum = 0.0225 (at node 13)
Injected packet length average = 1
Accepted packet length average = 1
Total in-flight flits = 8 (8 measured)
latency change    = 0.012988
throughput change = 0.0353005
Draining all recorded packets ...
Draining remaining packets ...
Time taken is 7061 cycles
Class 0:
Packet latency average = 20.0407
	minimum = 7
	maximum = 38
Network latency average = 20.0407
	minimum = 7
	maximum = 38
Slowest packet = 217186
Flit latency average = 20.0407
	minimum = 7
	maximum = 38
Slowest flit = 217186
Fragmentation average = 0
	minimum = 0
	maximum = 0
Injected packet rate average = 0.0185625
	minimum = 0.012 (at node 9)
	maximum = 0.024 (at node 12)
Accepted packet rate average = 0.0184375
	minimum = 0.012 (at node 6)
	maximum = 0.024 (at node 3)
Injected flit rate average = 0.0185625
	minimum = 0.012 (at node 9)
	maximum = 0.024 (at node 12)
Accepted flit rate average= 0.0184375
	minimum = 0.012 (at node 6)
	maximum = 0.024 (at node 3)
Injected packet length average = 1
Accepted packet length average = 1
Total in-flight flits = 2 (0 measured)
latency change    = 1
throughput change = 1
Class 0:
Packet latency average = 19.6803
	minimum = 7
	maximum = 43
Network latency average = 19.6803
	minimum = 7
	maximum = 43
Slowest packet = 217467
Flit latency average = 19.6803
	minimum = 7
	maximum = 43
Slowest flit = 217467
Fragmentation average = 0
	minimum = 0
	maximum = 0
Injected packet rate average = 0.02
	minimum = 0.0145 (at node 8)
	maximum = 0.027 (at node 12)
Accepted packet rate average = 0.0198438
	minimum = 0.0145 (at node 2)
	maximum = 0.0265 (at node 3)
Injected flit rate average = 0.02
	minimum = 0.0145 (at node 8)
	maximum = 0.027 (at node 12)
Accepted flit rate average= 0.0198438
	minimum = 0.0145 (at node 2)
	maximum = 0.0265 (at node 3)
Injected packet length average = 1
Accepted packet length average = 1
Total in-flight flits = 5 (0 measured)
latency change    = 0.0183108
throughput change = 0.0708661
Class 0:
Packet latency average = 19.1296
	minimum = 7
	maximum = 37
Network latency average = 19.1296
	minimum = 7
	maximum = 37
Slowest packet = 217714
Flit latency average = 19.1296
	minimum = 7
	maximum = 37
Slowest flit = 217714
Fragmentation average = 0
	minimum = 0
	maximum = 0
Injected packet rate average = 0.0205625
	minimum = 0.01 (at node 1)
	maximum = 0.031 (at node 0)
Accepted packet rate average = 0.02025
	minimum = 0.011 (at node 1)
	maximum = 0.031 (at node 0)
Injected flit rate average = 0.0205625
	minimum = 0.01 (at node 1)
	maximum = 0.031 (at node 0)
Accepted flit rate average= 0.02025
	minimum = 0.011 (at node 1)
	maximum = 0.031 (at node 0)
Injected packet length average = 1
Accepted packet length average = 1
Total in-flight flits = 10 (0 measured)
latency change    = 0.028787
throughput change = 0.0200617
Warmed up ...Time used is 3000 cycles
Class 0:
Packet latency average = 20.0673
	minimum = 7
	maximum = 47
Network latency average = 20.0673
	minimum = 7
	maximum = 47
Slowest packet = 218075
Flit latency average = 20.2358
	minimum = 7
	maximum = 47
Slowest flit = 218075
Fragmentation average = 0
	minimum = 0
	maximum = 0
Injected packet rate average = 0.021875
	minimum = 0.014 (at node 11)
	maximum = 0.034 (at node 13)
Accepted packet rate average = 0.022
	minimum = 0.014 (at node 14)
	maximum = 0.035 (at node 7)
Injected flit rate average = 0.021875
	minimum = 0.014 (at node 11)
	maximum = 0.034 (at node 13)
Accepted flit rate average= 0.022
	minimum = 0.014 (at node 14)
	maximum = 0.035 (at node 7)
Injected packet length average = 1
Accepted packet length average = 1
Total in-flight flits = 8 (8 measured)
latency change    = 0.046724
throughput change = 0.0795455
Class 0:
Packet latency average = 20.0863
	minimum = 7
	maximum = 47
Network latency average = 20.0863
	minimum = 7
	maximum = 47
Slowest packet = 218075
Flit latency average = 20.176
	minimum = 7
	maximum = 47
Slowest flit = 218075
Fragmentation average = 0
	minimum = 0
	maximum = 0
Injected packet rate average = 0.020375
	minimum = 0.016 (at node 5)
	maximum = 0.0255 (at node 1)
Accepted packet rate average = 0.0205938
	minimum = 0.016 (at node 5)
	maximum = 0.0255 (at node 4)
Injected flit rate average = 0.020375
	minimum = 0.016 (at node 5)
	maximum = 0.0255 (at node 1)
Accepted flit rate average= 0.0205938
	minimum = 0.016 (at node 5)
	maximum = 0.0255 (at node 4)
Injected packet length average = 1
Accepted packet length average = 1
Total in-flight flits = 3 (3 measured)
latency change    = 0.000947668
throughput change = 0.0682853
Class 0:
Packet latency average = 19.8033
	minimum = 7
	maximum = 47
Network latency average = 19.8033
	minimum = 7
	maximum = 47
Slowest packet = 218075
Flit latency average = 19.8671
	minimum = 7
	maximum = 47
Slowest flit = 218075
Fragmentation average = 0
	minimum = 0
	maximum = 0
Injected packet rate average = 0.020125
	minimum = 0.016 (at node 4)
	maximum = 0.0246667 (at node 1)
Accepted packet rate average = 0.0202292
	minimum = 0.0163333 (at node 1)
	maximum = 0.025 (at node 7)
Injected flit rate average = 0.020125
	minimum = 0.016 (at node 4)
	maximum = 0.0246667 (at node 1)
Accepted flit rate average= 0.0202292
	minimum = 0.0163333 (at node 1)
	maximum = 0.025 (at node 7)
Injected packet length average = 1
Accepted packet length average = 1
Total in-flight flits = 5 (5 measured)
latency change    = 0.0142883
throughput change = 0.0180227
Class 0:
Packet latency average = 20.0101
	minimum = 7
	maximum = 47
Network latency average = 20.0101
	minimum = 7
	maximum = 47
Slowest packet = 218075
Flit latency average = 20.0565
	minimum = 7
	maximum = 47
Slowest flit = 218075
Fragmentation average = 0
	minimum = 0
	maximum = 0
Injected packet rate average = 0.020125
	minimum = 0.01675 (at node 15)
	maximum = 0.0255 (at node 2)
Accepted packet rate average = 0.0202031
	minimum = 0.01675 (at node 15)
	maximum = 0.02525 (at node 8)
Injected flit rate average = 0.020125
	minimum = 0.01675 (at node 15)
	maximum = 0.0255 (at node 2)
Accepted flit rate average= 0.0202031
	minimum = 0.01675 (at node 15)
	maximum = 0.02525 (at node 8)
Injected packet length average = 1
Accepted packet length average = 1
Total in-flight flits = 5 (5 measured)
latency change    = 0.0103349
throughput change = 0.00128899
Class 0:
Packet latency average = 19.7913
	minimum = 7
	maximum = 47
Network latency average = 19.7913
	minimum = 7
	maximum = 47
Slowest packet = 218075
Flit latency average = 19.8303
	minimum = 7
	maximum = 47
Slowest flit = 218075
Fragmentation average = 0
	minimum = 0
	maximum = 0
Injected packet rate average = 0.0198625
	minimum = 0.0162 (at node 11)
	maximum = 0.025 (at node 2)
Accepted packet rate average = 0.0198875
	minimum = 0.0164 (at node 14)
	maximum = 0.025 (at node 8)
Injected flit rate average = 0.0198625
	minimum = 0.0162 (at node 11)
	maximum = 0.025 (at node 2)
Accepted flit rate average= 0.0198875
	minimum = 0.0164 (at node 14)
	maximum = 0.025 (at node 8)
Injected packet length average = 1
Accepted packet length average = 1
Total in-flight flits = 8 (8 measured)
latency change    = 0.0110585
throughput change = 0.0158705
Draining all recorded packets ...
Draining remaining packets ...
Time taken is 8052 cycles
Class 0:
Packet latency average = 19.6877
	minimum = 7
	maximum = 46
Network latency average = 19.6877
	minimum = 7
	maximum = 46
Slowest packet = 219804
Flit latency average = 19.6877
	minimum = 7
	maximum = 46
Slowest flit = 219804
Fragmentation average = 0
	minimum = 0
	maximum = 0
Injected packet rate average = 0.01725
	minimum = 0.009 (at node 7)
	maximum = 0.025 (at node 1)
Accepted packet rate average = 0.0168125
	minimum = 0.008 (at node 13)
	maximum = 0.025 (at node 4)
Injected flit rate average = 0.01725
	minimum = 0.009 (at node 7)
	maximum = 0.025 (at node 1)
Accepted flit rate average= 0.0168125
	minimum = 0.008 (at node 13)
	maximum = 0.025 (at node 4)
Injected packet length average = 1
Accepted packet length average = 1
Total in-flight flits = 7 (0 measured)
latency change    = 1
throughput change = 1
Class 0:
Packet latency average = 19.3838
	minimum = 7
	maximum = 46
Network latency average = 19.3838
	minimum = 7
	maximum = 46
Slowest packet = 219804
Flit latency average = 19.3838
	minimum = 7
	maximum = 46
Slowest flit = 219804
Fragmentation average = 0
	minimum = 0
	maximum = 0
Injected packet rate average = 0.01975
	minimum = 0.015 (at node 5)
	maximum = 0.0265 (at node 2)
Accepted packet rate average = 0.019625
	minimum = 0.0145 (at node 3)
	maximum = 0.026 (at node 8)
Injected flit rate average = 0.01975
	minimum = 0.015 (at node 5)
	maximum = 0.0265 (at node 2)
Accepted flit rate average= 0.019625
	minimum = 0.0145 (at node 3)
	maximum = 0.026 (at node 8)
Injected packet length average = 1
Accepted packet length average = 1
Total in-flight flits = 4 (0 measured)
latency change    = 0.0156819
throughput change = 0.143312
Class 0:
Packet latency average = 20.0843
	minimum = 7
	maximum = 45
Network latency average = 20.0843
	minimum = 7
	maximum = 45
Slowest packet = 220326
Flit latency average = 20.0843
	minimum = 7
	maximum = 45
Slowest flit = 220326
Fragmentation average = 0
	minimum = 0
	maximum = 0
Injected packet rate average = 0.02075
	minimum = 0.014 (at node 5)
	maximum = 0.031 (at node 9)
Accepted packet rate average = 0.02075
	minimum = 0.014 (at node 5)
	maximum = 0.031 (at node 6)
Injected flit rate average = 0.02075
	minimum = 0.014 (at node 5)
	maximum = 0.031 (at node 9)
Accepted flit rate average= 0.02075
	minimum = 0.014 (at node 5)
	maximum = 0.031 (at node 6)
Injected packet length average = 1
Accepted packet length average = 1
Total in-flight flits = 4 (0 measured)
latency change    = 0.0348819
throughput change = 0.0542169
Warmed up ...Time used is 3000 cycles
Class 0:
Packet latency average = 19.0963
	minimum = 7
	maximum = 37
Network latency average = 19.0963
	minimum = 7
	maximum = 37
Slowest packet = 220627
Flit latency average = 19.1672
	minimum = 7
	maximum = 37
Slowest flit = 220627
Fragmentation average = 0
	minimum = 0
	maximum = 0
Injected packet rate average = 0.0190625
	minimum = 0.01 (at node 13)
	maximum = 0.027 (at node 1)
Accepted packet rate average = 0.0190625
	minimum = 0.01 (at node 7)
	maximum = 0.027 (at node 4)
Injected flit rate average = 0.0190625
	minimum = 0.01 (at node 13)
	maximum = 0.027 (at node 1)
Accepted flit rate average= 0.0190625
	minimum = 0.01 (at node 7)
	maximum = 0.027 (at node 4)
Injected packet length average = 1
Accepted packet length average = 1
Total in-flight flits = 4 (4 measured)
latency change    = 0.0517372
throughput change = 0.0885246
Class 0:
Packet latency average = 19.4043
	minimum = 7
	maximum = 38
Network latency average = 19.4043
	minimum = 7
	maximum = 38
Slowest packet = 221133
Flit latency average = 19.435
	minimum = 7
	maximum = 38
Slowest flit = 221133
Fragmentation average = 0
	minimum = 0
	maximum = 0
Injected packet rate average = 0.02075
	minimum = 0.016 (at node 12)
	maximum = 0.0275 (at node 7)
Accepted packet rate average = 0.0206875
	minimum = 0.0155 (at node 3)
	maximum = 0.0275 (at node 13)
Injected flit rate average = 0.02075
	minimum = 0.016 (at node 12)
	maximum = 0.0275 (at node 7)
Accepted flit rate average= 0.0206875
	minimum = 0.0155 (at node 3)
	maximum = 0.0275 (at node 13)
Injected packet length average = 1
Accepted packet length average = 1
Total in-flight flits = 6 (6 measured)
latency change    = 0.0158682
throughput change = 0.0785498
Class 0:
Packet latency average = 19.566
	minimum = 7
	maximum = 38
Network latency average = 19.566
	minimum = 7
	maximum = 38
Slowest packet = 221133
Flit latency average = 19.5862
	minimum = 7
	maximum = 38
Slowest flit = 221133
Fragmentation average = 0
	minimum = 0
	maximum = 0
Injected packet rate average = 0.0202917
	minimum = 0.0176667 (at node 0)
	maximum = 0.0246667 (at node 7)
Accepted packet rate average = 0.0202917
	minimum = 0.0176667 (at node 0)
	maximum = 0.025 (at node 13)
Injected flit rate average = 0.0202917
	minimum = 0.0176667 (at node 0)
	maximum = 0.0246667 (at node 7)
Accepted flit rate average= 0.0202917
	minimum = 0.0176667 (at node 0)
	maximum = 0.025 (at node 13)
Injected packet length average = 1
Accepted packet length average = 1
Total in-flight flits = 4 (4 measured)
latency change    = 0.00826557
throughput change = 0.0195072
Class 0:
Packet latency average = 19.5548
	minimum = 7
	maximum = 38
Network latency average = 19.5548
	minimum = 7
	maximum = 38
Slowest packet = 221133
Flit latency average = 19.5699
	minimum = 7
	maximum = 38
Slowest flit = 221133
Fragmentation average = 0
	minimum = 0
	maximum = 0
Injected packet rate average = 0.0204844
	minimum = 0.017 (at node 9)
	maximum = 0.02525 (at node 11)
Accepted packet rate average = 0.0204531
	minimum = 0.017 (at node 6)
	maximum = 0.025 (at node 14)
Injected flit rate average = 0.0204844
	minimum = 0.017 (at node 9)
	maximum = 0.02525 (at node 11)
Accepted flit rate average= 0.0204531
	minimum = 0.017 (at node 6)
	maximum = 0.025 (at node 14)
Injected packet length average = 1
Accepted packet length average = 1
Total in-flight flits = 6 (6 measured)
latency change    = 0.000572244
throughput change = 0.00789407
Class 0:
Packet latency average = 19.4942
	minimum = 7
	maximum = 41
Network latency average = 19.4942
	minimum = 7
	maximum = 41
Slowest packet = 222112
Flit latency average = 19.5064
	minimum = 7
	maximum = 41
Slowest flit = 222112
Fragmentation average = 0
	minimum = 0
	maximum = 0
Injected packet rate average = 0.020525
	minimum = 0.0176 (at node 14)
	maximum = 0.0252 (at node 11)
Accepted packet rate average = 0.0204875
	minimum = 0.0176 (at node 11)
	maximum = 0.0248 (at node 14)
Injected flit rate average = 0.020525
	minimum = 0.0176 (at node 14)
	maximum = 0.0252 (at node 11)
Accepted flit rate average= 0.0204875
	minimum = 0.0176 (at node 11)
	maximum = 0.0248 (at node 14)
Injected packet length average = 1
Accepted packet length average = 1
Total in-flight flits = 7 (7 measured)
latency change    = 0.0031086
throughput change = 0.00167785
Draining all recorded packets ...
Draining remaining packets ...
Time taken is 8075 cycles
====== Overall Traffic Statistics ======
====== Traffic class 0 ======
Packet latency average = 19.5467 (100 samples)
	minimum = 7 (100 samples)
	maximum = 43.91 (100 samples)
Network latency average = 19.5467 (100 samples)
	minimum = 7 (100 samples)
	maximum = 43.91 (100 samples)
Flit latency average = 19.5777 (100 samples)
	minimum = 7 (100 samples)
	maximum = 44.06 (100 samples)
Fragmentation average = 0 (100 samples)
	minimum = 0 (100 samples)
	maximum = 0 (100 samples)
Injected packet rate average = 0.0200355 (100 samples)
	minimum = 0.01625 (100 samples)
	maximum = 0.0241573 (100 samples)
Accepted packet rate average = 0.0200364 (100 samples)
	minimum = 0.0162553 (100 samples)
	maximum = 0.0241757 (100 samples)
Injected flit rate average = 0.0200355 (100 samples)
	minimum = 0.01625 (100 samples)
	maximum = 0.0241573 (100 samples)
Accepted flit rate average = 0.0200364 (100 samples)
	minimum = 0.0162553 (100 samples)
	maximum = 0.0241757 (100 samples)
Injected packet size average = 1 (100 samples)
Accepted packet size average = 1 (100 samples)
Hops average = 3.49903 (100 samples)
Total run time 18.3136
