BEGIN Configuration File: /tmp/tmpv52o34z3.cfg
topology = mesh;
k = 4;
n = 2;
routing_function = valiant;
num_vcs = 4;
vc_buf_size = 4;
wait_for_tail_credit = 1;
vc_allocator = islip;
sw_allocator = islip;
alloc_iters = 1;
credit_delay = 2;
routing_delay = 1;
vc_alloc_delay = 1;
sw_alloc_delay = 1;
input_speedup = 2;
output_speedup = 1;
internal_speedup = 1.0;
traffic = transpose;
packet_size = 1;
sim_type = latency;
injection_rate = 0.3;
warmup_periods = 3;
sample_period = 1000;
sim_count = 100;
seed = 0;

END Configuration File: /tmp/tmpv52o34z3.cfg
WARNING: Possible network deadlock.
WARNING: Possible network deadlock.
Class 0:
Packet latency average = 64.8409
	minimum = 7
	maximum = 207
Network latency average = 49.1182
	minimum = 7
	maximum = 162
Slowest packet = 67
Flit latency average = 49.1182
	minimum = 7
	maximum = 162
Slowest flit = 67
Fragmentation average = 0
	minimum = 0
	maximum = 0
Injected packet rate average = 0.022
	minimum = 0.007 (at node 1)
	maximum = 0.034 (at node 5)
Accepted packet rate average = 0.01375
	minimum = 0.002 (at node 4)
	maximum = 0.024 (at node 5)
Injected flit rate average = 0.022
	minimum = 0.007 (at node 1)
	maximum = 0.034 (at node 5)
Accepted flit rate average= 0.01375
	minimum = 0.002 (at node 4)
	maximum = 0.024 (at node 5)
Injected packet length average = 1
Accepted packet length average = 1
Total in-flight flits = 148 (0 measured)
latency change    = 1
throughput change = 1
WARNING: Possible network deadlock.
WARNING: Possible network deadlock.
WARNING: Possible network deadlock.
WARNING: Possible network deadlock.
Class 0:
Packet latency average = 64.8409
	minimum = 7
	maximum = 207
Network latency average = 49.1182
	minimum = 7
	maximum = 162
Slowest packet = 67
Flit latency average = 49.1182
	minimum = 7
	maximum = 162
Slowest flit = 67
Fragmentation average = 0
	minimum = 0
	maximum = 0
Injected packet rate average = 0.011
	minimum = 0.0035 (at node 1)
	maximum = 0.017 (at node 5)
Accepted packet rate average = 0.006875
	minimum = 0.001 (at node 4)
	maximum = 0.012 (at node 5)
Injected flit rate average = 0.011
	minimum = 0.0035 (at node 1)
	maximum = 0.017 (at node 5)
Accepted flit rate average= 0.006875
	minimum = 0.001 (at node 4)
	maximum = 0.012 (at node 5)
Injected packet length average = 1
Accepted packet length average = 1
Total in-flight flits = 148 (0 measured)
latency change    = 0
throughput change = 1
Average latency for class 0 exceeded 500 cycles. Aborting simulation.
Too many sample periods needed to converge
Simulation unstable, ending ...
Total run time 0.181315
