BEGIN Configuration File: /tmp/tmpa_2dfalv.cfg
topology = mesh;
k = 4;
n = 2;
routing_function = gnn_port_score_route_4x4;
num_vcs = 4;
vc_buf_size = 4;
wait_for_tail_credit = 1;
vc_allocator = islip;
sw_allocator = islip;
alloc_iters = 1;
credit_delay = 2;
routing_delay = 1;
vc_alloc_delay = 1;
sw_alloc_delay = 1;
input_speedup = 2;
output_speedup = 1;
internal_speedup = 1.0;
traffic = hotspot;
packet_size = 1;
sim_type = latency;
injection_rate = 0.05;
warmup_periods = 3;
sample_period = 1000;
sim_count = 100;
seed = 1;

END Configuration File: /tmp/tmpa_2dfalv.cfg
Class 0:
Packet latency average = 87.9525
	minimum = 7
	maximum = 803
Network latency average = 75.7322
	minimum = 7
	maximum = 803
Slowest packet = 19
Flit latency average = 75.7322
	minimum = 7
	maximum = 803
Slowest flit = 19
Fragmentation average = 0
	minimum = 0
	maximum = 0
Injected packet rate average = 0.03325
	minimum = 0.009 (at node 4)
	maximum = 0.054 (at node 15)
Accepted packet rate average = 0.0289375
	minimum = 0 (at node 0)
	maximum = 0.463 (at node 11)
Injected flit rate average = 0.03325
	minimum = 0.009 (at node 4)
	maximum = 0.054 (at node 15)
Accepted flit rate average= 0.0289375
	minimum = 0 (at node 0)
	maximum = 0.463 (at node 11)
Injected packet length average = 1
Accepted packet length average = 1
Total in-flight flits = 79 (0 measured)
latency change    = 1
throughput change = 1
Class 0:
Packet latency average = 169.966
	minimum = 7
	maximum = 1844
Network latency average = 96.3479
	minimum = 7
	maximum = 1844
Slowest packet = 46
Flit latency average = 96.3479
	minimum = 7
	maximum = 1844
Slowest flit = 46
Fragmentation average = 0
	minimum = 0
	maximum = 0
Injected packet rate average = 0.0313125
	minimum = 0.0055 (at node 4)
	maximum = 0.0545 (at node 15)
Accepted packet rate average = 0.0292813
	minimum = 0 (at node 0)
	maximum = 0.4685 (at node 11)
Injected flit rate average = 0.0313125
	minimum = 0.0055 (at node 4)
	maximum = 0.0545 (at node 15)
Accepted flit rate average= 0.0292813
	minimum = 0 (at node 0)
	maximum = 0.4685 (at node 11)
Injected packet length average = 1
Accepted packet length average = 1
Total in-flight flits = 75 (0 measured)
latency change    = 0.482528
throughput change = 0.0117396
Class 0:
Packet latency average = 381.941
	minimum = 7
	maximum = 2597
Network latency average = 122.006
	minimum = 7
	maximum = 2438
Slowest packet = 37
Flit latency average = 122.006
	minimum = 7
	maximum = 2438
Slowest flit = 37
Fragmentation average = 0
	minimum = 0
	maximum = 0
Injected packet rate average = 0.030625
	minimum = 0 (at node 0)
	maximum = 0.063 (at node 11)
Accepted packet rate average = 0.029875
	minimum = 0 (at node 0)
	maximum = 0.478 (at node 11)
Injected flit rate average = 0.030625
	minimum = 0 (at node 0)
	maximum = 0.063 (at node 11)
Accepted flit rate average= 0.029875
	minimum = 0 (at node 0)
	maximum = 0.478 (at node 11)
Injected packet length average = 1
Accepted packet length average = 1
Total in-flight flits = 87 (0 measured)
latency change    = 0.554995
throughput change = 0.0198745
Average latency for class 0 exceeded 500 cycles. Aborting simulation.
Too many sample periods needed to converge
Simulation unstable, ending ...
Total run time 0.187562
