BEGIN Configuration File: /tmp/bs_1137237_64750.cfg
topology = mesh;
k = 4;
n = 2;
routing_function = gnn_ppo_route_4x4;
num_vcs = 4;
vc_buf_size = 4;
wait_for_tail_credit = 1;
vc_allocator = islip;
sw_allocator = islip;
alloc_iters = 1;
credit_delay = 2;
routing_delay = 1;
vc_alloc_delay = 1;
sw_alloc_delay = 1;
input_speedup = 2;
output_speedup = 1;
internal_speedup = 1.0;
traffic = transpose;
packet_size = 1;
sim_type = latency;
injection_rate = 0.02;
warmup_periods = 3;
sample_period = 1000;
sim_count = 100;
seed = 2;

END Configuration File: /tmp/bs_1137237_64750.cfg
Class 0:
Packet latency average = 18.704
	minimum = 7
	maximum = 37
Network latency average = 18.704
	minimum = 7
	maximum = 37
Slowest packet = 2
Flit latency average = 18.704
	minimum = 7
	maximum = 37
Slowest flit = 2
Fragmentation average = 0
	minimum = 0
	maximum = 0
Injected packet rate average = 0.0180625
	minimum = 0.008 (at node 9)
	maximum = 0.025 (at node 10)
Accepted packet rate average = 0.0173125
	minimum = 0.007 (at node 6)
	maximum = 0.025 (at node 10)
Injected flit rate average = 0.0180625
	minimum = 0.008 (at node 9)
	maximum = 0.025 (at node 10)
Accepted flit rate average= 0.0173125
	minimum = 0.007 (at node 6)
	maximum = 0.025 (at node 10)
Injected packet length average = 1
Accepted packet length average = 1
Total in-flight flits = 12 (0 measured)
latency change    = 1
throughput change = 1
Class 0:
Packet latency average = 19.25
	minimum = 7
	maximum = 38
Network latency average = 19.25
	minimum = 7
	maximum = 38
Slowest packet = 374
Flit latency average = 19.25
	minimum = 7
	maximum = 38
Slowest flit = 374
Fragmentation average = 0
	minimum = 0
	maximum = 0
Injected packet rate average = 0.0190937
	minimum = 0.0145 (at node 2)
	maximum = 0.028 (at node 10)
Accepted packet rate average = 0.019
	minimum = 0.014 (at node 6)
	maximum = 0.028 (at node 10)
Injected flit rate average = 0.0190937
	minimum = 0.0145 (at node 2)
	maximum = 0.028 (at node 10)
Accepted flit rate average= 0.019
	minimum = 0.014 (at node 6)
	maximum = 0.028 (at node 10)
Injected packet length average = 1
Accepted packet length average = 1
Total in-flight flits = 3 (0 measured)
latency change    = 0.0283651
throughput change = 0.0888158
Class 0:
Packet latency average = 19.756
	minimum = 7
	maximum = 38
Network latency average = 19.756
	minimum = 7
	maximum = 38
Slowest packet = 795
Flit latency average = 19.756
	minimum = 7
	maximum = 38
Slowest flit = 795
Fragmentation average = 0
	minimum = 0
	maximum = 0
Injected packet rate average = 0.0185
	minimum = 0.011 (at node 6)
	maximum = 0.025 (at node 10)
Accepted packet rate average = 0.0181875
	minimum = 0.01 (at node 2)
	maximum = 0.024 (at node 10)
Injected flit rate average = 0.0185
	minimum = 0.011 (at node 6)
	maximum = 0.025 (at node 10)
Accepted flit rate average= 0.0181875
	minimum = 0.01 (at node 2)
	maximum = 0.024 (at node 10)
Injected packet length average = 1
Accepted packet length average = 1
Total in-flight flits = 8 (0 measured)
latency change    = 0.0256132
throughput change = 0.0446735
Warmed up ...Time used is 3000 cycles
Class 0:
Packet latency average = 19.2798
	minimum = 7
	maximum = 38
Network latency average = 19.2798
	minimum = 7
	maximum = 38
Slowest packet = 1084
Flit latency average = 19.393
	minimum = 7
	maximum = 38
Slowest flit = 1084
Fragmentation average = 0
	minimum = 0
	maximum = 0
Injected packet rate average = 0.0229375
	minimum = 0.013 (at node 6)
	maximum = 0.03 (at node 12)
Accepted packet rate average = 0.0230625
	minimum = 0.013 (at node 9)
	maximum = 0.03 (at node 3)
Injected flit rate average = 0.0229375
	minimum = 0.013 (at node 6)
	maximum = 0.03 (at node 12)
Accepted flit rate average= 0.0230625
	minimum = 0.013 (at node 9)
	maximum = 0.03 (at node 3)
Injected packet length average = 1
Accepted packet length average = 1
Total in-flight flits = 6 (6 measured)
latency change    = 0.0247013
throughput change = 0.211382
Class 0:
Packet latency average = 19.3907
	minimum = 7
	maximum = 38
Network latency average = 19.3907
	minimum = 7
	maximum = 38
Slowest packet = 1084
Flit latency average = 19.4512
	minimum = 7
	maximum = 38
Slowest flit = 1084
Fragmentation average = 0
	minimum = 0
	maximum = 0
Injected packet rate average = 0.0210625
	minimum = 0.017 (at node 1)
	maximum = 0.026 (at node 7)
Accepted packet rate average = 0.021125
	minimum = 0.017 (at node 4)
	maximum = 0.026 (at node 13)
Injected flit rate average = 0.0210625
	minimum = 0.017 (at node 1)
	maximum = 0.026 (at node 7)
Accepted flit rate average= 0.021125
	minimum = 0.017 (at node 4)
	maximum = 0.026 (at node 13)
Injected packet length average = 1
Accepted packet length average = 1
Total in-flight flits = 6 (6 measured)
latency change    = 0.0057213
throughput change = 0.091716
Class 0:
Packet latency average = 19.3175
	minimum = 7
	maximum = 38
Network latency average = 19.3175
	minimum = 7
	maximum = 38
Slowest packet = 1084
Flit latency average = 19.3591
	minimum = 7
	maximum = 38
Slowest flit = 1084
Fragmentation average = 0
	minimum = 0
	maximum = 0
Injected packet rate average = 0.0206667
	minimum = 0.018 (at node 8)
	maximum = 0.0243333 (at node 10)
Accepted packet rate average = 0.0207708
	minimum = 0.018 (at node 8)
	maximum = 0.0246667 (at node 10)
Injected flit rate average = 0.0206667
	minimum = 0.018 (at node 8)
	maximum = 0.0243333 (at node 10)
Accepted flit rate average= 0.0207708
	minimum = 0.018 (at node 8)
	maximum = 0.0246667 (at node 10)
Injected packet length average = 1
Accepted packet length average = 1
Total in-flight flits = 3 (3 measured)
latency change    = 0.00379067
throughput change = 0.0170512
Class 0:
Packet latency average = 19.2887
	minimum = 7
	maximum = 38
Network latency average = 19.2887
	minimum = 7
	maximum = 38
Slowest packet = 1084
Flit latency average = 19.3206
	minimum = 7
	maximum = 38
Slowest flit = 1084
Fragmentation average = 0
	minimum = 0
	maximum = 0
Injected packet rate average = 0.0204688
	minimum = 0.01725 (at node 2)
	maximum = 0.0225 (at node 4)
Accepted packet rate average = 0.0204219
	minimum = 0.017 (at node 8)
	maximum = 0.02275 (at node 10)
Injected flit rate average = 0.0204688
	minimum = 0.01725 (at node 2)
	maximum = 0.0225 (at node 4)
Accepted flit rate average= 0.0204219
	minimum = 0.017 (at node 8)
	maximum = 0.02275 (at node 10)
Injected packet length average = 1
Accepted packet length average = 1
Total in-flight flits = 11 (11 measured)
latency change    = 0.00149356
throughput change = 0.0170875
Class 0:
Packet latency average = 19.1537
	minimum = 7
	maximum = 38
Network latency average = 19.1537
	minimum = 7
	maximum = 38
Slowest packet = 1084
Flit latency average = 19.1796
	minimum = 7
	maximum = 38
Slowest flit = 1084
Fragmentation average = 0
	minimum = 0
	maximum = 0
Injected packet rate average = 0.0206
	minimum = 0.0174 (at node 2)
	maximum = 0.0236 (at node 15)
Accepted packet rate average = 0.0206
	minimum = 0.017 (at node 8)
	maximum = 0.0238 (at node 15)
Injected flit rate average = 0.0206
	minimum = 0.0174 (at node 2)
	maximum = 0.0236 (at node 15)
Accepted flit rate average= 0.0206
	minimum = 0.017 (at node 8)
	maximum = 0.0238 (at node 15)
Injected packet length average = 1
Accepted packet length average = 1
Total in-flight flits = 8 (8 measured)
latency change    = 0.00704957
throughput change = 0.00864684
Draining all recorded packets ...
Draining remaining packets ...
Time taken is 8052 cycles
Class 0:
Packet latency average = 20.3053
	minimum = 7
	maximum = 38
Network latency average = 20.3053
	minimum = 7
	maximum = 38
Slowest packet = 2741
Flit latency average = 20.3053
	minimum = 7
	maximum = 38
Slowest flit = 2741
Fragmentation average = 0
	minimum = 0
	maximum = 0
Injected packet rate average = 0.020375
	minimum = 0.015 (at node 5)
	maximum = 0.03 (at node 3)
Accepted packet rate average = 0.0200625
	minimum = 0.015 (at node 5)
	maximum = 0.03 (at node 12)
Injected flit rate average = 0.020375
	minimum = 0.015 (at node 5)
	maximum = 0.03 (at node 3)
Accepted flit rate average= 0.0200625
	minimum = 0.015 (at node 5)
	maximum = 0.03 (at node 12)
Injected packet length average = 1
Accepted packet length average = 1
Total in-flight flits = 5 (0 measured)
latency change    = 1
throughput change = 1
Class 0:
Packet latency average = 19.5444
	minimum = 7
	maximum = 38
Network latency average = 19.5444
	minimum = 7
	maximum = 38
Slowest packet = 2741
Flit latency average = 19.5444
	minimum = 7
	maximum = 38
Slowest flit = 2741
Fragmentation average = 0
	minimum = 0
	maximum = 0
Injected packet rate average = 0.0209063
	minimum = 0.017 (at node 9)
	maximum = 0.025 (at node 3)
Accepted packet rate average = 0.0207813
	minimum = 0.017 (at node 6)
	maximum = 0.0245 (at node 0)
Injected flit rate average = 0.0209063
	minimum = 0.017 (at node 9)
	maximum = 0.025 (at node 3)
Accepted flit rate average= 0.0207813
	minimum = 0.017 (at node 6)
	maximum = 0.0245 (at node 0)
Injected packet length average = 1
Accepted packet length average = 1
Total in-flight flits = 4 (0 measured)
latency change    = 0.0389337
throughput change = 0.0345865
Class 0:
Packet latency average = 20.2783
	minimum = 7
	maximum = 38
Network latency average = 20.2783
	minimum = 7
	maximum = 38
Slowest packet = 3241
Flit latency average = 20.2783
	minimum = 7
	maximum = 38
Slowest flit = 3241
Fragmentation average = 0
	minimum = 0
	maximum = 0
Injected packet rate average = 0.022
	minimum = 0.015 (at node 1)
	maximum = 0.03 (at node 12)
Accepted packet rate average = 0.0215625
	minimum = 0.015 (at node 4)
	maximum = 0.03 (at node 3)
Injected flit rate average = 0.022
	minimum = 0.015 (at node 1)
	maximum = 0.03 (at node 12)
Accepted flit rate average= 0.0215625
	minimum = 0.015 (at node 4)
	maximum = 0.03 (at node 3)
Injected packet length average = 1
Accepted packet length average = 1
Total in-flight flits = 11 (0 measured)
latency change    = 0.0361915
throughput change = 0.0362319
Warmed up ...Time used is 3000 cycles
Class 0:
Packet latency average = 19.3787
	minimum = 7
	maximum = 38
Network latency average = 19.3787
	minimum = 7
	maximum = 38
Slowest packet = 3700
Flit latency average = 19.5897
	minimum = 7
	maximum = 39
Slowest flit = 3573
Fragmentation average = 0
	minimum = 0
	maximum = 0
Injected packet rate average = 0.019125
	minimum = 0.013 (at node 9)
	maximum = 0.027 (at node 1)
Accepted packet rate average = 0.0195
	minimum = 0.013 (at node 6)
	maximum = 0.026 (at node 4)
Injected flit rate average = 0.019125
	minimum = 0.013 (at node 9)
	maximum = 0.027 (at node 1)
Accepted flit rate average= 0.0195
	minimum = 0.013 (at node 6)
	maximum = 0.026 (at node 4)
Injected packet length average = 1
Accepted packet length average = 1
Total in-flight flits = 5 (5 measured)
latency change    = 0.0464181
throughput change = 0.105769
Class 0:
Packet latency average = 19.081
	minimum = 7
	maximum = 38
Network latency average = 19.081
	minimum = 7
	maximum = 38
Slowest packet = 3700
Flit latency average = 19.1932
	minimum = 7
	maximum = 39
Slowest flit = 3573
Fragmentation average = 0
	minimum = 0
	maximum = 0
Injected packet rate average = 0.019
	minimum = 0.0145 (at node 9)
	maximum = 0.0235 (at node 5)
Accepted packet rate average = 0.01925
	minimum = 0.0135 (at node 6)
	maximum = 0.0235 (at node 5)
Injected flit rate average = 0.019
	minimum = 0.0145 (at node 9)
	maximum = 0.0235 (at node 5)
Accepted flit rate average= 0.01925
	minimum = 0.0135 (at node 6)
	maximum = 0.0235 (at node 5)
Injected packet length average = 1
Accepted packet length average = 1
Total in-flight flits = 3 (3 measured)
latency change    = 0.0156043
throughput change = 0.012987
Class 0:
Packet latency average = 19.3588
	minimum = 7
	maximum = 39
Network latency average = 19.3588
	minimum = 7
	maximum = 39
Slowest packet = 4424
Flit latency average = 19.43
	minimum = 7
	maximum = 39
Slowest flit = 3573
Fragmentation average = 0
	minimum = 0
	maximum = 0
Injected packet rate average = 0.01925
	minimum = 0.0146667 (at node 6)
	maximum = 0.0226667 (at node 1)
Accepted packet rate average = 0.0193333
	minimum = 0.0153333 (at node 6)
	maximum = 0.0226667 (at node 4)
Injected flit rate average = 0.01925
	minimum = 0.0146667 (at node 6)
	maximum = 0.0226667 (at node 1)
Accepted flit rate average= 0.0193333
	minimum = 0.0153333 (at node 6)
	maximum = 0.0226667 (at node 4)
Injected packet length average = 1
Accepted packet length average = 1
Total in-flight flits = 7 (7 measured)
latency change    = 0.0143494
throughput change = 0.00431034
Class 0:
Packet latency average = 19.2262
	minimum = 7
	maximum = 39
Network latency average = 19.2262
	minimum = 7
	maximum = 39
Slowest packet = 4424
Flit latency average = 19.2806
	minimum = 7
	maximum = 39
Slowest flit = 3573
Fragmentation average = 0
	minimum = 0
	maximum = 0
Injected packet rate average = 0.0192969
	minimum = 0.01475 (at node 6)
	maximum = 0.0225 (at node 5)
Accepted packet rate average = 0.019375
	minimum = 0.015 (at node 9)
	maximum = 0.0225 (at node 5)
Injected flit rate average = 0.0192969
	minimum = 0.01475 (at node 6)
	maximum = 0.0225 (at node 5)
Accepted flit rate average= 0.019375
	minimum = 0.015 (at node 9)
	maximum = 0.0225 (at node 5)
Injected packet length average = 1
Accepted packet length average = 1
Total in-flight flits = 6 (6 measured)
latency change    = 0.00689572
throughput change = 0.00215054
Draining all recorded packets ...
Draining remaining packets ...
Time taken is 7045 cycles
Class 0:
Packet latency average = 19.0745
	minimum = 7
	maximum = 38
Network latency average = 19.0745
	minimum = 7
	maximum = 38
Slowest packet = 4915
Flit latency average = 19.0745
	minimum = 7
	maximum = 38
Slowest flit = 4915
Fragmentation average = 0
	minimum = 0
	maximum = 0
Injected packet rate average = 0.0221875
	minimum = 0.011 (at node 2)
	maximum = 0.034 (at node 1)
Accepted packet rate average = 0.0218125
	minimum = 0.011 (at node 8)
	maximum = 0.033 (at node 0)
Injected flit rate average = 0.0221875
	minimum = 0.011 (at node 2)
	maximum = 0.034 (at node 1)
Accepted flit rate average= 0.0218125
	minimum = 0.011 (at node 8)
	maximum = 0.033 (at node 0)
Injected packet length average = 1
Accepted packet length average = 1
Total in-flight flits = 6 (0 measured)
latency change    = 1
throughput change = 1
Class 0:
Packet latency average = 19.4112
	minimum = 7
	maximum = 38
Network latency average = 19.4112
	minimum = 7
	maximum = 38
Slowest packet = 4915
Flit latency average = 19.4112
	minimum = 7
	maximum = 38
Slowest flit = 4915
Fragmentation average = 0
	minimum = 0
	maximum = 0
Injected packet rate average = 0.0201563
	minimum = 0.0165 (at node 7)
	maximum = 0.0265 (at node 0)
Accepted packet rate average = 0.0200625
	minimum = 0.0165 (at node 8)
	maximum = 0.0265 (at node 0)
Injected flit rate average = 0.0201563
	minimum = 0.0165 (at node 7)
	maximum = 0.0265 (at node 0)
Accepted flit rate average= 0.0200625
	minimum = 0.0165 (at node 8)
	maximum = 0.0265 (at node 0)
Injected packet length average = 1
Accepted packet length average = 1
Total in-flight flits = 3 (0 measured)
latency change    = 0.0173465
throughput change = 0.0872274
Class 0:
Packet latency average = 19.0476
	minimum = 7
	maximum = 37
Network latency average = 19.0476
	minimum = 7
	maximum = 37
Slowest packet = 5465
Flit latency average = 19.0476
	minimum = 7
	maximum = 37
Slowest flit = 5465
Fragmentation average = 0
	minimum = 0
	maximum = 0
Injected packet rate average = 0.020125
	minimum = 0.012 (at node 1)
	maximum = 0.028 (at node 4)
Accepted packet rate average = 0.0196875
	minimum = 0.012 (at node 4)
	maximum = 0.028 (at node 8)
Injected flit rate average = 0.020125
	minimum = 0.012 (at node 1)
	maximum = 0.028 (at node 4)
Accepted flit rate average= 0.0196875
	minimum = 0.012 (at node 4)
	maximum = 0.028 (at node 8)
Injected packet length average = 1
Accepted packet length average = 1
Total in-flight flits = 10 (0 measured)
latency change    = 0.0190888
throughput change = 0.0190476
Warmed up ...Time used is 3000 cycles
Class 0:
Packet latency average = 20.5909
	minimum = 7
	maximum = 44
Network latency average = 20.5909
	minimum = 7
	maximum = 44
Slowest packet = 5881
Flit latency average = 20.5693
	minimum = 7
	maximum = 44
Slowest flit = 5881
Fragmentation average = 0
	minimum = 0
	maximum = 0
Injected packet rate average = 0.0168125
	minimum = 0.012 (at node 10)
	maximum = 0.027 (at node 2)
Accepted packet rate average = 0.017125
	minimum = 0.012 (at node 10)
	maximum = 0.026 (at node 3)
Injected flit rate average = 0.0168125
	minimum = 0.012 (at node 10)
	maximum = 0.027 (at node 2)
Accepted flit rate average= 0.017125
	minimum = 0.012 (at node 10)
	maximum = 0.026 (at node 3)
Injected packet length average = 1
Accepted packet length average = 1
Total in-flight flits = 5 (5 measured)
latency change    = 0.0749501
throughput change = 0.149635
Class 0:
Packet latency average = 20.4352
	minimum = 7
	maximum = 44
Network latency average = 20.4352
	minimum = 7
	maximum = 44
Slowest packet = 5881
Flit latency average = 20.4279
	minimum = 7
	maximum = 44
Slowest flit = 5881
Fragmentation average = 0
	minimum = 0
	maximum = 0
Injected packet rate average = 0.0185
	minimum = 0.014 (at node 15)
	maximum = 0.027 (at node 12)
Accepted packet rate average = 0.018625
	minimum = 0.014 (at node 15)
	maximum = 0.0265 (at node 3)
Injected flit rate average = 0.0185
	minimum = 0.014 (at node 15)
	maximum = 0.027 (at node 12)
Accepted flit rate average= 0.018625
	minimum = 0.014 (at node 15)
	maximum = 0.0265 (at node 3)
Injected packet length average = 1
Accepted packet length average = 1
Total in-flight flits = 6 (6 measured)
latency change    = 0.00762194
throughput change = 0.0805369
Class 0:
Packet latency average = 19.9424
	minimum = 7
	maximum = 44
Network latency average = 19.9424
	minimum = 7
	maximum = 44
Slowest packet = 5881
Flit latency average = 19.943
	minimum = 7
	maximum = 44
Slowest flit = 5881
Fragmentation average = 0
	minimum = 0
	maximum = 0
Injected packet rate average = 0.0193125
	minimum = 0.016 (at node 15)
	maximum = 0.0243333 (at node 12)
Accepted packet rate average = 0.019375
	minimum = 0.016 (at node 15)
	maximum = 0.0243333 (at node 3)
Injected flit rate average = 0.0193125
	minimum = 0.016 (at node 15)
	maximum = 0.0243333 (at node 12)
Accepted flit rate average= 0.019375
	minimum = 0.016 (at node 15)
	maximum = 0.0243333 (at node 3)
Injected packet length average = 1
Accepted packet length average = 1
Total in-flight flits = 7 (7 measured)
latency change    = 0.0247093
throughput change = 0.0387097
Class 0:
Packet latency average = 20.0112
	minimum = 7
	maximum = 44
Network latency average = 20.0112
	minimum = 7
	maximum = 44
Slowest packet = 5881
Flit latency average = 20.0111
	minimum = 7
	maximum = 44
Slowest flit = 5881
Fragmentation average = 0
	minimum = 0
	maximum = 0
Injected packet rate average = 0.0196563
	minimum = 0.017 (at node 15)
	maximum = 0.02325 (at node 12)
Accepted packet rate average = 0.0196563
	minimum = 0.017 (at node 15)
	maximum = 0.02325 (at node 3)
Injected flit rate average = 0.0196563
	minimum = 0.017 (at node 15)
	maximum = 0.02325 (at node 12)
Accepted flit rate average= 0.0196563
	minimum = 0.017 (at node 15)
	maximum = 0.02325 (at node 3)
Injected packet length average = 1
Accepted packet length average = 1
Total in-flight flits = 10 (10 measured)
latency change    = 0.0034394
throughput change = 0.0143084
Class 0:
Packet latency average = 20.032
	minimum = 7
	maximum = 44
Network latency average = 20.032
	minimum = 7
	maximum = 44
Slowest packet = 5881
Flit latency average = 20.0318
	minimum = 7
	maximum = 44
Slowest flit = 5881
Fragmentation average = 0
	minimum = 0
	maximum = 0
Injected packet rate average = 0.019625
	minimum = 0.017 (at node 15)
	maximum = 0.0238 (at node 13)
Accepted packet rate average = 0.0196625
	minimum = 0.017 (at node 15)
	maximum = 0.0236 (at node 7)
Injected flit rate average = 0.019625
	minimum = 0.017 (at node 15)
	maximum = 0.0238 (at node 13)
Accepted flit rate average= 0.0196625
	minimum = 0.017 (at node 15)
	maximum = 0.0236 (at node 7)
Injected packet length average = 1
Accepted packet length average = 1
Total in-flight flits = 7 (7 measured)
latency change    = 0.00103693
throughput change = 0.000317864
Draining all recorded packets ...
Draining remaining packets ...
Time taken is 8049 cycles
Class 0:
Packet latency average = 20.2772
	minimum = 7
	maximum = 38
Network latency average = 20.2772
	minimum = 7
	maximum = 38
Slowest packet = 7470
Flit latency average = 20.2772
	minimum = 7
	maximum = 38
Slowest flit = 7470
Fragmentation average = 0
	minimum = 0
	maximum = 0
Injected packet rate average = 0.019375
	minimum = 0.014 (at node 0)
	maximum = 0.029 (at node 6)
Accepted packet rate average = 0.0189375
	minimum = 0.014 (at node 0)
	maximum = 0.027 (at node 9)
Injected flit rate average = 0.019375
	minimum = 0.014 (at node 0)
	maximum = 0.029 (at node 6)
Accepted flit rate average= 0.0189375
	minimum = 0.014 (at node 0)
	maximum = 0.027 (at node 9)
Injected packet length average = 1
Accepted packet length average = 1
Total in-flight flits = 7 (0 measured)
latency change    = 1
throughput change = 1
Class 0:
Packet latency average = 20.1228
	minimum = 7
	maximum = 38
Network latency average = 20.1228
	minimum = 7
	maximum = 38
Slowest packet = 7470
Flit latency average = 20.1228
	minimum = 7
	maximum = 38
Slowest flit = 7470
Fragmentation average = 0
	minimum = 0
	maximum = 0
Injected packet rate average = 0.0196875
	minimum = 0.0125 (at node 5)
	maximum = 0.026 (at node 6)
Accepted packet rate average = 0.0195938
	minimum = 0.0125 (at node 5)
	maximum = 0.026 (at node 9)
Injected flit rate average = 0.0196875
	minimum = 0.0125 (at node 5)
	maximum = 0.026 (at node 6)
Accepted flit rate average= 0.0195938
	minimum = 0.0125 (at node 5)
	maximum = 0.026 (at node 9)
Injected packet length average = 1
Accepted packet length average = 1
Total in-flight flits = 3 (0 measured)
latency change    = 0.00767391
throughput change = 0.0334928
Class 0:
Packet latency average = 20.8424
	minimum = 7
	maximum = 41
Network latency average = 20.8424
	minimum = 7
	maximum = 41
Slowest packet = 8181
Flit latency average = 20.8424
	minimum = 7
	maximum = 41
Slowest flit = 8181
Fragmentation average = 0
	minimum = 0
	maximum = 0
Injected packet rate average = 0.0195625
	minimum = 0.013 (at node 5)
	maximum = 0.026 (at node 3)
Accepted packet rate average = 0.0194375
	minimum = 0.012 (at node 5)
	maximum = 0.027 (at node 13)
Injected flit rate average = 0.0195625
	minimum = 0.013 (at node 5)
	maximum = 0.026 (at node 3)
Accepted flit rate average= 0.0194375
	minimum = 0.012 (at node 5)
	maximum = 0.027 (at node 13)
Injected packet length average = 1
Accepted packet length average = 1
Total in-flight flits = 5 (0 measured)
latency change    = 0.0345275
throughput change = 0.00803859
Warmed up ...Time used is 3000 cycles
Class 0:
Packet latency average = 18.4573
	minimum = 7
	maximum = 38
Network latency average = 18.4573
	minimum = 7
	maximum = 38
Slowest packet = 8383
Flit latency average = 18.5255
	minimum = 7
	maximum = 38
Slowest flit = 8383
Fragmentation average = 0
	minimum = 0
	maximum = 0
Injected packet rate average = 0.02075
	minimum = 0.01 (at node 9)
	maximum = 0.033 (at node 4)
Accepted packet rate average = 0.0208125
	minimum = 0.01 (at node 6)
	maximum = 0.033 (at node 1)
Injected flit rate average = 0.02075
	minimum = 0.01 (at node 9)
	maximum = 0.033 (at node 4)
Accepted flit rate average= 0.0208125
	minimum = 0.01 (at node 6)
	maximum = 0.033 (at node 1)
Injected packet length average = 1
Accepted packet length average = 1
Total in-flight flits = 4 (4 measured)
latency change    = 0.129224
throughput change = 0.0660661
Class 0:
Packet latency average = 18.9863
	minimum = 7
	maximum = 39
Network latency average = 18.9863
	minimum = 7
	maximum = 39
Slowest packet = 8764
Flit latency average = 19.0166
	minimum = 7
	maximum = 39
Slowest flit = 8764
Fragmentation average = 0
	minimum = 0
	maximum = 0
Injected packet rate average = 0.0207813
	minimum = 0.0165 (at node 9)
	maximum = 0.0255 (at node 4)
Accepted packet rate average = 0.0207188
	minimum = 0.0165 (at node 6)
	maximum = 0.025 (at node 1)
Injected flit rate average = 0.0207813
	minimum = 0.0165 (at node 9)
	maximum = 0.0255 (at node 4)
Accepted flit rate average= 0.0207188
	minimum = 0.0165 (at node 6)
	maximum = 0.025 (at node 1)
Injected packet length average = 1
Accepted packet length average = 1
Total in-flight flits = 7 (7 measured)
latency change    = 0.0278624
throughput change = 0.00452489
Class 0:
Packet latency average = 19.2016
	minimum = 7
	maximum = 39
Network latency average = 19.2016
	minimum = 7
	maximum = 39
Slowest packet = 8764
Flit latency average = 19.2209
	minimum = 7
	maximum = 39
Slowest flit = 8764
Fragmentation average = 0
	minimum = 0
	maximum = 0
Injected packet rate average = 0.020625
	minimum = 0.0153333 (at node 9)
	maximum = 0.0246667 (at node 10)
Accepted packet rate average = 0.0205625
	minimum = 0.0153333 (at node 6)
	maximum = 0.0246667 (at node 10)
Injected flit rate average = 0.020625
	minimum = 0.0153333 (at node 9)
	maximum = 0.0246667 (at node 10)
Accepted flit rate average= 0.0205625
	minimum = 0.0153333 (at node 6)
	maximum = 0.0246667 (at node 10)
Injected packet length average = 1
Accepted packet length average = 1
Total in-flight flits = 8 (8 measured)
latency change    = 0.011213
throughput change = 0.00759878
Class 0:
Packet latency average = 19.4709
	minimum = 7
	maximum = 41
Network latency average = 19.4709
	minimum = 7
	maximum = 41
Slowest packet = 9611
Flit latency average = 19.4844
	minimum = 7
	maximum = 41
Slowest flit = 9611
Fragmentation average = 0
	minimum = 0
	maximum = 0
Injected packet rate average = 0.0204844
	minimum = 0.016 (at node 5)
	maximum = 0.02375 (at node 4)
Accepted packet rate average = 0.0205156
	minimum = 0.01625 (at node 5)
	maximum = 0.02375 (at node 1)
Injected flit rate average = 0.0204844
	minimum = 0.016 (at node 5)
	maximum = 0.02375 (at node 4)
Accepted flit rate average= 0.0205156
	minimum = 0.01625 (at node 5)
	maximum = 0.02375 (at node 1)
Injected packet length average = 1
Accepted packet length average = 1
Total in-flight flits = 3 (3 measured)
latency change    = 0.0138318
throughput change = 0.00228484
Draining all recorded packets ...
Draining remaining packets ...
Time taken is 7051 cycles
Class 0:
Packet latency average = 19.7279
	minimum = 7
	maximum = 38
Network latency average = 19.7279
	minimum = 7
	maximum = 38
Slowest packet = 9859
Flit latency average = 19.7279
	minimum = 7
	maximum = 38
Slowest flit = 9859
Fragmentation average = 0
	minimum = 0
	maximum = 0
Injected packet rate average = 0.019375
	minimum = 0.014 (at node 11)
	maximum = 0.028 (at node 6)
Accepted packet rate average = 0.0190625
	minimum = 0.013 (at node 14)
	maximum = 0.028 (at node 9)
Injected flit rate average = 0.019375
	minimum = 0.014 (at node 11)
	maximum = 0.028 (at node 6)
Accepted flit rate average= 0.0190625
	minimum = 0.013 (at node 14)
	maximum = 0.028 (at node 9)
Injected packet length average = 1
Accepted packet length average = 1
Total in-flight flits = 5 (0 measured)
latency change    = 1
throughput change = 1
Class 0:
Packet latency average = 19.399
	minimum = 7
	maximum = 38
Network latency average = 19.399
	minimum = 7
	maximum = 38
Slowest packet = 9859
Flit latency average = 19.399
	minimum = 7
	maximum = 38
Slowest flit = 9859
Fragmentation average = 0
	minimum = 0
	maximum = 0
Injected packet rate average = 0.0192812
	minimum = 0.015 (at node 7)
	maximum = 0.024 (at node 4)
Accepted packet rate average = 0.0191875
	minimum = 0.015 (at node 13)
	maximum = 0.024 (at node 1)
Injected flit rate average = 0.0192812
	minimum = 0.015 (at node 7)
	maximum = 0.024 (at node 4)
Accepted flit rate average= 0.0191875
	minimum = 0.015 (at node 13)
	maximum = 0.024 (at node 1)
Injected packet length average = 1
Accepted packet length average = 1
Total in-flight flits = 3 (0 measured)
latency change    = 0.0169517
throughput change = 0.00651466
Class 0:
Packet latency average = 19.9231
	minimum = 7
	maximum = 38
Network latency average = 19.9231
	minimum = 7
	maximum = 38
Slowest packet = 10311
Flit latency average = 19.9231
	minimum = 7
	maximum = 38
Slowest flit = 10311
Fragmentation average = 0
	minimum = 0
	maximum = 0
Injected packet rate average = 0.0215625
	minimum = 0.014 (at node 12)
	maximum = 0.032 (at node 3)
Accepted packet rate average = 0.021125
	minimum = 0.014 (at node 3)
	maximum = 0.031 (at node 12)
Injected flit rate average = 0.0215625
	minimum = 0.014 (at node 12)
	maximum = 0.032 (at node 3)
Accepted flit rate average= 0.021125
	minimum = 0.014 (at node 3)
	maximum = 0.031 (at node 12)
Injected packet length average = 1
Accepted packet length average = 1
Total in-flight flits = 10 (0 measured)
latency change    = 0.0263039
throughput change = 0.091716
Warmed up ...Time used is 3000 cycles
Class 0:
Packet latency average = 19.0664
	minimum = 7
	maximum = 38
Network latency average = 19.0664
	minimum = 7
	maximum = 38
Slowest packet = 10701
Flit latency average = 19.2283
	minimum = 7
	maximum = 38
Slowest flit = 10701
Fragmentation average = 0
	minimum = 0
	maximum = 0
Injected packet rate average = 0.019375
	minimum = 0.013 (at node 12)
	maximum = 0.03 (at node 11)
Accepted packet rate average = 0.0194375
	minimum = 0.013 (at node 3)
	maximum = 0.03 (at node 14)
Injected flit rate average = 0.019375
	minimum = 0.013 (at node 12)
	maximum = 0.03 (at node 11)
Accepted flit rate average= 0.0194375
	minimum = 0.013 (at node 3)
	maximum = 0.03 (at node 14)
Injected packet length average = 1
Accepted packet length average = 1
Total in-flight flits = 9 (9 measured)
latency change    = 0.0449288
throughput change = 0.0868167
Class 0:
Packet latency average = 19.1158
	minimum = 7
	maximum = 38
Network latency average = 19.1158
	minimum = 7
	maximum = 38
Slowest packet = 10701
Flit latency average = 19.1958
	minimum = 7
	maximum = 38
Slowest flit = 10701
Fragmentation average = 0
	minimum = 0
	maximum = 0
Injected packet rate average = 0.0192187
	minimum = 0.014 (at node 3)
	maximum = 0.026 (at node 7)
Accepted packet rate average = 0.0194687
	minimum = 0.014 (at node 1)
	maximum = 0.0265 (at node 13)
Injected flit rate average = 0.0192187
	minimum = 0.014 (at node 3)
	maximum = 0.026 (at node 7)
Accepted flit rate average= 0.0194687
	minimum = 0.014 (at node 1)
	maximum = 0.0265 (at node 13)
Injected packet length average = 1
Accepted packet length average = 1
Total in-flight flits = 2 (2 measured)
latency change    = 0.00258313
throughput change = 0.00160514
Class 0:
Packet latency average = 19.2707
	minimum = 7
	maximum = 38
Network latency average = 19.2707
	minimum = 7
	maximum = 38
Slowest packet = 10701
Flit latency average = 19.3226
	minimum = 7
	maximum = 38
Slowest flit = 10701
Fragmentation average = 0
	minimum = 0
	maximum = 0
Injected packet rate average = 0.0193125
	minimum = 0.016 (at node 13)
	maximum = 0.0246667 (at node 7)
Accepted packet rate average = 0.019375
	minimum = 0.0163333 (at node 7)
	maximum = 0.0246667 (at node 13)
Injected flit rate average = 0.0193125
	minimum = 0.016 (at node 13)
	maximum = 0.0246667 (at node 7)
Accepted flit rate average= 0.019375
	minimum = 0.0163333 (at node 7)
	maximum = 0.0246667 (at node 13)
Injected packet length average = 1
Accepted packet length average = 1
Total in-flight flits = 7 (7 measured)
latency change    = 0.00803441
throughput change = 0.00483871
Class 0:
Packet latency average = 19.281
	minimum = 7
	maximum = 38
Network latency average = 19.281
	minimum = 7
	maximum = 38
Slowest packet = 10701
Flit latency average = 19.3201
	minimum = 7
	maximum = 38
Slowest flit = 10701
Fragmentation average = 0
	minimum = 0
	maximum = 0
Injected packet rate average = 0.0192344
	minimum = 0.01625 (at node 0)
	maximum = 0.02375 (at node 7)
Accepted packet rate average = 0.0192812
	minimum = 0.01625 (at node 0)
	maximum = 0.02325 (at node 13)
Injected flit rate average = 0.0192344
	minimum = 0.01625 (at node 0)
	maximum = 0.02375 (at node 7)
Accepted flit rate average= 0.0192812
	minimum = 0.01625 (at node 0)
	maximum = 0.02325 (at node 13)
Injected packet length average = 1
Accepted packet length average = 1
Total in-flight flits = 7 (7 measured)
latency change    = 0.000539057
throughput change = 0.00486224
Draining all recorded packets ...
Draining remaining packets ...
Time taken is 7043 cycles
Class 0:
Packet latency average = 19.0955
	minimum = 7
	maximum = 38
Network latency average = 19.0955
	minimum = 7
	maximum = 38
Slowest packet = 12097
Flit latency average = 19.0955
	minimum = 7
	maximum = 38
Slowest flit = 12097
Fragmentation average = 0
	minimum = 0
	maximum = 0
Injected packet rate average = 0.0199375
	minimum = 0.013 (at node 5)
	maximum = 0.032 (at node 0)
Accepted packet rate average = 0.019625
	minimum = 0.013 (at node 5)
	maximum = 0.032 (at node 0)
Injected flit rate average = 0.0199375
	minimum = 0.013 (at node 5)
	maximum = 0.032 (at node 0)
Accepted flit rate average= 0.019625
	minimum = 0.013 (at node 5)
	maximum = 0.032 (at node 0)
Injected packet length average = 1
Accepted packet length average = 1
Total in-flight flits = 5 (0 measured)
latency change    = 1
throughput change = 1
Class 0:
Packet latency average = 19.8486
	minimum = 7
	maximum = 38
Network latency average = 19.8486
	minimum = 7
	maximum = 38
Slowest packet = 12097
Flit latency average = 19.8486
	minimum = 7
	maximum = 38
Slowest flit = 12097
Fragmentation average = 0
	minimum = 0
	maximum = 0
Injected packet rate average = 0.018875
	minimum = 0.015 (at node 5)
	maximum = 0.0255 (at node 0)
Accepted packet rate average = 0.0187812
	minimum = 0.015 (at node 5)
	maximum = 0.0255 (at node 0)
Injected flit rate average = 0.018875
	minimum = 0.015 (at node 5)
	maximum = 0.0255 (at node 0)
Accepted flit rate average= 0.0187812
	minimum = 0.015 (at node 5)
	maximum = 0.0255 (at node 0)
Injected packet length average = 1
Accepted packet length average = 1
Total in-flight flits = 3 (0 measured)
latency change    = 0.0379394
throughput change = 0.0449251
Class 0:
Packet latency average = 19.7212
	minimum = 7
	maximum = 38
Network latency average = 19.7212
	minimum = 7
	maximum = 38
Slowest packet = 12559
Flit latency average = 19.7212
	minimum = 7
	maximum = 38
Slowest flit = 12559
Fragmentation average = 0
	minimum = 0
	maximum = 0
Injected packet rate average = 0.0198125
	minimum = 0.012 (at node 13)
	maximum = 0.026 (at node 11)
Accepted packet rate average = 0.0195
	minimum = 0.012 (at node 7)
	maximum = 0.027 (at node 14)
Injected flit rate average = 0.0198125
	minimum = 0.012 (at node 13)
	maximum = 0.026 (at node 11)
Accepted flit rate average= 0.0195
	minimum = 0.012 (at node 7)
	maximum = 0.027 (at node 14)
Injected packet length average = 1
Accepted packet length average = 1
Total in-flight flits = 8 (0 measured)
latency change    = 0.00646168
throughput change = 0.036859
Warmed up ...Time used is 3000 cycles
Class 0:
Packet latency average = 19.5526
	minimum = 7
	maximum = 38
Network latency average = 19.5526
	minimum = 7
	maximum = 38
Slowest packet = 12916
Flit latency average = 19.7468
	minimum = 7
	maximum = 38
Slowest flit = 12916
Fragmentation average = 0
	minimum = 0
	maximum = 0
Injected packet rate average = 0.01925
	minimum = 0.014 (at node 0)
	maximum = 0.026 (at node 1)
Accepted packet rate average = 0.0195
	minimum = 0.014 (at node 11)
	maximum = 0.026 (at node 4)
Injected flit rate average = 0.01925
	minimum = 0.014 (at node 0)
	maximum = 0.026 (at node 1)
Accepted flit rate average= 0.0195
	minimum = 0.014 (at node 11)
	maximum = 0.026 (at node 4)
Injected packet length average = 1
Accepted packet length average = 1
Total in-flight flits = 4 (4 measured)
latency change    = 0.0086189
throughput change = 0
Class 0:
Packet latency average = 19.2889
	minimum = 7
	maximum = 38
Network latency average = 19.2889
	minimum = 7
	maximum = 38
Slowest packet = 12916
Flit latency average = 19.386
	minimum = 7
	maximum = 38
Slowest flit = 12916
Fragmentation average = 0
	minimum = 0
	maximum = 0
Injected packet rate average = 0.02
	minimum = 0.0145 (at node 2)
	maximum = 0.023 (at node 8)
Accepted packet rate average = 0.0201563
	minimum = 0.015 (at node 8)
	maximum = 0.0235 (at node 2)
Injected flit rate average = 0.02
	minimum = 0.0145 (at node 2)
	maximum = 0.023 (at node 8)
Accepted flit rate average= 0.0201563
	minimum = 0.015 (at node 8)
	maximum = 0.0235 (at node 2)
Injected packet length average = 1
Accepted packet length average = 1
Total in-flight flits = 3 (3 measured)
latency change    = 0.0136751
throughput change = 0.0325581
Class 0:
Packet latency average = 19.0701
	minimum = 7
	maximum = 38
Network latency average = 19.0701
	minimum = 7
	maximum = 38
Slowest packet = 12916
Flit latency average = 19.1411
	minimum = 7
	maximum = 38
Slowest flit = 12916
Fragmentation average = 0
	minimum = 0
	maximum = 0
Injected packet rate average = 0.0188125
	minimum = 0.015 (at node 12)
	maximum = 0.0213333 (at node 10)
Accepted packet rate average = 0.0188958
	minimum = 0.0156667 (at node 3)
	maximum = 0.0213333 (at node 10)
Injected flit rate average = 0.0188125
	minimum = 0.015 (at node 12)
	maximum = 0.0213333 (at node 10)
Accepted flit rate average= 0.0188958
	minimum = 0.0156667 (at node 3)
	maximum = 0.0213333 (at node 10)
Injected packet length average = 1
Accepted packet length average = 1
Total in-flight flits = 4 (4 measured)
latency change    = 0.0114722
throughput change = 0.0667034
Class 0:
Packet latency average = 19.0966
	minimum = 7
	maximum = 38
Network latency average = 19.0966
	minimum = 7
	maximum = 38
Slowest packet = 12916
Flit latency average = 19.1484
	minimum = 7
	maximum = 38
Slowest flit = 12916
Fragmentation average = 0
	minimum = 0
	maximum = 0
Injected packet rate average = 0.0193906
	minimum = 0.01625 (at node 12)
	maximum = 0.0235 (at node 10)
Accepted packet rate average = 0.019375
	minimum = 0.0165 (at node 3)
	maximum = 0.0235 (at node 10)
Injected flit rate average = 0.0193906
	minimum = 0.01625 (at node 12)
	maximum = 0.0235 (at node 10)
Accepted flit rate average= 0.019375
	minimum = 0.0165 (at node 3)
	maximum = 0.0235 (at node 10)
Injected packet length average = 1
Accepted packet length average = 1
Total in-flight flits = 9 (9 measured)
latency change    = 0.00138837
throughput change = 0.0247312
Class 0:
Packet latency average = 19.1164
	minimum = 7
	maximum = 38
Network latency average = 19.1164
	minimum = 7
	maximum = 38
Slowest packet = 12916
Flit latency average = 19.1574
	minimum = 7
	maximum = 38
Slowest flit = 12916
Fragmentation average = 0
	minimum = 0
	maximum = 0
Injected packet rate average = 0.019475
	minimum = 0.0168 (at node 2)
	maximum = 0.0232 (at node 10)
Accepted packet rate average = 0.0195375
	minimum = 0.017 (at node 8)
	maximum = 0.0232 (at node 10)
Injected flit rate average = 0.019475
	minimum = 0.0168 (at node 2)
	maximum = 0.0232 (at node 10)
Accepted flit rate average= 0.0195375
	minimum = 0.017 (at node 8)
	maximum = 0.0232 (at node 10)
Injected packet length average = 1
Accepted packet length average = 1
Total in-flight flits = 3 (3 measured)
latency change    = 0.00103617
throughput change = 0.00831734
Class 0:
Packet latency average = 19.363
	minimum = 7
	maximum = 38
Network latency average = 19.363
	minimum = 7
	maximum = 38
Slowest packet = 12916
Flit latency average = 19.3962
	minimum = 7
	maximum = 38
Slowest flit = 12916
Fragmentation average = 0
	minimum = 0
	maximum = 0
Injected packet rate average = 0.0194896
	minimum = 0.0173333 (at node 7)
	maximum = 0.0225 (at node 10)
Accepted packet rate average = 0.0195104
	minimum = 0.0176667 (at node 13)
	maximum = 0.0225 (at node 10)
Injected flit rate average = 0.0194896
	minimum = 0.0173333 (at node 7)
	maximum = 0.0225 (at node 10)
Accepted flit rate average= 0.0195104
	minimum = 0.0176667 (at node 13)
	maximum = 0.0225 (at node 10)
Injected packet length average = 1
Accepted packet length average = 1
Total in-flight flits = 6 (6 measured)
latency change    = 0.0127358
throughput change = 0.00138815
Draining all recorded packets ...
Draining remaining packets ...
Time taken is 9054 cycles
Class 0:
Packet latency average = 18.9531
	minimum = 7
	maximum = 38
Network latency average = 18.9531
	minimum = 7
	maximum = 38
Slowest packet = 14730
Flit latency average = 18.9531
	minimum = 7
	maximum = 38
Slowest flit = 14730
Fragmentation average = 0
	minimum = 0
	maximum = 0
Injected packet rate average = 0.0215
	minimum = 0.014 (at node 2)
	maximum = 0.03 (at node 4)
Accepted packet rate average = 0.0213125
	minimum = 0.014 (at node 8)
	maximum = 0.03 (at node 1)
Injected flit rate average = 0.0215
	minimum = 0.014 (at node 2)
	maximum = 0.03 (at node 4)
Accepted flit rate average= 0.0213125
	minimum = 0.014 (at node 8)
	maximum = 0.03 (at node 1)
Injected packet length average = 1
Accepted packet length average = 1
Total in-flight flits = 3 (0 measured)
latency change    = 1
throughput change = 1
Class 0:
Packet latency average = 19.1155
	minimum = 7
	maximum = 38
Network latency average = 19.1155
	minimum = 7
	maximum = 38
Slowest packet = 14730
Flit latency average = 19.1155
	minimum = 7
	maximum = 38
Slowest flit = 14730
Fragmentation average = 0
	minimum = 0
	maximum = 0
Injected packet rate average = 0.0215
	minimum = 0.0155 (at node 2)
	maximum = 0.0265 (at node 4)
Accepted packet rate average = 0.021375
	minimum = 0.0155 (at node 8)
	maximum = 0.0265 (at node 1)
Injected flit rate average = 0.0215
	minimum = 0.0155 (at node 2)
	maximum = 0.0265 (at node 4)
Accepted flit rate average= 0.021375
	minimum = 0.0155 (at node 8)
	maximum = 0.0265 (at node 1)
Injected packet length average = 1
Accepted packet length average = 1
Total in-flight flits = 4 (0 measured)
latency change    = 0.00849666
throughput change = 0.00292398
Class 0:
Packet latency average = 19.2229
	minimum = 7
	maximum = 38
Network latency average = 19.2229
	minimum = 7
	maximum = 38
Slowest packet = 15412
Flit latency average = 19.2229
	minimum = 7
	maximum = 38
Slowest flit = 15412
Fragmentation average = 0
	minimum = 0
	maximum = 0
Injected packet rate average = 0.0208125
	minimum = 0.016 (at node 12)
	maximum = 0.025 (at node 0)
Accepted packet rate average = 0.02075
	minimum = 0.016 (at node 3)
	maximum = 0.025 (at node 0)
Injected flit rate average = 0.0208125
	minimum = 0.016 (at node 12)
	maximum = 0.025 (at node 0)
Accepted flit rate average= 0.02075
	minimum = 0.016 (at node 3)
	maximum = 0.025 (at node 0)
Injected packet length average = 1
Accepted packet length average = 1
Total in-flight flits = 5 (0 measured)
latency change    = 0.0055868
throughput change = 0.0301205
Warmed up ...Time used is 3000 cycles
Class 0:
Packet latency average = 19.1129
	minimum = 7
	maximum = 38
Network latency average = 19.1129
	minimum = 7
	maximum = 38
Slowest packet = 15713
Flit latency average = 19.2698
	minimum = 7
	maximum = 38
Slowest flit = 15713
Fragmentation average = 0
	minimum = 0
	maximum = 0
Injected packet rate average = 0.019875
	minimum = 0.013 (at node 12)
	maximum = 0.028 (at node 1)
Accepted packet rate average = 0.0196875
	minimum = 0.013 (at node 6)
	maximum = 0.029 (at node 4)
Injected flit rate average = 0.019875
	minimum = 0.013 (at node 12)
	maximum = 0.028 (at node 1)
Accepted flit rate average= 0.0196875
	minimum = 0.013 (at node 6)
	maximum = 0.029 (at node 4)
Injected packet length average = 1
Accepted packet length average = 1
Total in-flight flits = 8 (8 measured)
latency change    = 0.00575466
throughput change = 0.0539683
Class 0:
Packet latency average = 19.106
	minimum = 7
	maximum = 38
Network latency average = 19.106
	minimum = 7
	maximum = 38
Slowest packet = 15713
Flit latency average = 19.1837
	minimum = 7
	maximum = 38
Slowest flit = 15713
Fragmentation average = 0
	minimum = 0
	maximum = 0
Injected packet rate average = 0.0198125
	minimum = 0.017 (at node 7)
	maximum = 0.0245 (at node 1)
Accepted packet rate average = 0.0199063
	minimum = 0.017 (at node 2)
	maximum = 0.0245 (at node 4)
Injected flit rate average = 0.0198125
	minimum = 0.017 (at node 7)
	maximum = 0.0245 (at node 1)
Accepted flit rate average= 0.0199063
	minimum = 0.017 (at node 2)
	maximum = 0.0245 (at node 4)
Injected packet length average = 1
Accepted packet length average = 1
Total in-flight flits = 2 (2 measured)
latency change    = 0.000360649
throughput change = 0.010989
Class 0:
Packet latency average = 19.2008
	minimum = 7
	maximum = 38
Network latency average = 19.2008
	minimum = 7
	maximum = 38
Slowest packet = 15713
Flit latency average = 19.2518
	minimum = 7
	maximum = 38
Slowest flit = 15713
Fragmentation average = 0
	minimum = 0
	maximum = 0
Injected packet rate average = 0.0200833
	minimum = 0.0166667 (at node 8)
	maximum = 0.0233333 (at node 6)
Accepted packet rate average = 0.0200208
	minimum = 0.0163333 (at node 2)
	maximum = 0.0236667 (at node 9)
Injected flit rate average = 0.0200833
	minimum = 0.0166667 (at node 8)
	maximum = 0.0233333 (at node 6)
Accepted flit rate average= 0.0200208
	minimum = 0.0163333 (at node 2)
	maximum = 0.0236667 (at node 9)
Injected packet length average = 1
Accepted packet length average = 1
Total in-flight flits = 8 (8 measured)
latency change    = 0.00493854
throughput change = 0.0057232
Class 0:
Packet latency average = 19.5249
	minimum = 7
	maximum = 38
Network latency average = 19.5249
	minimum = 7
	maximum = 38
Slowest packet = 15713
Flit latency average = 19.5616
	minimum = 7
	maximum = 38
Slowest flit = 15713
Fragmentation average = 0
	minimum = 0
	maximum = 0
Injected packet rate average = 0.0201875
	minimum = 0.0165 (at node 11)
	maximum = 0.0235 (at node 5)
Accepted packet rate average = 0.0201719
	minimum = 0.0165 (at node 14)
	maximum = 0.0235 (at node 5)
Injected flit rate average = 0.0201875
	minimum = 0.0165 (at node 11)
	maximum = 0.0235 (at node 5)
Accepted flit rate average= 0.0201719
	minimum = 0.0165 (at node 14)
	maximum = 0.0235 (at node 5)
Injected packet length average = 1
Accepted packet length average = 1
Total in-flight flits = 6 (6 measured)
latency change    = 0.0165966
throughput change = 0.00748774
Draining all recorded packets ...
Draining remaining packets ...
Time taken is 7060 cycles
Class 0:
Packet latency average = 20.4013
	minimum = 7
	maximum = 37
Network latency average = 20.4013
	minimum = 7
	maximum = 37
Slowest packet = 16958
Flit latency average = 20.4013
	minimum = 7
	maximum = 37
Slowest flit = 16958
Fragmentation average = 0
	minimum = 0
	maximum = 0
Injected packet rate average = 0.0194375
	minimum = 0.012 (at node 4)
	maximum = 0.034 (at node 2)
Accepted packet rate average = 0.019
	minimum = 0.011 (at node 1)
	maximum = 0.033 (at node 8)
Injected flit rate average = 0.0194375
	minimum = 0.012 (at node 4)
	maximum = 0.034 (at node 2)
Accepted flit rate average= 0.019
	minimum = 0.011 (at node 1)
	maximum = 0.033 (at node 8)
Injected packet length average = 1
Accepted packet length average = 1
Total in-flight flits = 7 (0 measured)
latency change    = 1
throughput change = 1
Class 0:
Packet latency average = 20
	minimum = 7
	maximum = 38
Network latency average = 20
	minimum = 7
	maximum = 38
Slowest packet = 17395
Flit latency average = 20
	minimum = 7
	maximum = 38
Slowest flit = 17395
Fragmentation average = 0
	minimum = 0
	maximum = 0
Injected packet rate average = 0.019625
	minimum = 0.0145 (at node 10)
	maximum = 0.027 (at node 2)
Accepted packet rate average = 0.0194375
	minimum = 0.0145 (at node 10)
	maximum = 0.026 (at node 8)
Injected flit rate average = 0.019625
	minimum = 0.0145 (at node 10)
	maximum = 0.027 (at node 2)
Accepted flit rate average= 0.0194375
	minimum = 0.0145 (at node 10)
	maximum = 0.026 (at node 8)
Injected packet length average = 1
Accepted packet length average = 1
Total in-flight flits = 6 (0 measured)
latency change    = 0.0200658
throughput change = 0.022508
Class 0:
Packet latency average = 19.1104
	minimum = 7
	maximum = 42
Network latency average = 19.1104
	minimum = 7
	maximum = 42
Slowest packet = 17585
Flit latency average = 19.1104
	minimum = 7
	maximum = 42
Slowest flit = 17585
Fragmentation average = 0
	minimum = 0
	maximum = 0
Injected packet rate average = 0.0196875
	minimum = 0.011 (at node 2)
	maximum = 0.025 (at node 4)
Accepted packet rate average = 0.0198125
	minimum = 0.013 (at node 8)
	maximum = 0.025 (at node 1)
Injected flit rate average = 0.0196875
	minimum = 0.011 (at node 2)
	maximum = 0.025 (at node 4)
Accepted flit rate average= 0.0198125
	minimum = 0.013 (at node 8)
	maximum = 0.025 (at node 1)
Injected packet length average = 1
Accepted packet length average = 1
Total in-flight flits = 4 (0 measured)
latency change    = 0.04655
throughput change = 0.0189274
Warmed up ...Time used is 3000 cycles
Class 0:
Packet latency average = 18.3592
	minimum = 7
	maximum = 37
Network latency average = 18.3592
	minimum = 7
	maximum = 37
Slowest packet = 17917
Flit latency average = 18.3722
	minimum = 7
	maximum = 37
Slowest flit = 17898
Fragmentation average = 0
	minimum = 0
	maximum = 0
Injected packet rate average = 0.022125
	minimum = 0.014 (at node 7)
	maximum = 0.031 (at node 9)
Accepted packet rate average = 0.022
	minimum = 0.014 (at node 7)
	maximum = 0.03 (at node 6)
Injected flit rate average = 0.022125
	minimum = 0.014 (at node 7)
	maximum = 0.031 (at node 9)
Accepted flit rate average= 0.022
	minimum = 0.014 (at node 7)
	maximum = 0.03 (at node 6)
Injected packet length average = 1
Accepted packet length average = 1
Total in-flight flits = 6 (6 measured)
latency change    = 0.0409176
throughput change = 0.0994318
Class 0:
Packet latency average = 18.8595
	minimum = 7
	maximum = 37
Network latency average = 18.8595
	minimum = 7
	maximum = 37
Slowest packet = 17917
Flit latency average = 18.8633
	minimum = 7
	maximum = 37
Slowest flit = 17898
Fragmentation average = 0
	minimum = 0
	maximum = 0
Injected packet rate average = 0.021125
	minimum = 0.014 (at node 7)
	maximum = 0.027 (at node 9)
Accepted packet rate average = 0.0210313
	minimum = 0.0135 (at node 13)
	maximum = 0.027 (at node 10)
Injected flit rate average = 0.021125
	minimum = 0.014 (at node 7)
	maximum = 0.027 (at node 9)
Accepted flit rate average= 0.0210313
	minimum = 0.0135 (at node 13)
	maximum = 0.027 (at node 10)
Injected packet length average = 1
Accepted packet length average = 1
Total in-flight flits = 7 (7 measured)
latency change    = 0.0265276
throughput change = 0.0460624
Class 0:
Packet latency average = 19.1007
	minimum = 7
	maximum = 39
Network latency average = 19.1007
	minimum = 7
	maximum = 39
Slowest packet = 18601
Flit latency average = 19.1022
	minimum = 7
	maximum = 39
Slowest flit = 18601
Fragmentation average = 0
	minimum = 0
	maximum = 0
Injected packet rate average = 0.021875
	minimum = 0.0176667 (at node 7)
	maximum = 0.0263333 (at node 8)
Accepted packet rate average = 0.0218125
	minimum = 0.0173333 (at node 13)
	maximum = 0.026 (at node 2)
Injected flit rate average = 0.021875
	minimum = 0.0176667 (at node 7)
	maximum = 0.0263333 (at node 8)
Accepted flit rate average= 0.0218125
	minimum = 0.0173333 (at node 13)
	maximum = 0.026 (at node 2)
Injected packet length average = 1
Accepted packet length average = 1
Total in-flight flits = 7 (7 measured)
latency change    = 0.0126267
throughput change = 0.0358166
Class 0:
Packet latency average = 19.2473
	minimum = 7
	maximum = 42
Network latency average = 19.2473
	minimum = 7
	maximum = 42
Slowest packet = 19231
Flit latency average = 19.248
	minimum = 7
	maximum = 42
Slowest flit = 19231
Fragmentation average = 0
	minimum = 0
	maximum = 0
Injected packet rate average = 0.0216094
	minimum = 0.01825 (at node 11)
	maximum = 0.02625 (at node 8)
Accepted packet rate average = 0.0215469
	minimum = 0.01825 (at node 14)
	maximum = 0.02625 (at node 2)
Injected flit rate average = 0.0216094
	minimum = 0.01825 (at node 11)
	maximum = 0.02625 (at node 8)
Accepted flit rate average= 0.0215469
	minimum = 0.01825 (at node 14)
	maximum = 0.02625 (at node 2)
Injected packet length average = 1
Accepted packet length average = 1
Total in-flight flits = 8 (8 measured)
latency change    = 0.00761675
throughput change = 0.0123278
Draining all recorded packets ...
Draining remaining packets ...
Time taken is 7052 cycles
Class 0:
Packet latency average = 19.0942
	minimum = 7
	maximum = 37
Network latency average = 19.0942
	minimum = 7
	maximum = 37
Slowest packet = 19293
Flit latency average = 19.0942
	minimum = 7
	maximum = 37
Slowest flit = 19293
Fragmentation average = 0
	minimum = 0
	maximum = 0
Injected packet rate average = 0.01975
	minimum = 0.013 (at node 2)
	maximum = 0.029 (at node 13)
Accepted packet rate average = 0.01925
	minimum = 0.013 (at node 8)
	maximum = 0.028 (at node 7)
Injected flit rate average = 0.01975
	minimum = 0.013 (at node 2)
	maximum = 0.029 (at node 13)
Accepted flit rate average= 0.01925
	minimum = 0.013 (at node 8)
	maximum = 0.028 (at node 7)
Injected packet length average = 1
Accepted packet length average = 1
Total in-flight flits = 8 (0 measured)
latency change    = 1
throughput change = 1
Class 0:
Packet latency average = 19.5826
	minimum = 7
	maximum = 38
Network latency average = 19.5826
	minimum = 7
	maximum = 38
Slowest packet = 19636
Flit latency average = 19.5826
	minimum = 7
	maximum = 38
Slowest flit = 19636
Fragmentation average = 0
	minimum = 0
	maximum = 0
Injected packet rate average = 0.0190937
	minimum = 0.015 (at node 12)
	maximum = 0.028 (at node 13)
Accepted packet rate average = 0.0187187
	minimum = 0.014 (at node 3)
	maximum = 0.0275 (at node 7)
Injected flit rate average = 0.0190937
	minimum = 0.015 (at node 12)
	maximum = 0.028 (at node 13)
Accepted flit rate average= 0.0187187
	minimum = 0.014 (at node 3)
	maximum = 0.0275 (at node 7)
Injected packet length average = 1
Accepted packet length average = 1
Total in-flight flits = 12 (0 measured)
latency change    = 0.0249446
throughput change = 0.0283806
Class 0:
Packet latency average = 19.0162
	minimum = 7
	maximum = 37
Network latency average = 19.0162
	minimum = 7
	maximum = 37
Slowest packet = 19887
Flit latency average = 19.0162
	minimum = 7
	maximum = 37
Slowest flit = 19887
Fragmentation average = 0
	minimum = 0
	maximum = 0
Injected packet rate average = 0.0186875
	minimum = 0.012 (at node 11)
	maximum = 0.03 (at node 15)
Accepted packet rate average = 0.01925
	minimum = 0.013 (at node 12)
	maximum = 0.03 (at node 15)
Injected flit rate average = 0.0186875
	minimum = 0.012 (at node 11)
	maximum = 0.03 (at node 15)
Accepted flit rate average= 0.01925
	minimum = 0.013 (at node 12)
	maximum = 0.03 (at node 15)
Injected packet length average = 1
Accepted packet length average = 1
Total in-flight flits = 3 (0 measured)
latency change    = 0.0297853
throughput change = 0.0275974
Warmed up ...Time used is 3000 cycles
Class 0:
Packet latency average = 18.4169
	minimum = 7
	maximum = 38
Network latency average = 18.4169
	minimum = 7
	maximum = 38
Slowest packet = 20210
Flit latency average = 18.5901
	minimum = 7
	maximum = 38
Slowest flit = 20210
Fragmentation average = 0
	minimum = 0
	maximum = 0
Injected packet rate average = 0.0200625
	minimum = 0.012 (at node 12)
	maximum = 0.036 (at node 6)
Accepted packet rate average = 0.020125
	minimum = 0.013 (at node 1)
	maximum = 0.036 (at node 9)
Injected flit rate average = 0.0200625
	minimum = 0.012 (at node 12)
	maximum = 0.036 (at node 6)
Accepted flit rate average= 0.020125
	minimum = 0.013 (at node 1)
	maximum = 0.036 (at node 9)
Injected packet length average = 1
Accepted packet length average = 1
Total in-flight flits = 2 (2 measured)
latency change    = 0.032541
throughput change = 0.0434783
Class 0:
Packet latency average = 18.5125
	minimum = 7
	maximum = 38
Network latency average = 18.5125
	minimum = 7
	maximum = 38
Slowest packet = 20210
Flit latency average = 18.6047
	minimum = 7
	maximum = 38
Slowest flit = 20210
Fragmentation average = 0
	minimum = 0
	maximum = 0
Injected packet rate average = 0.0191875
	minimum = 0.013 (at node 3)
	maximum = 0.0275 (at node 6)
Accepted packet rate average = 0.0188125
	minimum = 0.0135 (at node 12)
	maximum = 0.027 (at node 9)
Injected flit rate average = 0.0191875
	minimum = 0.013 (at node 3)
	maximum = 0.0275 (at node 6)
Accepted flit rate average= 0.0188125
	minimum = 0.0135 (at node 12)
	maximum = 0.027 (at node 9)
Injected packet length average = 1
Accepted packet length average = 1
Total in-flight flits = 15 (15 measured)
latency change    = 0.00516369
throughput change = 0.0697674
Class 0:
Packet latency average = 18.8736
	minimum = 7
	maximum = 38
Network latency average = 18.8736
	minimum = 7
	maximum = 38
Slowest packet = 20210
Flit latency average = 18.9332
	minimum = 7
	maximum = 38
Slowest flit = 20210
Fragmentation average = 0
	minimum = 0
	maximum = 0
Injected packet rate average = 0.019
	minimum = 0.0143333 (at node 3)
	maximum = 0.023 (at node 11)
Accepted packet rate average = 0.0190208
	minimum = 0.015 (at node 7)
	maximum = 0.023 (at node 14)
Injected flit rate average = 0.019
	minimum = 0.0143333 (at node 3)
	maximum = 0.023 (at node 11)
Accepted flit rate average= 0.0190208
	minimum = 0.015 (at node 7)
	maximum = 0.023 (at node 14)
Injected packet length average = 1
Accepted packet length average = 1
Total in-flight flits = 2 (2 measured)
latency change    = 0.0191328
throughput change = 0.0109529
Class 0:
Packet latency average = 19.0536
	minimum = 7
	maximum = 38
Network latency average = 19.0536
	minimum = 7
	maximum = 38
Slowest packet = 20210
Flit latency average = 19.096
	minimum = 7
	maximum = 38
Slowest flit = 20210
Fragmentation average = 0
	minimum = 0
	maximum = 0
Injected packet rate average = 0.0199688
	minimum = 0.01525 (at node 3)
	maximum = 0.0235 (at node 11)
Accepted packet rate average = 0.0198594
	minimum = 0.01575 (at node 12)
	maximum = 0.02325 (at node 14)
Injected flit rate average = 0.0199688
	minimum = 0.01525 (at node 3)
	maximum = 0.0235 (at node 11)
Accepted flit rate average= 0.0198594
	minimum = 0.01575 (at node 12)
	maximum = 0.02325 (at node 14)
Injected packet length average = 1
Accepted packet length average = 1
Total in-flight flits = 10 (10 measured)
latency change    = 0.00944709
throughput change = 0.042224
Class 0:
Packet latency average = 19.1246
	minimum = 7
	maximum = 38
Network latency average = 19.1246
	minimum = 7
	maximum = 38
Slowest packet = 20210
Flit latency average = 19.1583
	minimum = 7
	maximum = 38
Slowest flit = 20210
Fragmentation average = 0
	minimum = 0
	maximum = 0
Injected packet rate average = 0.019925
	minimum = 0.0152 (at node 3)
	maximum = 0.024 (at node 11)
Accepted packet rate average = 0.0199
	minimum = 0.0154 (at node 12)
	maximum = 0.024 (at node 14)
Injected flit rate average = 0.019925
	minimum = 0.0152 (at node 3)
	maximum = 0.024 (at node 11)
Accepted flit rate average= 0.0199
	minimum = 0.0154 (at node 12)
	maximum = 0.024 (at node 14)
Injected packet length average = 1
Accepted packet length average = 1
Total in-flight flits = 5 (5 measured)
latency change    = 0.00371139
throughput change = 0.00204146
Draining all recorded packets ...
Draining remaining packets ...
Time taken is 8017 cycles
Class 0:
Packet latency average = 18.9325
	minimum = 7
	maximum = 37
Network latency average = 18.9325
	minimum = 7
	maximum = 37
Slowest packet = 21805
Flit latency average = 18.9325
	minimum = 7
	maximum = 37
Slowest flit = 21805
Fragmentation average = 0
	minimum = 0
	maximum = 0
Injected packet rate average = 0.02025
	minimum = 0.013 (at node 6)
	maximum = 0.028 (at node 0)
Accepted packet rate average = 0.0194375
	minimum = 0.013 (at node 9)
	maximum = 0.028 (at node 0)
Injected flit rate average = 0.02025
	minimum = 0.013 (at node 6)
	maximum = 0.028 (at node 0)
Accepted flit rate average= 0.0194375
	minimum = 0.013 (at node 9)
	maximum = 0.028 (at node 0)
Injected packet length average = 1
Accepted packet length average = 1
Total in-flight flits = 13 (0 measured)
latency change    = 1
throughput change = 1
Class 0:
Packet latency average = 18.9547
	minimum = 7
	maximum = 37
Network latency average = 18.9547
	minimum = 7
	maximum = 37
Slowest packet = 21805
Flit latency average = 18.9547
	minimum = 7
	maximum = 37
Slowest flit = 21805
Fragmentation average = 0
	minimum = 0
	maximum = 0
Injected packet rate average = 0.0195625
	minimum = 0.015 (at node 3)
	maximum = 0.0245 (at node 1)
Accepted packet rate average = 0.0193125
	minimum = 0.015 (at node 12)
	maximum = 0.0245 (at node 4)
Injected flit rate average = 0.0195625
	minimum = 0.015 (at node 3)
	maximum = 0.0245 (at node 1)
Accepted flit rate average= 0.0193125
	minimum = 0.015 (at node 12)
	maximum = 0.0245 (at node 4)
Injected packet length average = 1
Accepted packet length average = 1
Total in-flight flits = 8 (0 measured)
latency change    = 0.00117209
throughput change = 0.00647249
Class 0:
Packet latency average = 19.6535
	minimum = 7
	maximum = 37
Network latency average = 19.6535
	minimum = 7
	maximum = 37
Slowest packet = 22418
Flit latency average = 19.6535
	minimum = 7
	maximum = 37
Slowest flit = 22418
Fragmentation average = 0
	minimum = 0
	maximum = 0
Injected packet rate average = 0.020375
	minimum = 0.016 (at node 11)
	maximum = 0.029 (at node 8)
Accepted packet rate average = 0.0205625
	minimum = 0.016 (at node 14)
	maximum = 0.029 (at node 2)
Injected flit rate average = 0.020375
	minimum = 0.016 (at node 11)
	maximum = 0.029 (at node 8)
Accepted flit rate average= 0.0205625
	minimum = 0.016 (at node 14)
	maximum = 0.029 (at node 2)
Injected packet length average = 1
Accepted packet length average = 1
Total in-flight flits = 5 (0 measured)
latency change    = 0.0355562
throughput change = 0.0607903
Warmed up ...Time used is 3000 cycles
Class 0:
Packet latency average = 18.1536
	minimum = 7
	maximum = 37
Network latency average = 18.1536
	minimum = 7
	maximum = 37
Slowest packet = 22761
Flit latency average = 18.3439
	minimum = 7
	maximum = 37
Slowest flit = 22740
Fragmentation average = 0
	minimum = 0
	maximum = 0
Injected packet rate average = 0.017875
	minimum = 0.005 (at node 3)
	maximum = 0.024 (at node 11)
Accepted packet rate average = 0.0178125
	minimum = 0.006 (at node 12)
	maximum = 0.025 (at node 14)
Injected flit rate average = 0.017875
	minimum = 0.005 (at node 3)
	maximum = 0.024 (at node 11)
Accepted flit rate average= 0.0178125
	minimum = 0.006 (at node 12)
	maximum = 0.025 (at node 14)
Injected packet length average = 1
Accepted packet length average = 1
Total in-flight flits = 6 (6 measured)
latency change    = 0.0826242
throughput change = 0.154386
Class 0:
Packet latency average = 18.7728
	minimum = 7
	maximum = 38
Network latency average = 18.7728
	minimum = 7
	maximum = 38
Slowest packet = 23287
Flit latency average = 18.8569
	minimum = 7
	maximum = 38
Slowest flit = 23287
Fragmentation average = 0
	minimum = 0
	maximum = 0
Injected packet rate average = 0.019
	minimum = 0.013 (at node 3)
	maximum = 0.023 (at node 8)
Accepted packet rate average = 0.019
	minimum = 0.0135 (at node 12)
	maximum = 0.023 (at node 2)
Injected flit rate average = 0.019
	minimum = 0.013 (at node 3)
	maximum = 0.023 (at node 8)
Accepted flit rate average= 0.019
	minimum = 0.0135 (at node 12)
	maximum = 0.023 (at node 2)
Injected packet length average = 1
Accepted packet length average = 1
Total in-flight flits = 5 (5 measured)
latency change    = 0.0329856
throughput change = 0.0625
Class 0:
Packet latency average = 19.1346
	minimum = 7
	maximum = 38
Network latency average = 19.1346
	minimum = 7
	maximum = 38
Slowest packet = 23287
Flit latency average = 19.1882
	minimum = 7
	maximum = 38
Slowest flit = 23287
Fragmentation average = 0
	minimum = 0
	maximum = 0
Injected packet rate average = 0.0191667
	minimum = 0.015 (at node 3)
	maximum = 0.023 (at node 8)
Accepted packet rate average = 0.0191458
	minimum = 0.0146667 (at node 12)
	maximum = 0.0226667 (at node 2)
Injected flit rate average = 0.0191667
	minimum = 0.015 (at node 3)
	maximum = 0.023 (at node 8)
Accepted flit rate average= 0.0191458
	minimum = 0.0146667 (at node 12)
	maximum = 0.0226667 (at node 2)
Injected packet length average = 1
Accepted packet length average = 1
Total in-flight flits = 6 (6 measured)
latency change    = 0.0189066
throughput change = 0.00761697
Class 0:
Packet latency average = 19.1697
	minimum = 7
	maximum = 38
Network latency average = 19.1697
	minimum = 7
	maximum = 38
Slowest packet = 23287
Flit latency average = 19.2098
	minimum = 7
	maximum = 38
Slowest flit = 23287
Fragmentation average = 0
	minimum = 0
	maximum = 0
Injected packet rate average = 0.0191719
	minimum = 0.0165 (at node 3)
	maximum = 0.023 (at node 0)
Accepted packet rate average = 0.0191406
	minimum = 0.01675 (at node 12)
	maximum = 0.023 (at node 0)
Injected flit rate average = 0.0191719
	minimum = 0.0165 (at node 3)
	maximum = 0.023 (at node 0)
Accepted flit rate average= 0.0191406
	minimum = 0.01675 (at node 12)
	maximum = 0.023 (at node 0)
Injected packet length average = 1
Accepted packet length average = 1
Total in-flight flits = 7 (7 measured)
latency change    = 0.00183096
throughput change = 0.000272109
Class 0:
Packet latency average = 19.1113
	minimum = 7
	maximum = 38
Network latency average = 19.1113
	minimum = 7
	maximum = 38
Slowest packet = 23287
Flit latency average = 19.143
	minimum = 7
	maximum = 38
Slowest flit = 23287
Fragmentation average = 0
	minimum = 0
	maximum = 0
Injected packet rate average = 0.0195125
	minimum = 0.0166 (at node 3)
	maximum = 0.023 (at node 0)
Accepted packet rate average = 0.0194875
	minimum = 0.0168 (at node 12)
	maximum = 0.023 (at node 0)
Injected flit rate average = 0.0195125
	minimum = 0.0166 (at node 3)
	maximum = 0.023 (at node 0)
Accepted flit rate average= 0.0194875
	minimum = 0.0168 (at node 12)
	maximum = 0.023 (at node 0)
Injected packet length average = 1
Accepted packet length average = 1
Total in-flight flits = 7 (7 measured)
latency change    = 0.00305298
throughput change = 0.0177999
Draining all recorded packets ...
Draining remaining packets ...
Time taken is 8064 cycles
Class 0:
Packet latency average = 19.89
	minimum = 7
	maximum = 38
Network latency average = 19.89
	minimum = 7
	maximum = 38
Slowest packet = 24535
Flit latency average = 19.89
	minimum = 7
	maximum = 38
Slowest flit = 24535
Fragmentation average = 0
	minimum = 0
	maximum = 0
Injected packet rate average = 0.019625
	minimum = 0.013 (at node 7)
	maximum = 0.026 (at node 3)
Accepted packet rate average = 0.0193125
	minimum = 0.013 (at node 13)
	maximum = 0.025 (at node 4)
Injected flit rate average = 0.019625
	minimum = 0.013 (at node 7)
	maximum = 0.026 (at node 3)
Accepted flit rate average= 0.0193125
	minimum = 0.013 (at node 13)
	maximum = 0.025 (at node 4)
Injected packet length average = 1
Accepted packet length average = 1
Total in-flight flits = 5 (0 measured)
latency change    = 1
throughput change = 1
Class 0:
Packet latency average = 19.4741
	minimum = 7
	maximum = 38
Network latency average = 19.4741
	minimum = 7
	maximum = 38
Slowest packet = 24535
Flit latency average = 19.4741
	minimum = 7
	maximum = 38
Slowest flit = 24535
Fragmentation average = 0
	minimum = 0
	maximum = 0
Injected packet rate average = 0.0202188
	minimum = 0.016 (at node 5)
	maximum = 0.024 (at node 1)
Accepted packet rate average = 0.0199063
	minimum = 0.016 (at node 2)
	maximum = 0.0235 (at node 4)
Injected flit rate average = 0.0202188
	minimum = 0.016 (at node 5)
	maximum = 0.024 (at node 1)
Accepted flit rate average= 0.0199063
	minimum = 0.016 (at node 2)
	maximum = 0.0235 (at node 4)
Injected packet length average = 1
Accepted packet length average = 1
Total in-flight flits = 10 (0 measured)
latency change    = 0.021355
throughput change = 0.0298273
Class 0:
Packet latency average = 19.7492
	minimum = 7
	maximum = 38
Network latency average = 19.7492
	minimum = 7
	maximum = 38
Slowest packet = 24953
Flit latency average = 19.7492
	minimum = 7
	maximum = 38
Slowest flit = 24953
Fragmentation average = 0
	minimum = 0
	maximum = 0
Injected packet rate average = 0.0193125
	minimum = 0.01 (at node 15)
	maximum = 0.026 (at node 1)
Accepted packet rate average = 0.0196875
	minimum = 0.01 (at node 15)
	maximum = 0.027 (at node 4)
Injected flit rate average = 0.0193125
	minimum = 0.01 (at node 15)
	maximum = 0.026 (at node 1)
Accepted flit rate average= 0.0196875
	minimum = 0.01 (at node 15)
	maximum = 0.027 (at node 4)
Injected packet length average = 1
Accepted packet length average = 1
Total in-flight flits = 4 (0 measured)
latency change    = 0.0139301
throughput change = 0.0111111
Warmed up ...Time used is 3000 cycles
Class 0:
Packet latency average = 20.0955
	minimum = 7
	maximum = 40
Network latency average = 20.0955
	minimum = 7
	maximum = 40
Slowest packet = 25401
Flit latency average = 20.2453
	minimum = 7
	maximum = 40
Slowest flit = 25401
Fragmentation average = 0
	minimum = 0
	maximum = 0
Injected packet rate average = 0.0200625
	minimum = 0.013 (at node 6)
	maximum = 0.029 (at node 3)
Accepted packet rate average = 0.019875
	minimum = 0.013 (at node 9)
	maximum = 0.027 (at node 11)
Injected flit rate average = 0.0200625
	minimum = 0.013 (at node 6)
	maximum = 0.029 (at node 3)
Accepted flit rate average= 0.019875
	minimum = 0.013 (at node 9)
	maximum = 0.027 (at node 11)
Injected packet length average = 1
Accepted packet length average = 1
Total in-flight flits = 7 (7 measured)
latency change    = 0.0172344
throughput change = 0.00943396
Class 0:
Packet latency average = 19.8545
	minimum = 7
	maximum = 40
Network latency average = 19.8545
	minimum = 7
	maximum = 40
Slowest packet = 25401
Flit latency average = 19.9285
	minimum = 7
	maximum = 40
Slowest flit = 25401
Fragmentation average = 0
	minimum = 0
	maximum = 0
Injected packet rate average = 0.0205313
	minimum = 0.013 (at node 6)
	maximum = 0.0275 (at node 14)
Accepted packet rate average = 0.0205313
	minimum = 0.013 (at node 9)
	maximum = 0.0275 (at node 11)
Injected flit rate average = 0.0205313
	minimum = 0.013 (at node 6)
	maximum = 0.0275 (at node 14)
Accepted flit rate average= 0.0205313
	minimum = 0.013 (at node 9)
	maximum = 0.0275 (at node 11)
Injected packet length average = 1
Accepted packet length average = 1
Total in-flight flits = 4 (4 measured)
latency change    = 0.0121395
throughput change = 0.0319635
Class 0:
Packet latency average = 19.7939
	minimum = 7
	maximum = 40
Network latency average = 19.7939
	minimum = 7
	maximum = 40
Slowest packet = 25401
Flit latency average = 19.8448
	minimum = 7
	maximum = 40
Slowest flit = 25401
Fragmentation average = 0
	minimum = 0
	maximum = 0
Injected packet rate average = 0.0200625
	minimum = 0.0143333 (at node 6)
	maximum = 0.026 (at node 14)
Accepted packet rate average = 0.02
	minimum = 0.014 (at node 9)
	maximum = 0.026 (at node 11)
Injected flit rate average = 0.0200625
	minimum = 0.0143333 (at node 6)
	maximum = 0.026 (at node 14)
Accepted flit rate average= 0.02
	minimum = 0.014 (at node 9)
	maximum = 0.026 (at node 11)
Injected packet length average = 1
Accepted packet length average = 1
Total in-flight flits = 7 (7 measured)
latency change    = 0.00306076
throughput change = 0.0265625
Draining all recorded packets ...
Draining remaining packets ...
Time taken is 6042 cycles
Class 0:
Packet latency average = 18.3201
	minimum = 7
	maximum = 38
Network latency average = 18.3201
	minimum = 7
	maximum = 38
Slowest packet = 26310
Flit latency average = 18.3201
	minimum = 7
	maximum = 38
Slowest flit = 26310
Fragmentation average = 0
	minimum = 0
	maximum = 0
Injected packet rate average = 0.0210625
	minimum = 0.013 (at node 3)
	maximum = 0.032 (at node 15)
Accepted packet rate average = 0.0205
	minimum = 0.013 (at node 12)
	maximum = 0.032 (at node 15)
Injected flit rate average = 0.0210625
	minimum = 0.013 (at node 3)
	maximum = 0.032 (at node 15)
Accepted flit rate average= 0.0205
	minimum = 0.013 (at node 12)
	maximum = 0.032 (at node 15)
Injected packet length average = 1
Accepted packet length average = 1
Total in-flight flits = 9 (0 measured)
latency change    = 1
throughput change = 1
Class 0:
Packet latency average = 19.0921
	minimum = 7
	maximum = 38
Network latency average = 19.0921
	minimum = 7
	maximum = 38
Slowest packet = 26310
Flit latency average = 19.0921
	minimum = 7
	maximum = 38
Slowest flit = 26310
Fragmentation average = 0
	minimum = 0
	maximum = 0
Injected packet rate average = 0.0194687
	minimum = 0.0125 (at node 0)
	maximum = 0.0245 (at node 5)
Accepted packet rate average = 0.0193437
	minimum = 0.0125 (at node 0)
	maximum = 0.0245 (at node 5)
Injected flit rate average = 0.0194687
	minimum = 0.0125 (at node 0)
	maximum = 0.0245 (at node 5)
Accepted flit rate average= 0.0193437
	minimum = 0.0125 (at node 0)
	maximum = 0.0245 (at node 5)
Injected packet length average = 1
Accepted packet length average = 1
Total in-flight flits = 4 (0 measured)
latency change    = 0.0404336
throughput change = 0.0597738
Class 0:
Packet latency average = 19.3636
	minimum = 7
	maximum = 38
Network latency average = 19.3636
	minimum = 7
	maximum = 38
Slowest packet = 26883
Flit latency average = 19.3636
	minimum = 7
	maximum = 38
Slowest flit = 26883
Fragmentation average = 0
	minimum = 0
	maximum = 0
Injected packet rate average = 0.0193125
	minimum = 0.009 (at node 9)
	maximum = 0.028 (at node 2)
Accepted packet rate average = 0.01925
	minimum = 0.009 (at node 6)
	maximum = 0.028 (at node 2)
Injected flit rate average = 0.0193125
	minimum = 0.009 (at node 9)
	maximum = 0.028 (at node 2)
Accepted flit rate average= 0.01925
	minimum = 0.009 (at node 6)
	maximum = 0.028 (at node 2)
Injected packet length average = 1
Accepted packet length average = 1
Total in-flight flits = 5 (0 measured)
latency change    = 0.0140238
throughput change = 0.00487013
Warmed up ...Time used is 3000 cycles
Class 0:
Packet latency average = 19.2406
	minimum = 7
	maximum = 37
Network latency average = 19.2406
	minimum = 7
	maximum = 37
Slowest packet = 27180
Flit latency average = 19.38
	minimum = 7
	maximum = 37
Slowest flit = 27167
Fragmentation average = 0
	minimum = 0
	maximum = 0
Injected packet rate average = 0.022
	minimum = 0.015 (at node 6)
	maximum = 0.033 (at node 9)
Accepted packet rate average = 0.021875
	minimum = 0.015 (at node 9)
	maximum = 0.033 (at node 6)
Injected flit rate average = 0.022
	minimum = 0.015 (at node 6)
	maximum = 0.033 (at node 9)
Accepted flit rate average= 0.021875
	minimum = 0.015 (at node 9)
	maximum = 0.033 (at node 6)
Injected packet length average = 1
Accepted packet length average = 1
Total in-flight flits = 7 (7 measured)
latency change    = 0.00639568
throughput change = 0.12
Class 0:
Packet latency average = 19.4228
	minimum = 7
	maximum = 38
Network latency average = 19.4228
	minimum = 7
	maximum = 38
Slowest packet = 27709
Flit latency average = 19.494
	minimum = 7
	maximum = 38
Slowest flit = 27709
Fragmentation average = 0
	minimum = 0
	maximum = 0
Injected packet rate average = 0.0209688
	minimum = 0.0165 (at node 6)
	maximum = 0.0275 (at node 1)
Accepted packet rate average = 0.021
	minimum = 0.016 (at node 9)
	maximum = 0.0275 (at node 4)
Injected flit rate average = 0.0209688
	minimum = 0.0165 (at node 6)
	maximum = 0.0275 (at node 1)
Accepted flit rate average= 0.021
	minimum = 0.016 (at node 9)
	maximum = 0.0275 (at node 4)
Injected packet length average = 1
Accepted packet length average = 1
Total in-flight flits = 4 (4 measured)
latency change    = 0.00938119
throughput change = 0.0416667
Class 0:
Packet latency average = 19.6233
	minimum = 7
	maximum = 38
Network latency average = 19.6233
	minimum = 7
	maximum = 38
Slowest packet = 27709
Flit latency average = 19.6693
	minimum = 7
	maximum = 38
Slowest flit = 27709
Fragmentation average = 0
	minimum = 0
	maximum = 0
Injected packet rate average = 0.0212708
	minimum = 0.0153333 (at node 6)
	maximum = 0.0266667 (at node 1)
Accepted packet rate average = 0.0212292
	minimum = 0.0153333 (at node 9)
	maximum = 0.0263333 (at node 4)
Injected flit rate average = 0.0212708
	minimum = 0.0153333 (at node 6)
	maximum = 0.0266667 (at node 1)
Accepted flit rate average= 0.0212292
	minimum = 0.0153333 (at node 9)
	maximum = 0.0263333 (at node 4)
Injected packet length average = 1
Accepted packet length average = 1
Total in-flight flits = 7 (7 measured)
latency change    = 0.0102167
throughput change = 0.0107949
Class 0:
Packet latency average = 19.8543
	minimum = 7
	maximum = 38
Network latency average = 19.8543
	minimum = 7
	maximum = 38
Slowest packet = 27709
Flit latency average = 19.8892
	minimum = 7
	maximum = 38
Slowest flit = 27709
Fragmentation average = 0
	minimum = 0
	maximum = 0
Injected packet rate average = 0.0204375
	minimum = 0.0145 (at node 6)
	maximum = 0.02475 (at node 1)
Accepted packet rate average = 0.0204531
	minimum = 0.0145 (at node 9)
	maximum = 0.02475 (at node 4)
Injected flit rate average = 0.0204375
	minimum = 0.0145 (at node 6)
	maximum = 0.02475 (at node 1)
Accepted flit rate average= 0.0204531
	minimum = 0.0145 (at node 9)
	maximum = 0.02475 (at node 4)
Injected packet length average = 1
Accepted packet length average = 1
Total in-flight flits = 4 (4 measured)
latency change    = 0.0116358
throughput change = 0.0379424
Draining all recorded packets ...
Draining remaining packets ...
Time taken is 7029 cycles
Class 0:
Packet latency average = 19.6058
	minimum = 7
	maximum = 38
Network latency average = 19.6058
	minimum = 7
	maximum = 38
Slowest packet = 28779
Flit latency average = 19.6058
	minimum = 7
	maximum = 38
Slowest flit = 28779
Fragmentation average = 0
	minimum = 0
	maximum = 0
Injected packet rate average = 0.0198125
	minimum = 0.016 (at node 3)
	maximum = 0.03 (at node 13)
Accepted packet rate average = 0.0195
	minimum = 0.016 (at node 9)
	maximum = 0.029 (at node 7)
Injected flit rate average = 0.0198125
	minimum = 0.016 (at node 3)
	maximum = 0.03 (at node 13)
Accepted flit rate average= 0.0195
	minimum = 0.016 (at node 9)
	maximum = 0.029 (at node 7)
Injected packet length average = 1
Accepted packet length average = 1
Total in-flight flits = 5 (0 measured)
latency change    = 1
throughput change = 1
Class 0:
Packet latency average = 19.5615
	minimum = 7
	maximum = 41
Network latency average = 19.5615
	minimum = 7
	maximum = 41
Slowest packet = 29086
Flit latency average = 19.5615
	minimum = 7
	maximum = 41
Slowest flit = 29086
Fragmentation average = 0
	minimum = 0
	maximum = 0
Injected packet rate average = 0.0205
	minimum = 0.0175 (at node 14)
	maximum = 0.026 (at node 13)
Accepted packet rate average = 0.0203125
	minimum = 0.0175 (at node 11)
	maximum = 0.026 (at node 7)
Injected flit rate average = 0.0205
	minimum = 0.0175 (at node 14)
	maximum = 0.026 (at node 13)
Accepted flit rate average= 0.0203125
	minimum = 0.0175 (at node 11)
	maximum = 0.026 (at node 7)
Injected packet length average = 1
Accepted packet length average = 1
Total in-flight flits = 6 (0 measured)
latency change    = 0.00226111
throughput change = 0.04
Class 0:
Packet latency average = 20.1969
	minimum = 7
	maximum = 38
Network latency average = 20.1969
	minimum = 7
	maximum = 38
Slowest packet = 29212
Flit latency average = 20.1969
	minimum = 7
	maximum = 38
Slowest flit = 29212
Fragmentation average = 0
	minimum = 0
	maximum = 0
Injected packet rate average = 0.02
	minimum = 0.006 (at node 10)
	maximum = 0.027 (at node 4)
Accepted packet rate average = 0.02
	minimum = 0.007 (at node 10)
	maximum = 0.029 (at node 1)
Injected flit rate average = 0.02
	minimum = 0.006 (at node 10)
	maximum = 0.027 (at node 4)
Accepted flit rate average= 0.02
	minimum = 0.007 (at node 10)
	maximum = 0.029 (at node 1)
Injected packet length average = 1
Accepted packet length average = 1
Total in-flight flits = 6 (0 measured)
latency change    = 0.0314572
throughput change = 0.015625
Warmed up ...Time used is 3000 cycles
Class 0:
Packet latency average = 19.5974
	minimum = 7
	maximum = 37
[...]
	minimum = 0.012 (at node 0)
	maximum = 0.0296667 (at node 8)
Accepted packet rate average = 0.0210417
	minimum = 0.012 (at node 0)
	maximum = 0.029 (at node 2)
Injected flit rate average = 0.0212083
	minimum = 0.012 (at node 0)
	maximum = 0.0296667 (at node 8)
Accepted flit rate average= 0.0210417
	minimum = 0.012 (at node 0)
	maximum = 0.029 (at node 2)
Injected packet length average = 1
Accepted packet length average = 1
Total in-flight flits = 12 (12 measured)
latency change    = 0.0187059
throughput change = 0.0143564
Class 0:
Packet latency average = 19.5558
	minimum = 7
	maximum = 38
Network latency average = 19.5558
	minimum = 7
	maximum = 38
Slowest packet = 215517
Flit latency average = 19.5855
	minimum = 7
	maximum = 38
Slowest flit = 215517
Fragmentation average = 0
	minimum = 0
	maximum = 0
Injected packet rate average = 0.0210469
	minimum = 0.01475 (at node 0)
	maximum = 0.02575 (at node 8)
Accepted packet rate average = 0.0209219
	minimum = 0.01475 (at node 0)
	maximum = 0.02575 (at node 2)
Injected flit rate average = 0.0210469
	minimum = 0.01475 (at node 0)
	maximum = 0.02575 (at node 8)
Accepted flit rate average= 0.0209219
	minimum = 0.01475 (at node 0)
	maximum = 0.02575 (at node 2)
Injected packet length average = 1
Accepted packet length average = 1
Total in-flight flits = 12 (12 measured)
latency change    = 0.0048218
throughput change = 0.00572567
Draining all recorded packets ...
Draining remaining packets ...
Time taken is 7077 cycles
Class 0:
Packet latency average = 19.4699
	minimum = 7
	maximum = 38
Network latency average = 19.4699
	minimum = 7
	maximum = 38
Slowest packet = 217029
Flit latency average = 19.4699
	minimum = 7
	maximum = 38
Slowest flit = 217029
Fragmentation average = 0
	minimum = 0
	maximum = 0
Injected packet rate average = 0.0211875
	minimum = 0.013 (at node 1)
	maximum = 0.035 (at node 3)
Accepted packet rate average = 0.02075
	minimum = 0.013 (at node 4)
	maximum = 0.034 (at node 12)
Injected flit rate average = 0.0211875
	minimum = 0.013 (at node 1)
	maximum = 0.035 (at node 3)
Accepted flit rate average= 0.02075
	minimum = 0.013 (at node 4)
	maximum = 0.034 (at node 12)
Injected packet length average = 1
Accepted packet length average = 1
Total in-flight flits = 7 (0 measured)
latency change    = 1
throughput change = 1
Class 0:
Packet latency average = 19.7307
	minimum = 7
	maximum = 38
Network latency average = 19.7307
	minimum = 7
	maximum = 38
Slowest packet = 217029
Flit latency average = 19.7307
	minimum = 7
	maximum = 38
Slowest flit = 217029
Fragmentation average = 0
	minimum = 0
	maximum = 0
Injected packet rate average = 0.0209375
	minimum = 0.0155 (at node 2)
	maximum = 0.028 (at node 3)
Accepted packet rate average = 0.0206563
	minimum = 0.0155 (at node 8)
	maximum = 0.027 (at node 12)
Injected flit rate average = 0.0209375
	minimum = 0.0155 (at node 2)
	maximum = 0.028 (at node 3)
Accepted flit rate average= 0.0206563
	minimum = 0.0155 (at node 8)
	maximum = 0.027 (at node 12)
Injected packet length average = 1
Accepted packet length average = 1
Total in-flight flits = 9 (0 measured)
latency change    = 0.0132196
throughput change = 0.00453858
Class 0:
Packet latency average = 19.6991
	minimum = 7
	maximum = 38
Network latency average = 19.6991
	minimum = 7
	maximum = 38
Slowest packet = 217721
Flit latency average = 19.6991
	minimum = 7
	maximum = 38
Slowest flit = 217721
Fragmentation average = 0
	minimum = 0
	maximum = 0
Injected packet rate average = 0.0218125
	minimum = 0.017 (at node 2)
	maximum = 0.027 (at node 8)
Accepted packet rate average = 0.0218125
	minimum = 0.015 (at node 8)
	maximum = 0.027 (at node 2)
Injected flit rate average = 0.0218125
	minimum = 0.017 (at node 2)
	maximum = 0.027 (at node 8)
Accepted flit rate average= 0.0218125
	minimum = 0.015 (at node 8)
	maximum = 0.027 (at node 2)
Injected packet length average = 1
Accepted packet length average = 1
Total in-flight flits = 9 (0 measured)
latency change    = 0.00160264
throughput change = 0.0530086
Warmed up ...Time used is 3000 cycles
Class 0:
Packet latency average = 19.7437
	minimum = 7
	maximum = 38
Network latency average = 19.7437
	minimum = 7
	maximum = 38
Slowest packet = 218108
Flit latency average = 19.9785
	minimum = 7
	maximum = 38
Slowest flit = 217822
Fragmentation average = 0
	minimum = 0
	maximum = 0
Injected packet rate average = 0.020125
	minimum = 0.016 (at node 15)
	maximum = 0.024 (at node 3)
Accepted packet rate average = 0.0203125
	minimum = 0.016 (at node 6)
	maximum = 0.024 (at node 4)
Injected flit rate average = 0.020125
	minimum = 0.016 (at node 15)
	maximum = 0.024 (at node 3)
Accepted flit rate average= 0.0203125
	minimum = 0.016 (at node 6)
	maximum = 0.024 (at node 4)
Injected packet length average = 1
Accepted packet length average = 1
Total in-flight flits = 6 (6 measured)
latency change    = 0.00225543
throughput change = 0.0738462
Class 0:
Packet latency average = 19.841
	minimum = 7
	maximum = 39
Network latency average = 19.841
	minimum = 7
	maximum = 39
Slowest packet = 218439
Flit latency average = 19.9559
	minimum = 7
	maximum = 39
Slowest flit = 218439
Fragmentation average = 0
	minimum = 0
	maximum = 0
Injected packet rate average = 0.0203438
	minimum = 0.017 (at node 4)
	maximum = 0.0245 (at node 14)
Accepted packet rate average = 0.0205313
	minimum = 0.0165 (at node 1)
	maximum = 0.0245 (at node 11)
Injected flit rate average = 0.0203438
	minimum = 0.017 (at node 4)
	maximum = 0.0245 (at node 14)
Accepted flit rate average= 0.0205313
	minimum = 0.0165 (at node 1)
	maximum = 0.0245 (at node 11)
Injected packet length average = 1
Accepted packet length average = 1
Total in-flight flits = 3 (3 measured)
latency change    = 0.00490793
throughput change = 0.0106545
Class 0:
Packet latency average = 19.8664
	minimum = 7
	maximum = 39
Network latency average = 19.8664
	minimum = 7
	maximum = 39
Slowest packet = 218439
Flit latency average = 19.943
	minimum = 7
	maximum = 39
Slowest flit = 218439
Fragmentation average = 0
	minimum = 0
	maximum = 0
Injected packet rate average = 0.0204167
	minimum = 0.0176667 (at node 9)
	maximum = 0.0233333 (at node 3)
Accepted packet rate average = 0.0204583
	minimum = 0.0176667 (at node 1)
	maximum = 0.0236667 (at node 12)
Injected flit rate average = 0.0204167
	minimum = 0.0176667 (at node 9)
	maximum = 0.0233333 (at node 3)
Accepted flit rate average= 0.0204583
	minimum = 0.0176667 (at node 1)
	maximum = 0.0236667 (at node 12)
Injected packet length average = 1
Accepted packet length average = 1
Total in-flight flits = 7 (7 measured)
latency change    = 0.00127568
throughput change = 0.00356415
Class 0:
Packet latency average = 19.6505
	minimum = 7
	maximum = 39
Network latency average = 19.6505
	minimum = 7
	maximum = 39
Slowest packet = 218439
Flit latency average = 19.7085
	minimum = 7
	maximum = 39
Slowest flit = 218439
Fragmentation average = 0
	minimum = 0
	maximum = 0
Injected packet rate average = 0.0207344
	minimum = 0.0175 (at node 4)
	maximum = 0.02375 (at node 3)
Accepted packet rate average = 0.0207969
	minimum = 0.0175 (at node 1)
	maximum = 0.02375 (at node 12)
Injected flit rate average = 0.0207344
	minimum = 0.0175 (at node 4)
	maximum = 0.02375 (at node 3)
Accepted flit rate average= 0.0207969
	minimum = 0.0175 (at node 1)
	maximum = 0.02375 (at node 12)
Injected packet length average = 1
Accepted packet length average = 1
Total in-flight flits = 5 (5 measured)
latency change    = 0.0109851
throughput change = 0.0162785
Draining all recorded packets ...
Draining remaining packets ...
Time taken is 7021 cycles
Class 0:
Packet latency average = 18.9515
	minimum = 7
	maximum = 37
Network latency average = 18.9515
	minimum = 7
	maximum = 37
Slowest packet = 219163
Flit latency average = 18.9515
	minimum = 7
	maximum = 37
Slowest flit = 219163
Fragmentation average = 0
	minimum = 0
	maximum = 0
Injected packet rate average = 0.0196875
	minimum = 0.009 (at node 12)
	maximum = 0.03 (at node 7)
Accepted packet rate average = 0.0193125
	minimum = 0.009 (at node 3)
	maximum = 0.03 (at node 13)
Injected flit rate average = 0.0196875
	minimum = 0.009 (at node 12)
	maximum = 0.03 (at node 7)
Accepted flit rate average= 0.0193125
	minimum = 0.009 (at node 3)
	maximum = 0.03 (at node 13)
Injected packet length average = 1
Accepted packet length average = 1
Total in-flight flits = 6 (0 measured)
latency change    = 1
throughput change = 1
Class 0:
Packet latency average = 19.344
	minimum = 7
	maximum = 37
Network latency average = 19.344
	minimum = 7
	maximum = 37
Slowest packet = 219163
Flit latency average = 19.344
	minimum = 7
	maximum = 37
Slowest flit = 219163
Fragmentation average = 0
	minimum = 0
	maximum = 0
Injected packet rate average = 0.0197188
	minimum = 0.0135 (at node 6)
	maximum = 0.028 (at node 11)
Accepted packet rate average = 0.0195312
	minimum = 0.0135 (at node 9)
	maximum = 0.028 (at node 14)
Injected flit rate average = 0.0197188
	minimum = 0.0135 (at node 6)
	maximum = 0.028 (at node 11)
Accepted flit rate average= 0.0195312
	minimum = 0.0135 (at node 9)
	maximum = 0.028 (at node 14)
Injected packet length average = 1
Accepted packet length average = 1
Total in-flight flits = 6 (0 measured)
latency change    = 0.0202928
throughput change = 0.0112
Class 0:
Packet latency average = 18.907
	minimum = 7
	maximum = 37
Network latency average = 18.907
	minimum = 7
	maximum = 37
Slowest packet = 219802
Flit latency average = 18.907
	minimum = 7
	maximum = 37
Slowest flit = 219802
Fragmentation average = 0
	minimum = 0
	maximum = 0
Injected packet rate average = 0.0190625
	minimum = 0.011 (at node 3)
	maximum = 0.025 (at node 9)
Accepted packet rate average = 0.0188125
	minimum = 0.01 (at node 12)
	maximum = 0.025 (at node 6)
Injected flit rate average = 0.0190625
	minimum = 0.011 (at node 3)
	maximum = 0.025 (at node 9)
Accepted flit rate average= 0.0188125
	minimum = 0.01 (at node 12)
	maximum = 0.025 (at node 6)
Injected packet length average = 1
Accepted packet length average = 1
Total in-flight flits = 10 (0 measured)
latency change    = 0.0231144
throughput change = 0.038206
Warmed up ...Time used is 3000 cycles
Class 0:
Packet latency average = 19.7663
	minimum = 7
	maximum = 38
Network latency average = 19.7663
	minimum = 7
	maximum = 38
Slowest packet = 220189
Flit latency average = 20.0086
	minimum = 7
	maximum = 38
Slowest flit = 220094
Fragmentation average = 0
	minimum = 0
	maximum = 0
Injected packet rate average = 0.02125
	minimum = 0.015 (at node 11)
	maximum = 0.027 (at node 12)
Accepted packet rate average = 0.02175
	minimum = 0.015 (at node 14)
	maximum = 0.031 (at node 3)
Injected flit rate average = 0.02125
	minimum = 0.015 (at node 11)
	maximum = 0.027 (at node 12)
Accepted flit rate average= 0.02175
	minimum = 0.015 (at node 14)
	maximum = 0.031 (at node 3)
Injected packet length average = 1
Accepted packet length average = 1
Total in-flight flits = 2 (2 measured)
latency change    = 0.0434728
throughput change = 0.135057
Class 0:
Packet latency average = 19.1737
	minimum = 7
	maximum = 38
Network latency average = 19.1737
	minimum = 7
	maximum = 38
Slowest packet = 220189
Flit latency average = 19.308
	minimum = 7
	maximum = 38
Slowest flit = 220094
Fragmentation average = 0
	minimum = 0
	maximum = 0
Injected packet rate average = 0.0208438
	minimum = 0.0155 (at node 3)
	maximum = 0.0255 (at node 4)
Accepted packet rate average = 0.021
	minimum = 0.0155 (at node 12)
	maximum = 0.0255 (at node 1)
Injected flit rate average = 0.0208438
	minimum = 0.0155 (at node 3)
	maximum = 0.0255 (at node 4)
Accepted flit rate average= 0.021
	minimum = 0.0155 (at node 12)
	maximum = 0.0255 (at node 1)
Injected packet length average = 1
Accepted packet length average = 1
Total in-flight flits = 5 (5 measured)
latency change    = 0.0309046
throughput change = 0.0357143
Class 0:
Packet latency average = 19.287
	minimum = 7
	maximum = 38
Network latency average = 19.287
	minimum = 7
	maximum = 38
Slowest packet = 220189
Flit latency average = 19.3778
	minimum = 7
	maximum = 38
Slowest flit = 220094
Fragmentation average = 0
	minimum = 0
	maximum = 0
Injected packet rate average = 0.020375
	minimum = 0.0163333 (at node 15)
	maximum = 0.0233333 (at node 10)
Accepted packet rate average = 0.0204583
	minimum = 0.017 (at node 15)
	maximum = 0.0233333 (at node 10)
Injected flit rate average = 0.020375
	minimum = 0.0163333 (at node 15)
	maximum = 0.0233333 (at node 10)
Accepted flit rate average= 0.0204583
	minimum = 0.017 (at node 15)
	maximum = 0.0233333 (at node 10)
Injected packet length average = 1
Accepted packet length average = 1
Total in-flight flits = 6 (6 measured)
latency change    = 0.0058755
throughput change = 0.0264766
Class 0:
Packet latency average = 19.5057
	minimum = 7
	maximum = 38
Network latency average = 19.5057
	minimum = 7
	maximum = 38
Slowest packet = 220189
Flit latency average = 19.5718
	minimum = 7
	maximum = 38
Slowest flit = 220094
Fragmentation average = 0
	minimum = 0
	maximum = 0
Injected packet rate average = 0.0204844
	minimum = 0.01675 (at node 3)
	maximum = 0.0235 (at node 7)
Accepted packet rate average = 0.0205781
	minimum = 0.017 (at node 12)
	maximum = 0.0235 (at node 3)
Injected flit rate average = 0.0204844
	minimum = 0.01675 (at node 3)
	maximum = 0.0235 (at node 7)
Accepted flit rate average= 0.0205781
	minimum = 0.017 (at node 12)
	maximum = 0.0235 (at node 3)
Injected packet length average = 1
Accepted packet length average = 1
Total in-flight flits = 4 (4 measured)
latency change    = 0.0112122
throughput change = 0.00582131
Draining all recorded packets ...
Draining remaining packets ...
Time taken is 7044 cycles
Class 0:
Packet latency average = 18.7341
	minimum = 7
	maximum = 37
Network latency average = 18.7341
	minimum = 7
	maximum = 37
Slowest packet = 221444
Flit latency average = 18.7341
	minimum = 7
	maximum = 37
Slowest flit = 221444
Fragmentation average = 0
	minimum = 0
	maximum = 0
Injected packet rate average = 0.0168125
	minimum = 0.011 (at node 3)
	maximum = 0.022 (at node 6)
Accepted packet rate average = 0.0166875
	minimum = 0.011 (at node 12)
	maximum = 0.022 (at node 9)
Injected flit rate average = 0.0168125
	minimum = 0.011 (at node 3)
	maximum = 0.022 (at node 6)
Accepted flit rate average= 0.0166875
	minimum = 0.011 (at node 12)
	maximum = 0.022 (at node 9)
Injected packet length average = 1
Accepted packet length average = 1
Total in-flight flits = 2 (0 measured)
latency change    = 1
throughput change = 1
Class 0:
Packet latency average = 18.9379
	minimum = 7
	maximum = 37
Network latency average = 18.9379
	minimum = 7
	maximum = 37
Slowest packet = 221444
Flit latency average = 18.9379
	minimum = 7
	maximum = 37
Slowest flit = 221444
Fragmentation average = 0
	minimum = 0
	maximum = 0
Injected packet rate average = 0.0183125
	minimum = 0.013 (at node 12)
	maximum = 0.0235 (at node 6)
Accepted packet rate average = 0.018125
	minimum = 0.013 (at node 3)
	maximum = 0.0235 (at node 9)
Injected flit rate average = 0.0183125
	minimum = 0.013 (at node 12)
	maximum = 0.0235 (at node 6)
Accepted flit rate average= 0.018125
	minimum = 0.013 (at node 3)
	maximum = 0.0235 (at node 9)
Injected packet length average = 1
Accepted packet length average = 1
Total in-flight flits = 6 (0 measured)
latency change    = 0.010764
throughput change = 0.0793103
Class 0:
Packet latency average = 19.1078
	minimum = 7
	maximum = 37
Network latency average = 19.1078
	minimum = 7
	maximum = 37
Slowest packet = 222026
Flit latency average = 19.1078
	minimum = 7
	maximum = 37
Slowest flit = 222026
Fragmentation average = 0
	minimum = 0
	maximum = 0
Injected packet rate average = 0.020625
	minimum = 0.011 (at node 2)
	maximum = 0.03 (at node 4)
Accepted packet rate average = 0.020875
	minimum = 0.013 (at node 8)
	maximum = 0.029 (at node 1)
Injected flit rate average = 0.020625
	minimum = 0.011 (at node 2)
	maximum = 0.03 (at node 4)
Accepted flit rate average= 0.020875
	minimum = 0.013 (at node 8)
	maximum = 0.029 (at node 1)
Injected packet length average = 1
Accepted packet length average = 1
Total in-flight flits = 2 (0 measured)
latency change    = 0.00888923
throughput change = 0.131737
Warmed up ...Time used is 3000 cycles
Class 0:
Packet latency average = 19.6969
	minimum = 7
	maximum = 38
Network latency average = 19.6969
	minimum = 7
	maximum = 38
Slowest packet = 222341
Flit latency average = 19.6801
	minimum = 7
	maximum = 38
Slowest flit = 222341
Fragmentation average = 0
	minimum = 0
	maximum = 0
Injected packet rate average = 0.0201875
	minimum = 0.012 (at node 14)
	maximum = 0.027 (at node 13)
Accepted packet rate average = 0.020125
	minimum = 0.012 (at node 11)
	maximum = 0.027 (at node 7)
Injected flit rate average = 0.0201875
	minimum = 0.012 (at node 14)
	maximum = 0.027 (at node 13)
Accepted flit rate average= 0.020125
	minimum = 0.012 (at node 11)
	maximum = 0.027 (at node 7)
Injected packet length average = 1
Accepted packet length average = 1
Total in-flight flits = 3 (3 measured)
latency change    = 0.0299078
throughput change = 0.0372671
Class 0:
Packet latency average = 19.5326
	minimum = 7
	maximum = 44
Network latency average = 19.5326
	minimum = 7
	maximum = 44
Slowest packet = 222770
Flit latency average = 19.5246
	minimum = 7
	maximum = 44
Slowest flit = 222770
Fragmentation average = 0
	minimum = 0
	maximum = 0
Injected packet rate average = 0.0198125
	minimum = 0.0135 (at node 14)
	maximum = 0.0265 (at node 2)
Accepted packet rate average = 0.0197188
	minimum = 0.013 (at node 11)
	maximum = 0.0265 (at node 8)
Injected flit rate average = 0.0198125
	minimum = 0.0135 (at node 14)
	maximum = 0.0265 (at node 2)
Accepted flit rate average= 0.0197188
	minimum = 0.013 (at node 11)
	maximum = 0.0265 (at node 8)
Injected packet length average = 1
Accepted packet length average = 1
Total in-flight flits = 5 (5 measured)
latency change    = 0.00841074
throughput change = 0.0206022
Class 0:
Packet latency average = 19.6071
	minimum = 7
	maximum = 44
Network latency average = 19.6071
	minimum = 7
	maximum = 44
Slowest packet = 222770
Flit latency average = 19.6015
	minimum = 7
	maximum = 44
Slowest flit = 222770
Fragmentation average = 0
	minimum = 0
	maximum = 0
Injected packet rate average = 0.0195625
	minimum = 0.016 (at node 14)
	maximum = 0.025 (at node 2)
Accepted packet rate average = 0.0195
	minimum = 0.016 (at node 11)
	maximum = 0.025 (at node 8)
Injected flit rate average = 0.0195625
	minimum = 0.016 (at node 14)
	maximum = 0.025 (at node 2)
Accepted flit rate average= 0.0195
	minimum = 0.016 (at node 11)
	maximum = 0.025 (at node 8)
Injected packet length average = 1
Accepted packet length average = 1
Total in-flight flits = 5 (5 measured)
latency change    = 0.00379837
throughput change = 0.0112179
Draining all recorded packets ...
Draining remaining packets ...
Time taken is 6043 cycles
====== Overall Traffic Statistics ======
====== Traffic class 0 ======
Packet latency average = 19.5121 (100 samples)
	minimum = 7 (100 samples)
	maximum = 39.09 (100 samples)
Network latency average = 19.5121 (100 samples)
	minimum = 7 (100 samples)
	maximum = 39.09 (100 samples)
Flit latency average = 19.5391 (100 samples)
	minimum = 7 (100 samples)
	maximum = 39.09 (100 samples)
Fragmentation average = 0 (100 samples)
	minimum = 0 (100 samples)
	maximum = 0 (100 samples)
Injected packet rate average = 0.0200615 (100 samples)
	minimum = 0.0162123 (100 samples)
	maximum = 0.0242987 (100 samples)
Accepted packet rate average = 0.020054 (100 samples)
	minimum = 0.0162008 (100 samples)
	maximum = 0.024286 (100 samples)
Injected flit rate average = 0.0200615 (100 samples)
	minimum = 0.0162123 (100 samples)
	maximum = 0.0242987 (100 samples)
Accepted flit rate average = 0.020054 (100 samples)
	minimum = 0.0162008 (100 samples)
	maximum = 0.024286 (100 samples)
Injected packet size average = 1 (100 samples)
Accepted packet size average = 1 (100 samples)
Hops average = 3.49869 (100 samples)
Total run time 5.19786
