BEGIN Configuration File: /tmp/tmp83edcfev.cfg
topology = mesh;
k = 4;
n = 2;
routing_function = planar_adapt;
num_vcs = 4;
vc_buf_size = 4;
wait_for_tail_credit = 1;
vc_allocator = islip;
sw_allocator = islip;
alloc_iters = 1;
credit_delay = 2;
routing_delay = 1;
vc_alloc_delay = 1;
sw_alloc_delay = 1;
input_speedup = 2;
output_speedup = 1;
internal_speedup = 1.0;
traffic = uniform;
packet_size = 1;
sim_type = latency;
injection_rate = 0.1;
warmup_periods = 3;
sample_period = 1000;
sim_count = 100;
seed = 4;

END Configuration File: /tmp/tmp83edcfev.cfg
Class 0:
Packet latency average = 22.0946
	minimum = 7
	maximum = 64
Network latency average = 22.0737
	minimum = 7
	maximum = 64
Slowest packet = 67
Flit latency average = 22.0737
	minimum = 7
	maximum = 64
Slowest flit = 67
Fragmentation average = 0
	minimum = 0
	maximum = 0
Injected packet rate average = 0.100312
	minimum = 0.087 (at node 6)
	maximum = 0.113 (at node 2)
Accepted packet rate average = 0.0984375
	minimum = 0.085 (at node 2)
	maximum = 0.111 (at node 12)
Injected flit rate average = 0.100312
	minimum = 0.087 (at node 6)
	maximum = 0.113 (at node 2)
Accepted flit rate average= 0.0984375
	minimum = 0.085 (at node 2)
	maximum = 0.111 (at node 12)
Injected packet length average = 1
Accepted packet length average = 1
Total in-flight flits = 30 (0 measured)
latency change    = 1
throughput change = 1
Class 0:
Packet latency average = 22.6114
	minimum = 7
	maximum = 77
Network latency average = 22.5807
	minimum = 7
	maximum = 77
Slowest packet = 1990
Flit latency average = 22.5807
	minimum = 7
	maximum = 77
Slowest flit = 1990
Fragmentation average = 0
	minimum = 0
	maximum = 0
Injected packet rate average = 0.101781
	minimum = 0.0955 (at node 6)
	maximum = 0.1125 (at node 2)
Accepted packet rate average = 0.100687
	minimum = 0.091 (at node 9)
	maximum = 0.1105 (at node 0)
Injected flit rate average = 0.101781
	minimum = 0.0955 (at node 6)
	maximum = 0.1125 (at node 2)
Accepted flit rate average= 0.100687
	minimum = 0.091 (at node 9)
	maximum = 0.1105 (at node 0)
Injected packet length average = 1
Accepted packet length average = 1
Total in-flight flits = 35 (0 measured)
latency change    = 0.0228565
throughput change = 0.0223464
Class 0:
Packet latency average = 22.2037
	minimum = 7
	maximum = 84
Network latency average = 22.1969
	minimum = 7
	maximum = 84
Slowest packet = 3585
Flit latency average = 22.1969
	minimum = 7
	maximum = 84
Slowest flit = 3585
Fragmentation average = 0
	minimum = 0
	maximum = 0
Injected packet rate average = 0.10075
	minimum = 0.077 (at node 6)
	maximum = 0.12 (at node 10)
Accepted packet rate average = 0.100625
	minimum = 0.085 (at node 5)
	maximum = 0.119 (at node 13)
Injected flit rate average = 0.10075
	minimum = 0.077 (at node 6)
	maximum = 0.12 (at node 10)
Accepted flit rate average= 0.100625
	minimum = 0.085 (at node 5)
	maximum = 0.119 (at node 13)
Injected packet length average = 1
Accepted packet length average = 1
Total in-flight flits = 37 (0 measured)
latency change    = 0.0183615
throughput change = 0.000621118
Warmed up ...Time used is 3000 cycles
Class 0:
Packet latency average = 21.9704
	minimum = 7
	maximum = 92
Network latency average = 21.9588
	minimum = 7
	maximum = 92
Slowest packet = 6101
Flit latency average = 22.1452
	minimum = 7
	maximum = 92
Slowest flit = 6101
Fragmentation average = 0
	minimum = 0
	maximum = 0
Injected packet rate average = 0.0991875
	minimum = 0.084 (at node 12)
	maximum = 0.122 (at node 9)
Accepted packet rate average = 0.0994375
	minimum = 0.085 (at node 1)
	maximum = 0.115 (at node 13)
Injected flit rate average = 0.0991875
	minimum = 0.084 (at node 12)
	maximum = 0.122 (at node 9)
Accepted flit rate average= 0.0994375
	minimum = 0.085 (at node 1)
	maximum = 0.115 (at node 13)
Injected packet length average = 1
Accepted packet length average = 1
Total in-flight flits = 33 (33 measured)
latency change    = 0.0106201
throughput change = 0.0119422
Class 0:
Packet latency average = 21.9742
	minimum = 7
	maximum = 92
Network latency average = 21.9669
	minimum = 7
	maximum = 92
Slowest packet = 6101
Flit latency average = 22.0592
	minimum = 7
	maximum = 92
Slowest flit = 6101
Fragmentation average = 0
	minimum = 0
	maximum = 0
Injected packet rate average = 0.1
	minimum = 0.088 (at node 4)
	maximum = 0.1125 (at node 6)
Accepted packet rate average = 0.100312
	minimum = 0.0885 (at node 11)
	maximum = 0.1095 (at node 0)
Injected flit rate average = 0.1
	minimum = 0.088 (at node 4)
	maximum = 0.1125 (at node 6)
Accepted flit rate average= 0.100312
	minimum = 0.0885 (at node 11)
	maximum = 0.1095 (at node 0)
Injected packet length average = 1
Accepted packet length average = 1
Total in-flight flits = 27 (27 measured)
latency change    = 0.000171018
throughput change = 0.00872274
Class 0:
Packet latency average = 22.2183
	minimum = 7
	maximum = 93
Network latency average = 22.2084
	minimum = 7
	maximum = 93
Slowest packet = 9169
Flit latency average = 22.2683
	minimum = 7
	maximum = 93
Slowest flit = 9169
Fragmentation average = 0
	minimum = 0
	maximum = 0
Injected packet rate average = 0.0999375
	minimum = 0.0893333 (at node 2)
	maximum = 0.111 (at node 13)
Accepted packet rate average = 0.100021
	minimum = 0.0913333 (at node 8)
	maximum = 0.108333 (at node 7)
Injected flit rate average = 0.0999375
	minimum = 0.0893333 (at node 2)
	maximum = 0.111 (at node 13)
Accepted flit rate average= 0.100021
	minimum = 0.0913333 (at node 8)
	maximum = 0.108333 (at node 7)
Injected packet length average = 1
Accepted packet length average = 1
Total in-flight flits = 33 (33 measured)
latency change    = 0.0109886
throughput change = 0.00291606
Draining all recorded packets ...
Draining remaining packets ...
Time taken is 6081 cycles
Class 0:
Packet latency average = 22.644
	minimum = 7
	maximum = 63
Network latency average = 22.6142
	minimum = 7
	maximum = 63
Slowest packet = 9935
Flit latency average = 22.6142
	minimum = 7
	maximum = 63
Slowest flit = 11024
Fragmentation average = 0
	minimum = 0
	maximum = 0
Injected packet rate average = 0.0985625
	minimum = 0.083 (at node 14)
	maximum = 0.115 (at node 10)
Accepted packet rate average = 0.0965625
	minimum = 0.089 (at node 12)
	maximum = 0.107 (at node 7)
Injected flit rate average = 0.0985625
	minimum = 0.083 (at node 14)
	maximum = 0.115 (at node 10)
Accepted flit rate average= 0.0965625
	minimum = 0.089 (at node 12)
	maximum = 0.107 (at node 7)
Injected packet length average = 1
Accepted packet length average = 1
Total in-flight flits = 32 (0 measured)
latency change    = 1
throughput change = 1
Class 0:
Packet latency average = 22.6851
	minimum = 7
	maximum = 65
Network latency average = 22.6691
	minimum = 7
	maximum = 65
Slowest packet = 12358
Flit latency average = 22.6691
	minimum = 7
	maximum = 65
Slowest flit = 12358
Fragmentation average = 0
	minimum = 0
	maximum = 0
Injected packet rate average = 0.100781
	minimum = 0.089 (at node 14)
	maximum = 0.121 (at node 12)
Accepted packet rate average = 0.0993437
	minimum = 0.0905 (at node 15)
	maximum = 0.1105 (at node 8)
Injected flit rate average = 0.100781
	minimum = 0.089 (at node 14)
	maximum = 0.121 (at node 12)
Accepted flit rate average= 0.0993437
	minimum = 0.0905 (at node 15)
	maximum = 0.1105 (at node 8)
Injected packet length average = 1
Accepted packet length average = 1
Total in-flight flits = 46 (0 measured)
latency change    = 0.00181212
throughput change = 0.0279962
Class 0:
Packet latency average = 22.5087
	minimum = 7
	maximum = 78
Network latency average = 22.5087
	minimum = 7
	maximum = 78
Slowest packet = 13771
Flit latency average = 22.5087
	minimum = 7
	maximum = 78
Slowest flit = 13771
Fragmentation average = 0
	minimum = 0
	maximum = 0
Injected packet rate average = 0.0999375
	minimum = 0.09 (at node 1)
	maximum = 0.113 (at node 13)
Accepted packet rate average = 0.100875
	minimum = 0.085 (at node 13)
	maximum = 0.119 (at node 15)
Injected flit rate average = 0.0999375
	minimum = 0.09 (at node 1)
	maximum = 0.113 (at node 13)
Accepted flit rate average= 0.100875
	minimum = 0.085 (at node 13)
	maximum = 0.119 (at node 15)
Injected packet length average = 1
Accepted packet length average = 1
Total in-flight flits = 31 (0 measured)
latency change    = 0.00783907
throughput change = 0.0151797
Warmed up ...Time used is 3000 cycles
Class 0:
Packet latency average = 22.3726
	minimum = 7
	maximum = 63
Network latency average = 22.3694
	minimum = 7
	maximum = 63
Slowest packet = 14771
Flit latency average = 22.4872
	minimum = 7
	maximum = 63
Slowest flit = 14771
Fragmentation average = 0
	minimum = 0
	maximum = 0
Injected packet rate average = 0.0976875
	minimum = 0.083 (at node 0)
	maximum = 0.117 (at node 12)
Accepted packet rate average = 0.097875
	minimum = 0.082 (at node 1)
	maximum = 0.111 (at node 0)
Injected flit rate average = 0.0976875
	minimum = 0.083 (at node 0)
	maximum = 0.117 (at node 12)
Accepted flit rate average= 0.097875
	minimum = 0.082 (at node 1)
	maximum = 0.111 (at node 0)
Injected packet length average = 1
Accepted packet length average = 1
Total in-flight flits = 28 (28 measured)
latency change    = 0.00608045
throughput change = 0.0306513
Class 0:
Packet latency average = 22.394
	minimum = 7
	maximum = 85
Network latency average = 22.3207
	minimum = 7
	maximum = 85
Slowest packet = 16597
Flit latency average = 22.3792
	minimum = 7
	maximum = 85
Slowest flit = 16597
Fragmentation average = 0
	minimum = 0
	maximum = 0
Injected packet rate average = 0.0998125
	minimum = 0.09 (at node 5)
	maximum = 0.1145 (at node 10)
Accepted packet rate average = 0.0994687
	minimum = 0.0915 (at node 7)
	maximum = 0.116 (at node 0)
Injected flit rate average = 0.0998125
	minimum = 0.09 (at node 5)
	maximum = 0.1145 (at node 10)
Accepted flit rate average= 0.0994687
	minimum = 0.0915 (at node 7)
	maximum = 0.116 (at node 0)
Injected packet length average = 1
Accepted packet length average = 1
Total in-flight flits = 42 (42 measured)
latency change    = 0.000955482
throughput change = 0.0160226
Class 0:
Packet latency average = 22.4598
	minimum = 7
	maximum = 85
Network latency average = 22.406
	minimum = 7
	maximum = 85
Slowest packet = 16597
Flit latency average = 22.4441
	minimum = 7
	maximum = 85
Slowest flit = 16597
Fragmentation average = 0
	minimum = 0
	maximum = 0
Injected packet rate average = 0.100417
	minimum = 0.0873333 (at node 5)
	maximum = 0.111667 (at node 10)
Accepted packet rate average = 0.100146
	minimum = 0.0943333 (at node 13)
	maximum = 0.116 (at node 0)
Injected flit rate average = 0.100417
	minimum = 0.0873333 (at node 5)
	maximum = 0.111667 (at node 10)
Accepted flit rate average= 0.100146
	minimum = 0.0943333 (at node 13)
	maximum = 0.116 (at node 0)
Injected packet length average = 1
Accepted packet length average = 1
Total in-flight flits = 44 (44 measured)
latency change    = 0.00292805
throughput change = 0.00676097
Draining all recorded packets ...
Draining remaining packets ...
Time taken is 6107 cycles
Class 0:
Packet latency average = 22.8033
	minimum = 7
	maximum = 87
Network latency average = 22.7556
	minimum = 7
	maximum = 87
Slowest packet = 20780
Flit latency average = 22.7556
	minimum = 7
	maximum = 87
Slowest flit = 20780
Fragmentation average = 0
	minimum = 0
	maximum = 0
Injected packet rate average = 0.0981875
	minimum = 0.078 (at node 13)
	maximum = 0.117 (at node 15)
Accepted packet rate average = 0.095625
	minimum = 0.08 (at node 4)
	maximum = 0.107 (at node 14)
Injected flit rate average = 0.0981875
	minimum = 0.078 (at node 13)
	maximum = 0.117 (at node 15)
Accepted flit rate average= 0.095625
	minimum = 0.08 (at node 4)
	maximum = 0.107 (at node 14)
Injected packet length average = 1
Accepted packet length average = 1
Total in-flight flits = 41 (0 measured)
latency change    = 1
throughput change = 1
Class 0:
Packet latency average = 22.2647
	minimum = 7
	maximum = 87
Network latency average = 22.2381
	minimum = 7
	maximum = 87
Slowest packet = 20780
Flit latency average = 22.2381
	minimum = 7
	maximum = 87
Slowest flit = 20780
Fragmentation average = 0
	minimum = 0
	maximum = 0
Injected packet rate average = 0.0998125
	minimum = 0.0875 (at node 3)
	maximum = 0.116 (at node 6)
Accepted packet rate average = 0.0986875
	minimum = 0.088 (at node 7)
	maximum = 0.1075 (at node 8)
Injected flit rate average = 0.0998125
	minimum = 0.0875 (at node 3)
	maximum = 0.116 (at node 6)
Accepted flit rate average= 0.0986875
	minimum = 0.088 (at node 7)
	maximum = 0.1075 (at node 8)
Injected packet length average = 1
Accepted packet length average = 1
Total in-flight flits = 36 (0 measured)
latency change    = 0.0241882
throughput change = 0.0310323
Class 0:
Packet latency average = 21.6992
	minimum = 7
	maximum = 65
Network latency average = 21.6947
	minimum = 7
	maximum = 65
Slowest packet = 23491
Flit latency average = 21.6947
	minimum = 7
	maximum = 65
Slowest flit = 23491
Fragmentation average = 0
	minimum = 0
	maximum = 0
Injected packet rate average = 0.0973125
	minimum = 0.077 (at node 5)
	maximum = 0.119 (at node 8)
Accepted packet rate average = 0.0974375
	minimum = 0.078 (at node 15)
	maximum = 0.118 (at node 14)
Injected flit rate average = 0.0973125
	minimum = 0.077 (at node 5)
	maximum = 0.119 (at node 8)
Accepted flit rate average= 0.0974375
	minimum = 0.078 (at node 15)
	maximum = 0.118 (at node 14)
Injected packet length average = 1
Accepted packet length average = 1
Total in-flight flits = 34 (0 measured)
latency change    = 0.0260636
throughput change = 0.0128287
Warmed up ...Time used is 3000 cycles
Class 0:
Packet latency average = 22.388
	minimum = 7
	maximum = 74
Network latency average = 22.3731
	minimum = 7
	maximum = 74
Slowest packet = 24618
Flit latency average = 22.4037
	minimum = 7
	maximum = 74
Slowest flit = 24618
Fragmentation average = 0
	minimum = 0
	maximum = 0
Injected packet rate average = 0.0993125
	minimum = 0.085 (at node 7)
	maximum = 0.11 (at node 2)
Accepted packet rate average = 0.098625
	minimum = 0.074 (at node 5)
	maximum = 0.11 (at node 10)
Injected flit rate average = 0.0993125
	minimum = 0.085 (at node 7)
	maximum = 0.11 (at node 2)
Accepted flit rate average= 0.098625
	minimum = 0.074 (at node 5)
	maximum = 0.11 (at node 10)
Injected packet length average = 1
Accepted packet length average = 1
Total in-flight flits = 46 (46 measured)
latency change    = 0.030766
throughput change = 0.0120406
Class 0:
Packet latency average = 22.4304
	minimum = 7
	maximum = 82
Network latency average = 22.3433
	minimum = 7
	maximum = 74
Slowest packet = 24618
Flit latency average = 22.3588
	minimum = 7
	maximum = 74
Slowest flit = 24618
Fragmentation average = 0
	minimum = 0
	maximum = 0
Injected packet rate average = 0.0994687
	minimum = 0.0865 (at node 1)
	maximum = 0.116 (at node 15)
Accepted packet rate average = 0.099375
	minimum = 0.0845 (at node 5)
	maximum = 0.122 (at node 6)
Injected flit rate average = 0.0994687
	minimum = 0.0865 (at node 1)
	maximum = 0.116 (at node 15)
Accepted flit rate average= 0.099375
	minimum = 0.0845 (at node 5)
	maximum = 0.122 (at node 6)
Injected packet length average = 1
Accepted packet length average = 1
Total in-flight flits = 37 (37 measured)
latency change    = 0.00189183
throughput change = 0.00754717
Class 0:
Packet latency average = 22.6424
	minimum = 7
	maximum = 82
Network latency average = 22.5823
	minimum = 7
	maximum = 74
Slowest packet = 24618
Flit latency average = 22.591
	minimum = 7
	maximum = 74
Slowest flit = 24618
Fragmentation average = 0
	minimum = 0
	maximum = 0
Injected packet rate average = 0.0991667
	minimum = 0.088 (at node 1)
	maximum = 0.111667 (at node 15)
Accepted packet rate average = 0.0991667
	minimum = 0.0856667 (at node 5)
	maximum = 0.116667 (at node 6)
Injected flit rate average = 0.0991667
	minimum = 0.088 (at node 1)
	maximum = 0.111667 (at node 15)
Accepted flit rate average= 0.0991667
	minimum = 0.0856667 (at node 5)
	maximum = 0.116667 (at node 6)
Injected packet length average = 1
Accepted packet length average = 1
Total in-flight flits = 34 (34 measured)
latency change    = 0.00936367
throughput change = 0.00210084
Draining all recorded packets ...
Draining remaining packets ...
Time taken is 6075 cycles
Class 0:
Packet latency average = 22.6969
	minimum = 7
	maximum = 74
Network latency average = 22.6847
	minimum = 7
	maximum = 74
Slowest packet = 29545
Flit latency average = 22.6847
	minimum = 7
	maximum = 74
Slowest flit = 29545
Fragmentation average = 0
	minimum = 0
	maximum = 0
Injected packet rate average = 0.100312
	minimum = 0.087 (at node 10)
	maximum = 0.115 (at node 9)
Accepted packet rate average = 0.0979375
	minimum = 0.082 (at node 14)
	maximum = 0.112 (at node 6)
Injected flit rate average = 0.100312
	minimum = 0.087 (at node 10)
	maximum = 0.115 (at node 9)
Accepted flit rate average= 0.0979375
	minimum = 0.082 (at node 14)
	maximum = 0.112 (at node 6)
Injected packet length average = 1
Accepted packet length average = 1
Total in-flight flits = 38 (0 measured)
latency change    = 1
throughput change = 1
Class 0:
Packet latency average = 22.549
	minimum = 7
	maximum = 80
Network latency average = 22.5332
	minimum = 7
	maximum = 80
Slowest packet = 31975
Flit latency average = 22.5332
	minimum = 7
	maximum = 80
Slowest flit = 31975
Fragmentation average = 0
	minimum = 0
	maximum = 0
Injected packet rate average = 0.0996563
	minimum = 0.0875 (at node 3)
	maximum = 0.1165 (at node 9)
Accepted packet rate average = 0.0988125
	minimum = 0.0855 (at node 14)
	maximum = 0.109 (at node 15)
Injected flit rate average = 0.0996563
	minimum = 0.0875 (at node 3)
	maximum = 0.1165 (at node 9)
Accepted flit rate average= 0.0988125
	minimum = 0.0855 (at node 14)
	maximum = 0.109 (at node 15)
Injected packet length average = 1
Accepted packet length average = 1
Total in-flight flits = 28 (0 measured)
latency change    = 0.00655698
throughput change = 0.00885515
Class 0:
Packet latency average = 22.1525
	minimum = 7
	maximum = 89
Network latency average = 22.0842
	minimum = 7
	maximum = 89
Slowest packet = 32135
Flit latency average = 22.0842
	minimum = 7
	maximum = 89
Slowest flit = 32135
Fragmentation average = 0
	minimum = 0
	maximum = 0
Injected packet rate average = 0.0985
	minimum = 0.08 (at node 2)
	maximum = 0.114 (at node 13)
Accepted packet rate average = 0.0979375
	minimum = 0.084 (at node 15)
	maximum = 0.113 (at node 11)
Injected flit rate average = 0.0985
	minimum = 0.08 (at node 2)
	maximum = 0.114 (at node 13)
Accepted flit rate average= 0.0979375
	minimum = 0.084 (at node 15)
	maximum = 0.113 (at node 11)
Injected packet length average = 1
Accepted packet length average = 1
Total in-flight flits = 36 (0 measured)
latency change    = 0.0178986
throughput change = 0.00893427
Warmed up ...Time used is 3000 cycles
Class 0:
Packet latency average = 23.2885
	minimum = 7
	maximum = 97
Network latency average = 23.2502
	minimum = 7
	maximum = 97
Slowest packet = 35178
Flit latency average = 23.2722
	minimum = 7
	maximum = 97
Slowest flit = 35178
Fragmentation average = 0
	minimum = 0
	maximum = 0
Injected packet rate average = 0.104563
	minimum = 0.086 (at node 8)
	maximum = 0.116 (at node 10)
Accepted packet rate average = 0.104938
	minimum = 0.088 (at node 6)
	maximum = 0.132 (at node 8)
Injected flit rate average = 0.104563
	minimum = 0.086 (at node 8)
	maximum = 0.116 (at node 10)
Accepted flit rate average= 0.104938
	minimum = 0.088 (at node 6)
	maximum = 0.132 (at node 8)
Injected packet length average = 1
Accepted packet length average = 1
Total in-flight flits = 31 (31 measured)
latency change    = 0.0487784
throughput change = 0.0667064
Class 0:
Packet latency average = 22.7046
	minimum = 7
	maximum = 97
Network latency average = 22.6548
	minimum = 7
	maximum = 97
Slowest packet = 35178
Flit latency average = 22.6728
	minimum = 7
	maximum = 97
Slowest flit = 35178
Fragmentation average = 0
	minimum = 0
	maximum = 0
Injected packet rate average = 0.101156
	minimum = 0.0945 (at node 8)
	maximum = 0.1105 (at node 11)
Accepted packet rate average = 0.101531
	minimum = 0.09 (at node 6)
	maximum = 0.118 (at node 5)
Injected flit rate average = 0.101156
	minimum = 0.0945 (at node 8)
	maximum = 0.1105 (at node 11)
Accepted flit rate average= 0.101531
	minimum = 0.09 (at node 6)
	maximum = 0.118 (at node 5)
Injected packet length average = 1
Accepted packet length average = 1
Total in-flight flits = 24 (24 measured)
latency change    = 0.0257154
throughput change = 0.0335488
Class 0:
Packet latency average = 22.6216
	minimum = 7
	maximum = 97
Network latency average = 22.5837
	minimum = 7
	maximum = 97
Slowest packet = 35178
Flit latency average = 22.5963
	minimum = 7
	maximum = 97
Slowest flit = 35178
Fragmentation average = 0
	minimum = 0
	maximum = 0
Injected packet rate average = 0.100292
	minimum = 0.0893333 (at node 7)
	maximum = 0.108333 (at node 11)
Accepted packet rate average = 0.100229
	minimum = 0.0926667 (at node 6)
	maximum = 0.110667 (at node 8)
Injected flit rate average = 0.100292
	minimum = 0.0893333 (at node 7)
	maximum = 0.108333 (at node 11)
Accepted flit rate average= 0.100229
	minimum = 0.0926667 (at node 6)
	maximum = 0.110667 (at node 8)
Injected packet length average = 1
Accepted packet length average = 1
Total in-flight flits = 39 (39 measured)
latency change    = 0.00367201
throughput change = 0.0129911
Class 0:
Packet latency average = 22.7193
	minimum = 7
	maximum = 100
Network latency average = 22.6859
	minimum = 7
	maximum = 100
Slowest packet = 40066
Flit latency average = 22.6947
	minimum = 7
	maximum = 100
Slowest flit = 40066
Fragmentation average = 0
	minimum = 0
	maximum = 0
Injected packet rate average = 0.100969
	minimum = 0.092 (at node 7)
	maximum = 0.10675 (at node 8)
Accepted packet rate average = 0.100937
	minimum = 0.09175 (at node 6)
	maximum = 0.112 (at node 8)
Injected flit rate average = 0.100969
	minimum = 0.092 (at node 7)
	maximum = 0.10675 (at node 8)
Accepted flit rate average= 0.100937
	minimum = 0.09175 (at node 6)
	maximum = 0.112 (at node 8)
Injected packet length average = 1
Accepted packet length average = 1
Total in-flight flits = 39 (39 measured)
latency change    = 0.00430308
throughput change = 0.00701754
Draining all recorded packets ...
Draining remaining packets ...
Time taken is 7104 cycles
Class 0:
Packet latency average = 22.4611
	minimum = 7
	maximum = 84
Network latency average = 22.4586
	minimum = 7
	maximum = 84
Slowest packet = 41102
Flit latency average = 22.4586
	minimum = 7
	maximum = 84
Slowest flit = 41102
Fragmentation average = 0
	minimum = 0
	maximum = 0
Injected packet rate average = 0.101625
	minimum = 0.078 (at node 11)
	maximum = 0.133 (at node 4)
Accepted packet rate average = 0.0988125
	minimum = 0.079 (at node 6)
	maximum = 0.12 (at node 10)
Injected flit rate average = 0.101625
	minimum = 0.078 (at node 11)
	maximum = 0.133 (at node 4)
Accepted flit rate average= 0.0988125
	minimum = 0.079 (at node 6)
	maximum = 0.12 (at node 10)
Injected packet length average = 1
Accepted packet length average = 1
Total in-flight flits = 45 (0 measured)
latency change    = 1
throughput change = 1
Class 0:
Packet latency average = 22.6949
	minimum = 7
	maximum = 86
Network latency average = 22.6867
	minimum = 7
	maximum = 86
Slowest packet = 42842
Flit latency average = 22.6867
	minimum = 7
	maximum = 86
Slowest flit = 42842
Fragmentation average = 0
	minimum = 0
	maximum = 0
Injected packet rate average = 0.100156
	minimum = 0.0855 (at node 7)
	maximum = 0.122 (at node 4)
Accepted packet rate average = 0.0991563
	minimum = 0.0825 (at node 0)
	maximum = 0.1135 (at node 4)
Injected flit rate average = 0.100156
	minimum = 0.0855 (at node 7)
	maximum = 0.122 (at node 4)
Accepted flit rate average= 0.0991563
	minimum = 0.0825 (at node 0)
	maximum = 0.1135 (at node 4)
Injected packet length average = 1
Accepted packet length average = 1
Total in-flight flits = 32 (0 measured)
latency change    = 0.010303
throughput change = 0.00346675
Class 0:
Packet latency average = 22.1773
	minimum = 7
	maximum = 85
Network latency average = 22.1614
	minimum = 7
	maximum = 85
Slowest packet = 44191
Flit latency average = 22.1614
	minimum = 7
	maximum = 85
Slowest flit = 44191
Fragmentation average = 0
	minimum = 0
	maximum = 0
Injected packet rate average = 0.097875
	minimum = 0.082 (at node 14)
	maximum = 0.112 (at node 10)
Accepted packet rate average = 0.098
	minimum = 0.074 (at node 9)
	maximum = 0.11 (at node 15)
Injected flit rate average = 0.097875
	minimum = 0.082 (at node 14)
	maximum = 0.112 (at node 10)
Accepted flit rate average= 0.098
	minimum = 0.074 (at node 9)
	maximum = 0.11 (at node 15)
Injected packet length average = 1
Accepted packet length average = 1
Total in-flight flits = 30 (0 measured)
latency change    = 0.0233405
throughput change = 0.0117985
Warmed up ...Time used is 3000 cycles
Class 0:
Packet latency average = 23.2991
	minimum = 7
	maximum = 97
Network latency average = 23.2908
	minimum = 7
	maximum = 97
Slowest packet = 46039
Flit latency average = 23.3514
	minimum = 7
	maximum = 97
Slowest flit = 46039
Fragmentation average = 0
	minimum = 0
	maximum = 0
Injected packet rate average = 0.09925
	minimum = 0.088 (at node 5)
	maximum = 0.116 (at node 15)
Accepted packet rate average = 0.09925
	minimum = 0.082 (at node 8)
	maximum = 0.118 (at node 1)
Injected flit rate average = 0.09925
	minimum = 0.088 (at node 5)
	maximum = 0.116 (at node 15)
Accepted flit rate average= 0.09925
	minimum = 0.082 (at node 8)
	maximum = 0.118 (at node 1)
Injected packet length average = 1
Accepted packet length average = 1
Total in-flight flits = 30 (30 measured)
latency change    = 0.048148
throughput change = 0.0125945
Class 0:
Packet latency average = 22.6289
	minimum = 7
	maximum = 97
Network latency average = 22.6153
	minimum = 7
	maximum = 97
Slowest packet = 46039
Flit latency average = 22.6518
	minimum = 7
	maximum = 97
Slowest flit = 46039
Fragmentation average = 0
	minimum = 0
	maximum = 0
Injected packet rate average = 0.100094
	minimum = 0.0915 (at node 2)
	maximum = 0.1085 (at node 15)
Accepted packet rate average = 0.0997187
	minimum = 0.092 (at node 15)
	maximum = 0.107 (at node 9)
Injected flit rate average = 0.100094
	minimum = 0.0915 (at node 2)
	maximum = 0.1085 (at node 15)
Accepted flit rate average= 0.0997187
	minimum = 0.092 (at node 15)
	maximum = 0.107 (at node 9)
Injected packet length average = 1
Accepted packet length average = 1
Total in-flight flits = 42 (42 measured)
latency change    = 0.0296164
throughput change = 0.00470072
Class 0:
Packet latency average = 22.4903
	minimum = 7
	maximum = 97
Network latency average = 22.4713
	minimum = 7
	maximum = 97
Slowest packet = 46039
Flit latency average = 22.4964
	minimum = 7
	maximum = 97
Slowest flit = 46039
Fragmentation average = 0
	minimum = 0
	maximum = 0
Injected packet rate average = 0.10025
	minimum = 0.0923333 (at node 2)
	maximum = 0.104667 (at node 0)
Accepted packet rate average = 0.100271
	minimum = 0.095 (at node 3)
	maximum = 0.105667 (at node 2)
Injected flit rate average = 0.10025
	minimum = 0.0923333 (at node 2)
	maximum = 0.104667 (at node 0)
Accepted flit rate average= 0.100271
	minimum = 0.095 (at node 3)
	maximum = 0.105667 (at node 2)
Injected packet length average = 1
Accepted packet length average = 1
Total in-flight flits = 29 (29 measured)
latency change    = 0.0061643
throughput change = 0.00550592
Draining all recorded packets ...
Draining remaining packets ...
Time taken is 6068 cycles
Class 0:
Packet latency average = 22.4756
	minimum = 7
	maximum = 78
Network latency average = 22.4499
	minimum = 7
	maximum = 78
Slowest packet = 50640
Flit latency average = 22.4499
	minimum = 7
	maximum = 78
Slowest flit = 50640
Fragmentation average = 0
	minimum = 0
	maximum = 0
Injected packet rate average = 0.097
	minimum = 0.081 (at node 4)
	maximum = 0.115 (at node 9)
Accepted packet rate average = 0.094875
	minimum = 0.086 (at node 4)
	maximum = 0.118 (at node 9)
Injected flit rate average = 0.097
	minimum = 0.081 (at node 4)
	maximum = 0.115 (at node 9)
Accepted flit rate average= 0.094875
	minimum = 0.086 (at node 4)
	maximum = 0.118 (at node 9)
Injected packet length average = 1
Accepted packet length average = 1
Total in-flight flits = 34 (0 measured)
latency change    = 1
throughput change = 1
Class 0:
Packet latency average = 23.1287
	minimum = 7
	maximum = 137
Network latency average = 23.067
	minimum = 7
	maximum = 137
Slowest packet = 52587
Flit latency average = 23.067
	minimum = 7
	maximum = 137
Slowest flit = 52587
Fragmentation average = 0
	minimum = 0
	maximum = 0
Injected packet rate average = 0.100375
	minimum = 0.0895 (at node 3)
	maximum = 0.1105 (at node 7)
Accepted packet rate average = 0.0993125
	minimum = 0.09 (at node 4)
	maximum = 0.1095 (at node 1)
Injected flit rate average = 0.100375
	minimum = 0.0895 (at node 3)
	maximum = 0.1105 (at node 7)
Accepted flit rate average= 0.0993125
	minimum = 0.09 (at node 4)
	maximum = 0.1095 (at node 1)
Injected packet length average = 1
Accepted packet length average = 1
Total in-flight flits = 34 (0 measured)
latency change    = 0.0282364
throughput change = 0.0446822
Class 0:
Packet latency average = 22.7603
	minimum = 7
	maximum = 69
Network latency average = 22.6895
	minimum = 7
	maximum = 69
Slowest packet = 53344
Flit latency average = 22.6895
	minimum = 7
	maximum = 69
Slowest flit = 53344
Fragmentation average = 0
	minimum = 0
	maximum = 0
Injected packet rate average = 0.102
	minimum = 0.087 (at node 8)
	maximum = 0.115 (at node 11)
Accepted packet rate average = 0.101437
	minimum = 0.086 (at node 3)
	maximum = 0.114 (at node 6)
Injected flit rate average = 0.102
	minimum = 0.087 (at node 8)
	maximum = 0.115 (at node 11)
Accepted flit rate average= 0.101437
	minimum = 0.086 (at node 3)
	maximum = 0.114 (at node 6)
Injected packet length average = 1
Accepted packet length average = 1
Total in-flight flits = 43 (0 measured)
latency change    = 0.016185
throughput change = 0.0209489
Warmed up ...Time used is 3000 cycles
Class 0:
Packet latency average = 22.415
	minimum = 7
	maximum = 76
Network latency average = 22.3525
	minimum = 7
	maximum = 69
Slowest packet = 55023
Flit latency average = 22.5325
	minimum = 7
	maximum = 69
Slowest flit = 56039
Fragmentation average = 0
	minimum = 0
	maximum = 0
Injected packet rate average = 0.103
	minimum = 0.087 (at node 3)
	maximum = 0.128 (at node 0)
Accepted packet rate average = 0.10375
	minimum = 0.088 (at node 2)
	maximum = 0.125 (at node 3)
Injected flit rate average = 0.103
	minimum = 0.087 (at node 3)
	maximum = 0.128 (at node 0)
Accepted flit rate average= 0.10375
	minimum = 0.088 (at node 2)
	maximum = 0.125 (at node 3)
Injected packet length average = 1
Accepted packet length average = 1
Total in-flight flits = 31 (31 measured)
latency change    = 0.0154073
throughput change = 0.0222892
Class 0:
Packet latency average = 22.2551
	minimum = 7
	maximum = 76
Network latency average = 22.2179
	minimum = 7
	maximum = 73
Slowest packet = 55023
Flit latency average = 22.3096
	minimum = 7
	maximum = 73
Slowest flit = 57343
Fragmentation average = 0
	minimum = 0
	maximum = 0
Injected packet rate average = 0.103594
	minimum = 0.0925 (at node 14)
	maximum = 0.1175 (at node 8)
Accepted packet rate average = 0.10375
	minimum = 0.0945 (at node 2)
	maximum = 0.119 (at node 3)
Injected flit rate average = 0.103594
	minimum = 0.0925 (at node 14)
	maximum = 0.1175 (at node 8)
Accepted flit rate average= 0.10375
	minimum = 0.0945 (at node 2)
	maximum = 0.119 (at node 3)
Injected packet length average = 1
Accepted packet length average = 1
Total in-flight flits = 38 (38 measured)
latency change    = 0.00718283
throughput change = 0
Class 0:
Packet latency average = 22.2755
	minimum = 7
	maximum = 76
Network latency average = 22.2261
	minimum = 7
	maximum = 73
Slowest packet = 55023
Flit latency average = 22.2876
	minimum = 7
	maximum = 73
Slowest flit = 57343
Fragmentation average = 0
	minimum = 0
	maximum = 0
Injected packet rate average = 0.102938
	minimum = 0.0933333 (at node 1)
	maximum = 0.114333 (at node 8)
Accepted packet rate average = 0.103063
	minimum = 0.0906667 (at node 2)
	maximum = 0.117 (at node 0)
Injected flit rate average = 0.102938
	minimum = 0.0933333 (at node 1)
	maximum = 0.114333 (at node 8)
Accepted flit rate average= 0.103063
	minimum = 0.0906667 (at node 2)
	maximum = 0.117 (at node 0)
Injected packet length average = 1
Accepted packet length average = 1
Total in-flight flits = 37 (37 measured)
latency change    = 0.000914818
throughput change = 0.00667071
Draining all recorded packets ...
Draining remaining packets ...
Time taken is 6085 cycles
Class 0:
Packet latency average = 22.0155
	minimum = 7
	maximum = 71
Network latency average = 22.0032
	minimum = 7
	maximum = 71
Slowest packet = 59899
Flit latency average = 22.0032
	minimum = 7
	maximum = 71
Slowest flit = 59899
Fragmentation average = 0
	minimum = 0
	maximum = 0
Injected packet rate average = 0.09875
	minimum = 0.089 (at node 10)
	maximum = 0.108 (at node 0)
Accepted packet rate average = 0.0966875
	minimum = 0.077 (at node 12)
	maximum = 0.119 (at node 14)
Injected flit rate average = 0.09875
	minimum = 0.089 (at node 10)
	maximum = 0.108 (at node 0)
Accepted flit rate average= 0.0966875
	minimum = 0.077 (at node 12)
	maximum = 0.119 (at node 14)
Injected packet length average = 1
Accepted packet length average = 1
Total in-flight flits = 33 (0 measured)
latency change    = 1
throughput change = 1
Class 0:
Packet latency average = 22.2746
	minimum = 7
	maximum = 83
Network latency average = 22.2682
	minimum = 7
	maximum = 83
Slowest packet = 62839
Flit latency average = 22.2682
	minimum = 7
	maximum = 83
Slowest flit = 62839
Fragmentation average = 0
	minimum = 0
	maximum = 0
Injected packet rate average = 0.0986875
	minimum = 0.0895 (at node 10)
	maximum = 0.1105 (at node 13)
Accepted packet rate average = 0.0974062
	minimum = 0.083 (at node 12)
	maximum = 0.1135 (at node 5)
Injected flit rate average = 0.0986875
	minimum = 0.0895 (at node 10)
	maximum = 0.1105 (at node 13)
Accepted flit rate average= 0.0974062
	minimum = 0.083 (at node 12)
	maximum = 0.1135 (at node 5)
Injected packet length average = 1
Accepted packet length average = 1
Total in-flight flits = 41 (0 measured)
latency change    = 0.0116325
throughput change = 0.00737889
Class 0:
Packet latency average = 23.5527
	minimum = 7
	maximum = 88
Network latency average = 23.5136
	minimum = 7
	maximum = 88
Slowest packet = 64404
Flit latency average = 23.5136
	minimum = 7
	maximum = 88
Slowest flit = 64404
Fragmentation average = 0
	minimum = 0
	maximum = 0
Injected packet rate average = 0.100437
	minimum = 0.082 (at node 5)
	maximum = 0.113 (at node 12)
Accepted packet rate average = 0.10075
	minimum = 0.083 (at node 2)
	maximum = 0.112 (at node 1)
Injected flit rate average = 0.100437
	minimum = 0.082 (at node 5)
	maximum = 0.113 (at node 12)
Accepted flit rate average= 0.10075
	minimum = 0.083 (at node 2)
	maximum = 0.112 (at node 1)
Injected packet length average = 1
Accepted packet length average = 1
Total in-flight flits = 36 (0 measured)
latency change    = 0.0542657
throughput change = 0.0331886
Warmed up ...Time used is 3000 cycles
Class 0:
Packet latency average = 22.3965
	minimum = 7
	maximum = 76
Network latency average = 22.3907
	minimum = 7
	maximum = 76
Slowest packet = 65249
Flit latency average = 22.4543
	minimum = 7
	maximum = 76
Slowest flit = 65249
Fragmentation average = 0
	minimum = 0
	maximum = 0
Injected packet rate average = 0.100062
	minimum = 0.085 (at node 14)
	maximum = 0.115 (at node 2)
Accepted packet rate average = 0.0991875
	minimum = 0.084 (at node 10)
	maximum = 0.12 (at node 9)
Injected flit rate average = 0.100062
	minimum = 0.085 (at node 14)
	maximum = 0.115 (at node 2)
Accepted flit rate average= 0.0991875
	minimum = 0.084 (at node 10)
	maximum = 0.12 (at node 9)
Injected packet length average = 1
Accepted packet length average = 1
Total in-flight flits = 50 (50 measured)
latency change    = 0.0516246
throughput change = 0.015753
Class 0:
Packet latency average = 22.7639
	minimum = 7
	maximum = 76
Network latency average = 22.7491
	minimum = 7
	maximum = 76
Slowest packet = 65249
Flit latency average = 22.776
	minimum = 7
	maximum = 76
Slowest flit = 65249
Fragmentation average = 0
	minimum = 0
	maximum = 0
Injected packet rate average = 0.101688
	minimum = 0.0895 (at node 14)
	maximum = 0.1115 (at node 15)
Accepted packet rate average = 0.102125
	minimum = 0.093 (at node 11)
	maximum = 0.1115 (at node 4)
Injected flit rate average = 0.101688
	minimum = 0.0895 (at node 14)
	maximum = 0.1115 (at node 15)
Accepted flit rate average= 0.102125
	minimum = 0.093 (at node 11)
	maximum = 0.1115 (at node 4)
Injected packet length average = 1
Accepted packet length average = 1
Total in-flight flits = 22 (22 measured)
latency change    = 0.0161398
throughput change = 0.0287638
Class 0:
Packet latency average = 22.4076
	minimum = 7
	maximum = 76
Network latency average = 22.3732
	minimum = 7
	maximum = 76
Slowest packet = 65249
Flit latency average = 22.3942
	minimum = 7
	maximum = 76
Slowest flit = 65249
Fragmentation average = 0
	minimum = 0
	maximum = 0
Injected packet rate average = 0.100667
	minimum = 0.09 (at node 14)
	maximum = 0.108667 (at node 9)
Accepted packet rate average = 0.100562
	minimum = 0.092 (at node 3)
	maximum = 0.111 (at node 6)
Injected flit rate average = 0.100667
	minimum = 0.09 (at node 14)
	maximum = 0.108667 (at node 9)
Accepted flit rate average= 0.100562
	minimum = 0.092 (at node 3)
	maximum = 0.111 (at node 6)
Injected packet length average = 1
Accepted packet length average = 1
Total in-flight flits = 41 (41 measured)
latency change    = 0.0159001
throughput change = 0.0155376
Class 0:
Packet latency average = 22.6423
	minimum = 7
	maximum = 76
Network latency average = 22.615
	minimum = 7
	maximum = 76
Slowest packet = 65249
Flit latency average = 22.6293
	minimum = 7
	maximum = 76
Slowest flit = 65249
Fragmentation average = 0
	minimum = 0
	maximum = 0
Injected packet rate average = 0.101422
	minimum = 0.092 (at node 14)
	maximum = 0.1075 (at node 7)
Accepted packet rate average = 0.101375
	minimum = 0.091 (at node 3)
	maximum = 0.11025 (at node 6)
Injected flit rate average = 0.101422
	minimum = 0.092 (at node 14)
	maximum = 0.1075 (at node 7)
Accepted flit rate average= 0.101375
	minimum = 0.091 (at node 3)
	maximum = 0.11025 (at node 6)
Injected packet length average = 1
Accepted packet length average = 1
Total in-flight flits = 39 (39 measured)
latency change    = 0.010363
throughput change = 0.0080148
Draining all recorded packets ...
Draining remaining packets ...
Time taken is 7076 cycles
Class 0:
Packet latency average = 21.6921
	minimum = 7
	maximum = 70
Network latency average = 21.6902
	minimum = 7
	maximum = 70
Slowest packet = 71443
Flit latency average = 21.6902
	minimum = 7
	maximum = 70
Slowest flit = 71443
Fragmentation average = 0
	minimum = 0
	maximum = 0
Injected packet rate average = 0.100062
	minimum = 0.083 (at node 1)
	maximum = 0.125 (at node 5)
Accepted packet rate average = 0.0974375
	minimum = 0.075 (at node 11)
	maximum = 0.11 (at node 4)
Injected flit rate average = 0.100062
	minimum = 0.083 (at node 1)
	maximum = 0.125 (at node 5)
Accepted flit rate average= 0.0974375
	minimum = 0.075 (at node 11)
	maximum = 0.11 (at node 4)
Injected packet length average = 1
Accepted packet length average = 1
Total in-flight flits = 42 (0 measured)
latency change    = 1
throughput change = 1
Class 0:
Packet latency average = 22.3921
	minimum = 7
	maximum = 75
Network latency average = 22.3771
	minimum = 7
	maximum = 75
Slowest packet = 73956
Flit latency average = 22.3771
	minimum = 7
	maximum = 75
Slowest flit = 73956
Fragmentation average = 0
	minimum = 0
	maximum = 0
Injected packet rate average = 0.102938
	minimum = 0.095 (at node 1)
	maximum = 0.116 (at node 5)
Accepted packet rate average = 0.101844
	minimum = 0.0935 (at node 15)
	maximum = 0.111 (at node 4)
Injected flit rate average = 0.102938
	minimum = 0.095 (at node 1)
	maximum = 0.116 (at node 5)
Accepted flit rate average= 0.101844
	minimum = 0.0935 (at node 15)
	maximum = 0.111 (at node 4)
Injected packet length average = 1
Accepted packet length average = 1
Total in-flight flits = 35 (0 measured)
latency change    = 0.0312625
throughput change = 0.0432648
Class 0:
Packet latency average = 22.7121
	minimum = 7
	maximum = 77
Network latency average = 22.6735
	minimum = 7
	maximum = 77
Slowest packet = 74372
Flit latency average = 22.6735
	minimum = 7
	maximum = 77
Slowest flit = 74372
Fragmentation average = 0
	minimum = 0
	maximum = 0
Injected packet rate average = 0.100375
	minimum = 0.086 (at node 2)
	maximum = 0.124 (at node 11)
Accepted packet rate average = 0.1005
	minimum = 0.088 (at node 7)
	maximum = 0.118 (at node 10)
Injected flit rate average = 0.100375
	minimum = 0.086 (at node 2)
	maximum = 0.124 (at node 11)
Accepted flit rate average= 0.1005
	minimum = 0.088 (at node 7)
	maximum = 0.118 (at node 10)
Injected packet length average = 1
Accepted packet length average = 1
Total in-flight flits = 33 (0 measured)
latency change    = 0.0140859
throughput change = 0.0133706
Warmed up ...Time used is 3000 cycles
Class 0:
Packet latency average = 22.5289
	minimum = 7
	maximum = 96
Network latency average = 22.4899
	minimum = 7
	maximum = 96
Slowest packet = 76303
Flit latency average = 22.6062
	minimum = 7
	maximum = 96
Slowest flit = 76303
Fragmentation average = 0
	minimum = 0
	maximum = 0
Injected packet rate average = 0.09825
	minimum = 0.081 (at node 6)
	maximum = 0.116 (at node 9)
Accepted packet rate average = 0.09825
	minimum = 0.077 (at node 2)
	maximum = 0.112 (at node 4)
Injected flit rate average = 0.09825
	minimum = 0.081 (at node 6)
	maximum = 0.116 (at node 9)
Accepted flit rate average= 0.09825
	minimum = 0.077 (at node 2)
	maximum = 0.112 (at node 4)
Injected packet length average = 1
Accepted packet length average = 1
Total in-flight flits = 33 (33 measured)
latency change    = 0.00812954
throughput change = 0.0229008
Class 0:
Packet latency average = 22.7261
	minimum = 7
	maximum = 96
Network latency average = 22.6957
	minimum = 7
	maximum = 96
Slowest packet = 76303
Flit latency average = 22.7509
	minimum = 7
	maximum = 96
Slowest flit = 76303
Fragmentation average = 0
	minimum = 0
	maximum = 0
Injected packet rate average = 0.0998437
	minimum = 0.089 (at node 11)
	maximum = 0.113 (at node 12)
Accepted packet rate average = 0.0997187
	minimum = 0.0825 (at node 8)
	maximum = 0.1095 (at node 15)
Injected flit rate average = 0.0998437
	minimum = 0.089 (at node 11)
	maximum = 0.113 (at node 12)
Accepted flit rate average= 0.0997187
	minimum = 0.0825 (at node 8)
	maximum = 0.1095 (at node 15)
Injected packet length average = 1
Accepted packet length average = 1
Total in-flight flits = 37 (37 measured)
latency change    = 0.00867626
throughput change = 0.0147289
Class 0:
Packet latency average = 22.6634
	minimum = 7
	maximum = 121
Network latency average = 22.6333
	minimum = 7
	maximum = 121
Slowest packet = 80110
Flit latency average = 22.6705
	minimum = 7
	maximum = 121
Slowest flit = 80110
Fragmentation average = 0
	minimum = 0
	maximum = 0
Injected packet rate average = 0.0998542
	minimum = 0.09 (at node 11)
	maximum = 0.108667 (at node 10)
Accepted packet rate average = 0.0998958
	minimum = 0.0873333 (at node 8)
	maximum = 0.11 (at node 15)
Injected flit rate average = 0.0998542
	minimum = 0.09 (at node 11)
	maximum = 0.108667 (at node 10)
Accepted flit rate average= 0.0998958
	minimum = 0.0873333 (at node 8)
	maximum = 0.11 (at node 15)
Injected packet length average = 1
Accepted packet length average = 1
Total in-flight flits = 31 (31 measured)
latency change    = 0.00276727
throughput change = 0.00177268
Draining all recorded packets ...
Draining remaining packets ...
Time taken is 6070 cycles
Class 0:
Packet latency average = 24.3668
	minimum = 7
	maximum = 123
Network latency average = 24.1515
	minimum = 7
	maximum = 123
Slowest packet = 81100
Flit latency average = 24.1515
	minimum = 7
	maximum = 123
Slowest flit = 81100
Fragmentation average = 0
	minimum = 0
	maximum = 0
Injected packet rate average = 0.105063
	minimum = 0.089 (at node 10)
	maximum = 0.123 (at node 3)
Accepted packet rate average = 0.10275
	minimum = 0.084 (at node 9)
	maximum = 0.123 (at node 6)
Injected flit rate average = 0.105063
	minimum = 0.089 (at node 10)
	maximum = 0.123 (at node 3)
Accepted flit rate average= 0.10275
	minimum = 0.084 (at node 9)
	maximum = 0.123 (at node 6)
Injected packet length average = 1
Accepted packet length average = 1
Total in-flight flits = 37 (0 measured)
latency change    = 1
throughput change = 1
Class 0:
Packet latency average = 23.3114
	minimum = 7
	maximum = 123
Network latency average = 23.1887
	minimum = 7
	maximum = 123
Slowest packet = 81100
Flit latency average = 23.1887
	minimum = 7
	maximum = 123
Slowest flit = 81100
Fragmentation average = 0
	minimum = 0
	maximum = 0
Injected packet rate average = 0.102313
	minimum = 0.095 (at node 7)
	maximum = 0.117 (at node 3)
Accepted packet rate average = 0.101344
	minimum = 0.088 (at node 3)
	maximum = 0.112 (at node 6)
Injected flit rate average = 0.102313
	minimum = 0.095 (at node 7)
	maximum = 0.117 (at node 3)
Accepted flit rate average= 0.101344
	minimum = 0.088 (at node 3)
	maximum = 0.112 (at node 6)
Injected packet length average = 1
Accepted packet length average = 1
Total in-flight flits = 31 (0 measured)
latency change    = 0.0452717
throughput change = 0.013876
Class 0:
Packet latency average = 22.9557
	minimum = 7
	maximum = 96
Network latency average = 22.914
	minimum = 7
	maximum = 96
Slowest packet = 84854
Flit latency average = 22.914
	minimum = 7
	maximum = 96
Slowest flit = 84854
Fragmentation average = 0
	minimum = 0
	maximum = 0
Injected packet rate average = 0.0960625
	minimum = 0.082 (at node 0)
	maximum = 0.108 (at node 10)
Accepted packet rate average = 0.095875
	minimum = 0.084 (at node 10)
	maximum = 0.11 (at node 9)
Injected flit rate average = 0.0960625
	minimum = 0.082 (at node 0)
	maximum = 0.108 (at node 10)
Accepted flit rate average= 0.095875
	minimum = 0.084 (at node 10)
	maximum = 0.11 (at node 9)
Injected packet length average = 1
Accepted packet length average = 1
Total in-flight flits = 34 (0 measured)
latency change    = 0.0154981
throughput change = 0.0570404
Warmed up ...Time used is 3000 cycles
Class 0:
Packet latency average = 21.5347
	minimum = 7
	maximum = 65
Network latency average = 21.5335
	minimum = 7
	maximum = 65
Slowest packet = 86397
Flit latency average = 21.5378
	minimum = 7
	maximum = 65
Slowest flit = 86397
Fragmentation average = 0
	minimum = 0
	maximum = 0
Injected packet rate average = 0.0984375
	minimum = 0.084 (at node 0)
	maximum = 0.111 (at node 12)
Accepted packet rate average = 0.09925
	minimum = 0.085 (at node 8)
	maximum = 0.116 (at node 14)
Injected flit rate average = 0.0984375
	minimum = 0.084 (at node 0)
	maximum = 0.111 (at node 12)
Accepted flit rate average= 0.09925
	minimum = 0.085 (at node 8)
	maximum = 0.116 (at node 14)
Injected packet length average = 1
Accepted packet length average = 1
Total in-flight flits = 21 (21 measured)
latency change    = 0.0659828
throughput change = 0.034005
Class 0:
Packet latency average = 22.0327
	minimum = 7
	maximum = 67
Network latency average = 22.0298
	minimum = 7
	maximum = 67
Slowest packet = 87916
Flit latency average = 22.0266
	minimum = 7
	maximum = 67
Slowest flit = 87916
Fragmentation average = 0
	minimum = 0
	maximum = 0
Injected packet rate average = 0.098625
	minimum = 0.09 (at node 1)
	maximum = 0.113 (at node 12)
Accepted packet rate average = 0.0985313
	minimum = 0.087 (at node 15)
	maximum = 0.114 (at node 13)
Injected flit rate average = 0.098625
	minimum = 0.09 (at node 1)
	maximum = 0.113 (at node 12)
Accepted flit rate average= 0.0985313
	minimum = 0.087 (at node 15)
	maximum = 0.114 (at node 13)
Injected packet length average = 1
Accepted packet length average = 1
Total in-flight flits = 37 (37 measured)
latency change    = 0.0226007
throughput change = 0.00729464
Class 0:
Packet latency average = 22.0523
	minimum = 7
	maximum = 67
Network latency average = 22.0446
	minimum = 7
	maximum = 67
Slowest packet = 87916
Flit latency average = 22.0424
	minimum = 7
	maximum = 67
Slowest flit = 87916
Fragmentation average = 0
	minimum = 0
	maximum = 0
Injected packet rate average = 0.0983125
	minimum = 0.0873333 (at node 0)
	maximum = 0.106667 (at node 12)
Accepted packet rate average = 0.0983333
	minimum = 0.093 (at node 11)
	maximum = 0.108333 (at node 13)
Injected flit rate average = 0.0983125
	minimum = 0.0873333 (at node 0)
	maximum = 0.106667 (at node 12)
Accepted flit rate average= 0.0983333
	minimum = 0.093 (at node 11)
	maximum = 0.108333 (at node 13)
Injected packet length average = 1
Accepted packet length average = 1
Total in-flight flits = 33 (33 measured)
latency change    = 0.000887917
throughput change = 0.00201271
Class 0:
Packet latency average = 22.1996
	minimum = 7
	maximum = 67
Network latency average = 22.1749
	minimum = 7
	maximum = 67
Slowest packet = 87916
Flit latency average = 22.1725
	minimum = 7
	maximum = 67
Slowest flit = 87916
Fragmentation average = 0
	minimum = 0
	maximum = 0
Injected packet rate average = 0.0986875
	minimum = 0.0895 (at node 0)
	maximum = 0.10575 (at node 14)
Accepted packet rate average = 0.0985469
	minimum = 0.091 (at node 11)
	maximum = 0.10825 (at node 2)
Injected flit rate average = 0.0986875
	minimum = 0.0895 (at node 0)
	maximum = 0.10575 (at node 14)
Accepted flit rate average= 0.0985469
	minimum = 0.091 (at node 11)
	maximum = 0.10825 (at node 2)
Injected packet length average = 1
Accepted packet length average = 1
Total in-flight flits = 44 (44 measured)
latency change    = 0.00663535
throughput change = 0.0021669
Draining all recorded packets ...
Draining remaining packets ...
Time taken is 7080 cycles
Class 0:
Packet latency average = 22.1481
	minimum = 7
	maximum = 65
Network latency average = 22.1468
	minimum = 7
	maximum = 65
Slowest packet = 92453
Flit latency average = 22.1468
	minimum = 7
	maximum = 65
Slowest flit = 92453
Fragmentation average = 0
	minimum = 0
	maximum = 0
Injected packet rate average = 0.09925
	minimum = 0.085 (at node 2)
	maximum = 0.111 (at node 5)
Accepted packet rate average = 0.096625
	minimum = 0.088 (at node 2)
	maximum = 0.113 (at node 1)
Injected flit rate average = 0.09925
	minimum = 0.085 (at node 2)
	maximum = 0.111 (at node 5)
Accepted flit rate average= 0.096625
	minimum = 0.088 (at node 2)
	maximum = 0.113 (at node 1)
Injected packet length average = 1
Accepted packet length average = 1
Total in-flight flits = 42 (0 measured)
latency change    = 1
throughput change = 1
Class 0:
Packet latency average = 22.1511
	minimum = 7
	maximum = 72
Network latency average = 22.1424
	minimum = 7
	maximum = 72
Slowest packet = 94187
Flit latency average = 22.1424
	minimum = 7
	maximum = 72
Slowest flit = 94187
Fragmentation average = 0
	minimum = 0
	maximum = 0
Injected packet rate average = 0.0984375
	minimum = 0.092 (at node 9)
	maximum = 0.1095 (at node 5)
Accepted packet rate average = 0.0974375
	minimum = 0.089 (at node 13)
	maximum = 0.1045 (at node 3)
Injected flit rate average = 0.0984375
	minimum = 0.092 (at node 9)
	maximum = 0.1095 (at node 5)
Accepted flit rate average= 0.0974375
	minimum = 0.089 (at node 13)
	maximum = 0.1045 (at node 3)
Injected packet length average = 1
Accepted packet length average = 1
Total in-flight flits = 32 (0 measured)
latency change    = 0.000132462
throughput change = 0.00833868
Class 0:
Packet latency average = 22.7484
	minimum = 7
	maximum = 93
Network latency average = 22.7414
	minimum = 7
	maximum = 93
Slowest packet = 95531
Flit latency average = 22.7414
	minimum = 7
	maximum = 93
Slowest flit = 95531
Fragmentation average = 0
	minimum = 0
	maximum = 0
Injected packet rate average = 0.098125
	minimum = 0.082 (at node 1)
	maximum = 0.118 (at node 6)
Accepted packet rate average = 0.097875
	minimum = 0.068 (at node 14)
	maximum = 0.117 (at node 5)
Injected flit rate average = 0.098125
	minimum = 0.082 (at node 1)
	maximum = 0.118 (at node 6)
Accepted flit rate average= 0.097875
	minimum = 0.068 (at node 14)
	maximum = 0.117 (at node 5)
Injected packet length average = 1
Accepted packet length average = 1
Total in-flight flits = 36 (0 measured)
latency change    = 0.0262588
throughput change = 0.00446999
Warmed up ...Time used is 3000 cycles
Class 0:
Packet latency average = 22.8092
	minimum = 7
	maximum = 106
Network latency average = 22.6561
	minimum = 7
	maximum = 86
Slowest packet = 97577
Flit latency average = 22.7819
	minimum = 7
	maximum = 86
Slowest flit = 97718
Fragmentation average = 0
	minimum = 0
	maximum = 0
Injected packet rate average = 0.098375
	minimum = 0.076 (at node 14)
	maximum = 0.123 (at node 3)
Accepted packet rate average = 0.0985625
	minimum = 0.084 (at node 5)
	maximum = 0.123 (at node 1)
Injected flit rate average = 0.098375
	minimum = 0.076 (at node 14)
	maximum = 0.123 (at node 3)
Accepted flit rate average= 0.0985625
	minimum = 0.084 (at node 5)
	maximum = 0.123 (at node 1)
Injected packet length average = 1
Accepted packet length average = 1
Total in-flight flits = 33 (33 measured)
latency change    = 0.00266608
throughput change = 0.00697527
Class 0:
Packet latency average = 22.68
	minimum = 7
	maximum = 106
Network latency average = 22.593
	minimum = 7
	maximum = 86
Slowest packet = 97577
Flit latency average = 22.6564
	minimum = 7
	maximum = 86
Slowest flit = 97718
Fragmentation average = 0
	minimum = 0
	maximum = 0
Injected packet rate average = 0.0990313
	minimum = 0.0805 (at node 5)
	maximum = 0.115 (at node 6)
Accepted packet rate average = 0.098875
	minimum = 0.0875 (at node 5)
	maximum = 0.1075 (at node 1)
Injected flit rate average = 0.0990313
	minimum = 0.0805 (at node 5)
	maximum = 0.115 (at node 6)
Accepted flit rate average= 0.098875
	minimum = 0.0875 (at node 5)
	maximum = 0.1075 (at node 1)
Injected packet length average = 1
Accepted packet length average = 1
Total in-flight flits = 41 (41 measured)
latency change    = 0.00569787
throughput change = 0.00316056
Class 0:
Packet latency average = 22.5787
	minimum = 7
	maximum = 106
Network latency average = 22.5208
	minimum = 7
	maximum = 86
Slowest packet = 97577
Flit latency average = 22.563
	minimum = 7
	maximum = 86
Slowest flit = 97718
Fragmentation average = 0
	minimum = 0
	maximum = 0
Injected packet rate average = 0.100396
	minimum = 0.0883333 (at node 5)
	maximum = 0.111333 (at node 6)
Accepted packet rate average = 0.100354
	minimum = 0.0923333 (at node 5)
	maximum = 0.107 (at node 10)
Injected flit rate average = 0.100396
	minimum = 0.0883333 (at node 5)
	maximum = 0.111333 (at node 6)
Accepted flit rate average= 0.100354
	minimum = 0.0923333 (at node 5)
	maximum = 0.107 (at node 10)
Injected packet length average = 1
Accepted packet length average = 1
Total in-flight flits = 38 (38 measured)
latency change    = 0.00448377
throughput change = 0.0147395
Draining all recorded packets ...
Draining remaining packets ...
Time taken is 6093 cycles
Class 0:
Packet latency average = 22.6105
	minimum = 7
	maximum = 89
Network latency average = 22.5934
	minimum = 7
	maximum = 83
Slowest packet = 102598
Flit latency average = 22.5934
	minimum = 7
	maximum = 83
Slowest flit = 102598
Fragmentation average = 0
	minimum = 0
	maximum = 0
Injected packet rate average = 0.101062
	minimum = 0.077 (at node 5)
	maximum = 0.117 (at node 7)
Accepted packet rate average = 0.098375
	minimum = 0.084 (at node 7)
	maximum = 0.114 (at node 10)
Injected flit rate average = 0.101062
	minimum = 0.077 (at node 5)
	maximum = 0.117 (at node 7)
Accepted flit rate average= 0.098375
	minimum = 0.084 (at node 7)
	maximum = 0.114 (at node 10)
Injected packet length average = 1
Accepted packet length average = 1
Total in-flight flits = 43 (0 measured)
latency change    = 1
throughput change = 1
Class 0:
Packet latency average = 22.673
	minimum = 7
	maximum = 89
Network latency average = 22.6622
	minimum = 7
	maximum = 83
Slowest packet = 102598
Flit latency average = 22.6622
	minimum = 7
	maximum = 83
Slowest flit = 102598
Fragmentation average = 0
	minimum = 0
	maximum = 0
Injected packet rate average = 0.0994687
	minimum = 0.085 (at node 5)
	maximum = 0.112 (at node 7)
Accepted packet rate average = 0.0984375
	minimum = 0.0845 (at node 8)
	maximum = 0.121 (at node 10)
Injected flit rate average = 0.0994687
	minimum = 0.085 (at node 5)
	maximum = 0.112 (at node 7)
Accepted flit rate average= 0.0984375
	minimum = 0.0845 (at node 8)
	maximum = 0.121 (at node 10)
Injected packet length average = 1
Accepted packet length average = 1
Total in-flight flits = 33 (0 measured)
latency change    = 0.00275524
throughput change = 0.000634921
Class 0:
Packet latency average = 22.4745
	minimum = 7
	maximum = 83
Network latency average = 22.463
	minimum = 7
	maximum = 83
Slowest packet = 105706
Flit latency average = 22.463
	minimum = 7
	maximum = 83
Slowest flit = 105706
Fragmentation average = 0
	minimum = 0
	maximum = 0
Injected packet rate average = 0.0978125
	minimum = 0.083 (at node 10)
	maximum = 0.114 (at node 6)
Accepted packet rate average = 0.097875
	minimum = 0.079 (at node 7)
	maximum = 0.119 (at node 14)
Injected flit rate average = 0.0978125
	minimum = 0.083 (at node 10)
	maximum = 0.114 (at node 6)
Accepted flit rate average= 0.097875
	minimum = 0.079 (at node 7)
	maximum = 0.119 (at node 14)
Injected packet length average = 1
Accepted packet length average = 1
Total in-flight flits = 32 (0 measured)
latency change    = 0.00883486
throughput change = 0.00574713
Warmed up ...Time used is 3000 cycles
Class 0:
Packet latency average = 22.1905
	minimum = 7
	maximum = 72
Network latency average = 22.1842
	minimum = 7
	maximum = 72
Slowest packet = 107609
Flit latency average = 22.2193
	minimum = 7
	maximum = 72
Slowest flit = 107609
Fragmentation average = 0
	minimum = 0
	maximum = 0
Injected packet rate average = 0.10175
	minimum = 0.084 (at node 15)
	maximum = 0.115 (at node 5)
Accepted packet rate average = 0.10175
	minimum = 0.087 (at node 6)
	maximum = 0.116 (at node 3)
Injected flit rate average = 0.10175
	minimum = 0.084 (at node 15)
	maximum = 0.115 (at node 5)
Accepted flit rate average= 0.10175
	minimum = 0.087 (at node 6)
	maximum = 0.116 (at node 3)
Injected packet length average = 1
Accepted packet length average = 1
Total in-flight flits = 32 (32 measured)
latency change    = 0.0127974
throughput change = 0.0380835
Class 0:
Packet latency average = 22.9171
	minimum = 7
	maximum = 126
Network latency average = 22.8076
	minimum = 7
	maximum = 126
Slowest packet = 108102
Flit latency average = 22.8191
	minimum = 7
	maximum = 126
Slowest flit = 108102
Fragmentation average = 0
	minimum = 0
	maximum = 0
Injected packet rate average = 0.101
	minimum = 0.0885 (at node 15)
	maximum = 0.1095 (at node 11)
Accepted packet rate average = 0.100875
	minimum = 0.089 (at node 15)
	maximum = 0.1135 (at node 9)
Injected flit rate average = 0.101
	minimum = 0.0885 (at node 15)
	maximum = 0.1095 (at node 11)
Accepted flit rate average= 0.100875
	minimum = 0.089 (at node 15)
	maximum = 0.1135 (at node 9)
Injected packet length average = 1
Accepted packet length average = 1
Total in-flight flits = 36 (36 measured)
latency change    = 0.0317059
throughput change = 0.0086741
Class 0:
Packet latency average = 22.4647
	minimum = 7
	maximum = 126
Network latency average = 22.3887
	minimum = 7
	maximum = 126
Slowest packet = 108102
Flit latency average = 22.3992
	minimum = 7
	maximum = 126
Slowest flit = 108102
Fragmentation average = 0
	minimum = 0
	maximum = 0
Injected packet rate average = 0.0999167
	minimum = 0.0926667 (at node 14)
	maximum = 0.106667 (at node 12)
Accepted packet rate average = 0.099875
	minimum = 0.09 (at node 15)
	maximum = 0.110333 (at node 8)
Injected flit rate average = 0.0999167
	minimum = 0.0926667 (at node 14)
	maximum = 0.106667 (at node 12)
Accepted flit rate average= 0.099875
	minimum = 0.09 (at node 15)
	maximum = 0.110333 (at node 8)
Injected packet length average = 1
Accepted packet length average = 1
Total in-flight flits = 34 (34 measured)
latency change    = 0.0201366
throughput change = 0.0100125
Draining all recorded packets ...
Draining remaining packets ...
Time taken is 6074 cycles
Class 0:
Packet latency average = 22.2747
	minimum = 7
	maximum = 109
Network latency average = 22.2473
	minimum = 7
	maximum = 109
Slowest packet = 111362
Flit latency average = 22.2473
	minimum = 7
	maximum = 109
Slowest flit = 111362
Fragmentation average = 0
	minimum = 0
	maximum = 0
Injected packet rate average = 0.100437
	minimum = 0.086 (at node 15)
	maximum = 0.115 (at node 11)
Accepted packet rate average = 0.0980625
	minimum = 0.088 (at node 0)
	maximum = 0.112 (at node 8)
Injected flit rate average = 0.100437
	minimum = 0.086 (at node 15)
	maximum = 0.115 (at node 11)
Accepted flit rate average= 0.0980625
	minimum = 0.088 (at node 0)
	maximum = 0.112 (at node 8)
Injected packet length average = 1
Accepted packet length average = 1
Total in-flight flits = 38 (0 measured)
latency change    = 1
throughput change = 1
Class 0:
Packet latency average = 22.9984
	minimum = 7
	maximum = 109
Network latency average = 22.9753
	minimum = 7
	maximum = 109
Slowest packet = 111362
Flit latency average = 22.9753
	minimum = 7
	maximum = 109
Slowest flit = 111362
Fragmentation average = 0
	minimum = 0
	maximum = 0
Injected packet rate average = 0.101031
	minimum = 0.0875 (at node 8)
	maximum = 0.1075 (at node 1)
Accepted packet rate average = 0.0997813
	minimum = 0.093 (at node 9)
	maximum = 0.1065 (at node 8)
Injected flit rate average = 0.101031
	minimum = 0.0875 (at node 8)
	maximum = 0.1075 (at node 1)
Accepted flit rate average= 0.0997813
	minimum = 0.093 (at node 9)
	maximum = 0.1065 (at node 8)
Injected packet length average = 1
Accepted packet length average = 1
Total in-flight flits = 40 (0 measured)
latency change    = 0.031469
throughput change = 0.0172252
Class 0:
Packet latency average = 22.1761
	minimum = 7
	maximum = 63
Network latency average = 22.1711
	minimum = 7
	maximum = 63
Slowest packet = 114924
Flit latency average = 22.1711
	minimum = 7
	maximum = 63
Slowest flit = 114924
Fragmentation average = 0
	minimum = 0
	maximum = 0
Injected packet rate average = 0.099375
	minimum = 0.078 (at node 10)
	maximum = 0.115 (at node 9)
Accepted packet rate average = 0.100062
	minimum = 0.084 (at node 5)
	maximum = 0.112 (at node 2)
Injected flit rate average = 0.099375
	minimum = 0.078 (at node 10)
	maximum = 0.115 (at node 9)
Accepted flit rate average= 0.100062
	minimum = 0.084 (at node 5)
	maximum = 0.112 (at node 2)
Injected packet length average = 1
Accepted packet length average = 1
Total in-flight flits = 29 (0 measured)
latency change    = 0.0370801
throughput change = 0.00281074
Warmed up ...Time used is 3000 cycles
Class 0:
Packet latency average = 22.6639
	minimum = 7
	maximum = 67
Network latency average = 22.6211
	minimum = 7
	maximum = 67
Slowest packet = 117616
Flit latency average = 22.7065
	minimum = 7
	maximum = 67
Slowest flit = 117616
Fragmentation average = 0
	minimum = 0
	maximum = 0
Injected packet rate average = 0.101437
	minimum = 0.093 (at node 3)
	maximum = 0.113 (at node 4)
Accepted packet rate average = 0.100937
	minimum = 0.081 (at node 15)
	maximum = 0.123 (at node 13)
Injected flit rate average = 0.101437
	minimum = 0.093 (at node 3)
	maximum = 0.113 (at node 4)
Accepted flit rate average= 0.100937
	minimum = 0.081 (at node 15)
	maximum = 0.123 (at node 13)
Injected packet length average = 1
Accepted packet length average = 1
Total in-flight flits = 37 (37 measured)
latency change    = 0.0215229
throughput change = 0.00866873
Class 0:
Packet latency average = 22.2448
	minimum = 7
	maximum = 67
Network latency average = 22.2203
	minimum = 7
	maximum = 67
Slowest packet = 117616
Flit latency average = 22.2663
	minimum = 7
	maximum = 67
Slowest flit = 117616
Fragmentation average = 0
	minimum = 0
	maximum = 0
Injected packet rate average = 0.102219
	minimum = 0.0935 (at node 6)
	maximum = 0.1105 (at node 4)
Accepted packet rate average = 0.10175
	minimum = 0.092 (at node 4)
	maximum = 0.1175 (at node 3)
Injected flit rate average = 0.102219
	minimum = 0.0935 (at node 6)
	maximum = 0.1105 (at node 4)
Accepted flit rate average= 0.10175
	minimum = 0.092 (at node 4)
	maximum = 0.1175 (at node 3)
Injected packet length average = 1
Accepted packet length average = 1
Total in-flight flits = 44 (44 measured)
latency change    = 0.0188415
throughput change = 0.00798526
Class 0:
Packet latency average = 22.2602
	minimum = 7
	maximum = 67
Network latency average = 22.2415
	minimum = 7
	maximum = 67
Slowest packet = 117616
Flit latency average = 22.2723
	minimum = 7
	maximum = 67
Slowest flit = 117616
Fragmentation average = 0
	minimum = 0
	maximum = 0
Injected packet rate average = 0.100979
	minimum = 0.095 (at node 3)
	maximum = 0.109 (at node 0)
Accepted packet rate average = 0.101
	minimum = 0.0916667 (at node 1)
	maximum = 0.109667 (at node 3)
Injected flit rate average = 0.100979
	minimum = 0.095 (at node 3)
	maximum = 0.109 (at node 0)
Accepted flit rate average= 0.101
	minimum = 0.0916667 (at node 1)
	maximum = 0.109667 (at node 3)
Injected packet length average = 1
Accepted packet length average = 1
Total in-flight flits = 28 (28 measured)
latency change    = 0.000692291
throughput change = 0.00742574
Draining all recorded packets ...
Draining remaining packets ...
Time taken is 6072 cycles
Class 0:
Packet latency average = 22.0485
	minimum = 7
	maximum = 68
Network latency average = 22.0452
	minimum = 7
	maximum = 68
Slowest packet = 121394
Flit latency average = 22.0452
	minimum = 7
	maximum = 68
Slowest flit = 121394
Fragmentation average = 0
	minimum = 0
	maximum = 0
Injected packet rate average = 0.0964375
	minimum = 0.082 (at node 4)
	maximum = 0.111 (at node 0)
Accepted packet rate average = 0.094125
	minimum = 0.075 (at node 12)
	maximum = 0.114 (at node 6)
Injected flit rate average = 0.0964375
	minimum = 0.082 (at node 4)
	maximum = 0.111 (at node 0)
Accepted flit rate average= 0.094125
	minimum = 0.075 (at node 12)
	maximum = 0.114 (at node 6)
Injected packet length average = 1
Accepted packet length average = 1
Total in-flight flits = 37 (0 measured)
latency change    = 1
throughput change = 1
Class 0:
Packet latency average = 22.0966
	minimum = 7
	maximum = 77
Network latency average = 22.0838
	minimum = 7
	maximum = 75
Slowest packet = 122539
Flit latency average = 22.0838
	minimum = 7
	maximum = 75
Slowest flit = 122539
Fragmentation average = 0
	minimum = 0
	maximum = 0
Injected packet rate average = 0.0994687
	minimum = 0.0815 (at node 3)
	maximum = 0.116 (at node 1)
Accepted packet rate average = 0.0980313
	minimum = 0.0875 (at node 12)
	maximum = 0.1085 (at node 15)
Injected flit rate average = 0.0994687
	minimum = 0.0815 (at node 3)
	maximum = 0.116 (at node 1)
Accepted flit rate average= 0.0980313
	minimum = 0.0875 (at node 12)
	maximum = 0.1085 (at node 15)
Injected packet length average = 1
Accepted packet length average = 1
Total in-flight flits = 46 (0 measured)
latency change    = 0.00217755
throughput change = 0.039847
Class 0:
Packet latency average = 23.5129
	minimum = 7
	maximum = 86
Network latency average = 23.4638
	minimum = 7
	maximum = 86
Slowest packet = 124620
Flit latency average = 23.4638
	minimum = 7
	maximum = 86
Slowest flit = 124620
Fragmentation average = 0
	minimum = 0
	maximum = 0
Injected packet rate average = 0.104063
	minimum = 0.089 (at node 8)
	maximum = 0.12 (at node 5)
Accepted packet rate average = 0.104563
	minimum = 0.089 (at node 10)
	maximum = 0.12 (at node 4)
Injected flit rate average = 0.104063
	minimum = 0.089 (at node 8)
	maximum = 0.12 (at node 5)
Accepted flit rate average= 0.104563
	minimum = 0.089 (at node 10)
	maximum = 0.12 (at node 4)
Injected packet length average = 1
Accepted packet length average = 1
Total in-flight flits = 38 (0 measured)
latency change    = 0.0602335
throughput change = 0.0624626
Warmed up ...Time used is 3000 cycles
Class 0:
Packet latency average = 21.6521
	minimum = 7
	maximum = 62
Network latency average = 21.6462
	minimum = 7
	maximum = 62
Slowest packet = 126645
Flit latency average = 21.7832
	minimum = 7
	maximum = 62
Slowest flit = 126645
Fragmentation average = 0
	minimum = 0
	maximum = 0
Injected packet rate average = 0.0975625
	minimum = 0.077 (at node 6)
	maximum = 0.116 (at node 7)
Accepted packet rate average = 0.096875
	minimum = 0.073 (at node 5)
	maximum = 0.109 (at node 7)
Injected flit rate average = 0.0975625
	minimum = 0.077 (at node 6)
	maximum = 0.116 (at node 7)
Accepted flit rate average= 0.096875
	minimum = 0.073 (at node 5)
	maximum = 0.109 (at node 7)
Injected packet length average = 1
Accepted packet length average = 1
Total in-flight flits = 49 (49 measured)
latency change    = 0.0859378
throughput change = 0.0793548
Class 0:
Packet latency average = 22.3427
	minimum = 7
	maximum = 87
Network latency average = 22.2987
	minimum = 7
	maximum = 87
Slowest packet = 128692
Flit latency average = 22.3569
	minimum = 7
	maximum = 87
Slowest flit = 128692
Fragmentation average = 0
	minimum = 0
	maximum = 0
Injected packet rate average = 0.100875
	minimum = 0.084 (at node 6)
	maximum = 0.1105 (at node 14)
Accepted packet rate average = 0.100687
	minimum = 0.087 (at node 5)
	maximum = 0.111 (at node 1)
Injected flit rate average = 0.100875
	minimum = 0.084 (at node 6)
	maximum = 0.1105 (at node 14)
Accepted flit rate average= 0.100687
	minimum = 0.087 (at node 5)
	maximum = 0.111 (at node 1)
Injected packet length average = 1
Accepted packet length average = 1
Total in-flight flits = 44 (44 measured)
latency change    = 0.0309066
throughput change = 0.0378647
Class 0:
Packet latency average = 22.4811
	minimum = 7
	maximum = 94
Network latency average = 22.4186
	minimum = 7
	maximum = 94
Slowest packet = 130124
Flit latency average = 22.4565
	minimum = 7
	maximum = 94
Slowest flit = 130124
Fragmentation average = 0
	minimum = 0
	maximum = 0
Injected packet rate average = 0.1005
	minimum = 0.094 (at node 6)
	maximum = 0.109667 (at node 14)
Accepted packet rate average = 0.100771
	minimum = 0.0943333 (at node 4)
	maximum = 0.114667 (at node 1)
Injected flit rate average = 0.1005
	minimum = 0.094 (at node 6)
	maximum = 0.109667 (at node 14)
Accepted flit rate average= 0.100771
	minimum = 0.0943333 (at node 4)
	maximum = 0.114667 (at node 1)
Injected packet length average = 1
Accepted packet length average = 1
Total in-flight flits = 25 (25 measured)
latency change    = 0.00616033
throughput change = 0.000826959
Class 0:
Packet latency average = 22.3225
	minimum = 7
	maximum = 94
Network latency average = 22.2702
	minimum = 7
	maximum = 94
Slowest packet = 130124
Flit latency average = 22.2997
	minimum = 7
	maximum = 94
Slowest flit = 130124
Fragmentation average = 0
	minimum = 0
	maximum = 0
Injected packet rate average = 0.0999531
	minimum = 0.08875 (at node 6)
	maximum = 0.107 (at node 13)
Accepted packet rate average = 0.0999531
	minimum = 0.0945 (at node 3)
	maximum = 0.113 (at node 1)
Injected flit rate average = 0.0999531
	minimum = 0.08875 (at node 6)
	maximum = 0.107 (at node 13)
Accepted flit rate average= 0.0999531
	minimum = 0.0945 (at node 3)
	maximum = 0.113 (at node 1)
Injected packet length average = 1
Accepted packet length average = 1
Total in-flight flits = 38 (38 measured)
latency change    = 0.00710524
throughput change = 0.00818092
Draining all recorded packets ...
Draining remaining packets ...
Time taken is 7066 cycles
Class 0:
Packet latency average = 23.0564
	minimum = 7
	maximum = 76
Network latency average = 23.0279
	minimum = 7
	maximum = 76
Slowest packet = 133526
Flit latency average = 23.0279
	minimum = 7
	maximum = 76
Slowest flit = 133526
Fragmentation average = 0
	minimum = 0
	maximum = 0
Injected packet rate average = 0.100437
	minimum = 0.09 (at node 0)
	maximum = 0.112 (at node 11)
Accepted packet rate average = 0.0985625
	minimum = 0.085 (at node 15)
	maximum = 0.11 (at node 1)
Injected flit rate average = 0.100437
	minimum = 0.09 (at node 0)
	maximum = 0.112 (at node 11)
Accepted flit rate average= 0.0985625
	minimum = 0.085 (at node 15)
	maximum = 0.11 (at node 1)
Injected packet length average = 1
Accepted packet length average = 1
Total in-flight flits = 30 (0 measured)
latency change    = 1
throughput change = 1
Class 0:
Packet latency average = 23.301
	minimum = 7
	maximum = 123
Network latency average = 23.0895
	minimum = 7
	maximum = 121
Slowest packet = 134196
Flit latency average = 23.0895
	minimum = 7
	maximum = 121
Slowest flit = 134196
Fragmentation average = 0
	minimum = 0
	maximum = 0
Injected packet rate average = 0.102813
	minimum = 0.089 (at node 0)
	maximum = 0.1135 (at node 11)
Accepted packet rate average = 0.101219
	minimum = 0.092 (at node 8)
	maximum = 0.1105 (at node 13)
Injected flit rate average = 0.102813
	minimum = 0.089 (at node 0)
	maximum = 0.1135 (at node 11)
Accepted flit rate average= 0.101219
	minimum = 0.092 (at node 8)
	maximum = 0.1105 (at node 13)
Injected packet length average = 1
Accepted packet length average = 1
Total in-flight flits = 52 (0 measured)
latency change    = 0.0104966
throughput change = 0.0262427
Class 0:
Packet latency average = 23.4477
	minimum = 7
	maximum = 89
Network latency average = 23.326
	minimum = 7
	maximum = 89
Slowest packet = 136426
Flit latency average = 23.326
	minimum = 7
	maximum = 89
Slowest flit = 136426
Fragmentation average = 0
	minimum = 0
	maximum = 0
Injected packet rate average = 0.101938
	minimum = 0.082 (at node 4)
	maximum = 0.122 (at node 6)
Accepted packet rate average = 0.102188
	minimum = 0.084 (at node 12)
	maximum = 0.124 (at node 0)
Injected flit rate average = 0.101938
	minimum = 0.082 (at node 4)
	maximum = 0.122 (at node 6)
Accepted flit rate average= 0.102188
	minimum = 0.084 (at node 12)
	maximum = 0.124 (at node 0)
Injected packet length average = 1
Accepted packet length average = 1
Total in-flight flits = 48 (0 measured)
latency change    = 0.00625595
throughput change = 0.00948012
Warmed up ...Time used is 3000 cycles
Class 0:
Packet latency average = 22.3145
	minimum = 7
	maximum = 81
Network latency average = 22.2443
	minimum = 7
	maximum = 81
Slowest packet = 138670
Flit latency average = 22.5028
	minimum = 7
	maximum = 81
Slowest flit = 138670
Fragmentation average = 0
	minimum = 0
	maximum = 0
Injected packet rate average = 0.098875
	minimum = 0.085 (at node 4)
	maximum = 0.124 (at node 6)
Accepted packet rate average = 0.0991875
	minimum = 0.086 (at node 0)
	maximum = 0.12 (at node 7)
Injected flit rate average = 0.098875
	minimum = 0.085 (at node 4)
	maximum = 0.124 (at node 6)
Accepted flit rate average= 0.0991875
	minimum = 0.086 (at node 0)
	maximum = 0.12 (at node 7)
Injected packet length average = 1
Accepted packet length average = 1
Total in-flight flits = 42 (42 measured)
latency change    = 0.0507839
throughput change = 0.0302457
Class 0:
Packet latency average = 22.5434
	minimum = 7
	maximum = 114
Network latency average = 22.414
	minimum = 7
	maximum = 109
Slowest packet = 138677
Flit latency average = 22.5409
	minimum = 7
	maximum = 109
Slowest flit = 138677
Fragmentation average = 0
	minimum = 0
	maximum = 0
Injected packet rate average = 0.099125
	minimum = 0.0895 (at node 7)
	maximum = 0.1075 (at node 9)
Accepted packet rate average = 0.0990313
	minimum = 0.089 (at node 5)
	maximum = 0.1135 (at node 13)
Injected flit rate average = 0.099125
	minimum = 0.0895 (at node 7)
	maximum = 0.1075 (at node 9)
Accepted flit rate average= 0.0990313
	minimum = 0.089 (at node 5)
	maximum = 0.1135 (at node 13)
Injected packet length average = 1
Accepted packet length average = 1
Total in-flight flits = 50 (50 measured)
latency change    = 0.0101549
throughput change = 0.00157778
Class 0:
Packet latency average = 22.5627
	minimum = 7
	maximum = 114
Network latency average = 22.473
	minimum = 7
	maximum = 109
Slowest packet = 138677
Flit latency average = 22.5561
	minimum = 7
	maximum = 109
Slowest flit = 138677
Fragmentation average = 0
	minimum = 0
	maximum = 0
Injected packet rate average = 0.100021
	minimum = 0.0916667 (at node 7)
	maximum = 0.111333 (at node 6)
Accepted packet rate average = 0.100104
	minimum = 0.0873333 (at node 5)
	maximum = 0.110667 (at node 13)
Injected flit rate average = 0.100021
	minimum = 0.0916667 (at node 7)
	maximum = 0.111333 (at node 6)
Accepted flit rate average= 0.100104
	minimum = 0.0873333 (at node 5)
	maximum = 0.110667 (at node 13)
Injected packet length average = 1
Accepted packet length average = 1
Total in-flight flits = 43 (43 measured)
latency change    = 0.000856902
throughput change = 0.010718
Class 0:
Packet latency average = 22.4174
	minimum = 7
	maximum = 114
Network latency average = 22.3491
	minimum = 7
	maximum = 109
Slowest packet = 138677
Flit latency average = 22.4124
	minimum = 7
	maximum = 109
Slowest flit = 138677
Fragmentation average = 0
	minimum = 0
	maximum = 0
Injected packet rate average = 0.099875
	minimum = 0.09325 (at node 7)
	maximum = 0.106 (at node 6)
Accepted packet rate average = 0.100109
	minimum = 0.087 (at node 8)
	maximum = 0.10875 (at node 13)
Injected flit rate average = 0.099875
	minimum = 0.09325 (at node 7)
	maximum = 0.106 (at node 6)
Accepted flit rate average= 0.100109
	minimum = 0.087 (at node 8)
	maximum = 0.10875 (at node 13)
Injected packet length average = 1
Accepted packet length average = 1
Total in-flight flits = 32 (32 measured)
latency change    = 0.00648553
throughput change = 5.20264e-05
Draining all recorded packets ...
Draining remaining packets ...
Time taken is 7065 cycles
Class 0:
Packet latency average = 22.1115
	minimum = 7
	maximum = 61
Network latency average = 22.0954
	minimum = 7
	maximum = 61
Slowest packet = 144137
Flit latency average = 22.0954
	minimum = 7
	maximum = 61
Slowest flit = 144137
Fragmentation average = 0
	minimum = 0
	maximum = 0
Injected packet rate average = 0.0991875
	minimum = 0.088 (at node 0)
	maximum = 0.112 (at node 1)
Accepted packet rate average = 0.097
	minimum = 0.079 (at node 6)
	maximum = 0.111 (at node 8)
Injected flit rate average = 0.0991875
	minimum = 0.088 (at node 0)
	maximum = 0.112 (at node 1)
Accepted flit rate average= 0.097
	minimum = 0.079 (at node 6)
	maximum = 0.111 (at node 8)
Injected packet length average = 1
Accepted packet length average = 1
Total in-flight flits = 35 (0 measured)
latency change    = 1
throughput change = 1
Class 0:
Packet latency average = 22.4618
	minimum = 7
	maximum = 80
Network latency average = 22.4387
	minimum = 7
	maximum = 80
Slowest packet = 146210
Flit latency average = 22.4387
	minimum = 7
	maximum = 80
Slowest flit = 146210
Fragmentation average = 0
	minimum = 0
	maximum = 0
Injected packet rate average = 0.0995
	minimum = 0.0875 (at node 11)
	maximum = 0.111 (at node 1)
Accepted packet rate average = 0.0986563
	minimum = 0.086 (at node 9)
	maximum = 0.107 (at node 8)
Injected flit rate average = 0.0995
	minimum = 0.0875 (at node 11)
	maximum = 0.111 (at node 1)
Accepted flit rate average= 0.0986563
	minimum = 0.086 (at node 9)
	maximum = 0.107 (at node 8)
Injected packet length average = 1
Accepted packet length average = 1
Total in-flight flits = 27 (0 measured)
latency change    = 0.0155981
throughput change = 0.0167881
Class 0:
Packet latency average = 21.6957
	minimum = 7
	maximum = 60
Network latency average = 21.6913
	minimum = 7
	maximum = 60
Slowest packet = 147015
Flit latency average = 21.6913
	minimum = 7
	maximum = 60
Slowest flit = 147015
Fragmentation average = 0
	minimum = 0
	maximum = 0
Injected packet rate average = 0.100687
	minimum = 0.09 (at node 7)
	maximum = 0.114 (at node 15)
Accepted packet rate average = 0.099625
	minimum = 0.089 (at node 2)
	maximum = 0.114 (at node 3)
[...]
	minimum = 0.087 (at node 1)
	maximum = 0.121 (at node 13)
Accepted packet rate average = 0.100937
	minimum = 0.087 (at node 6)
	maximum = 0.111 (at node 12)
Injected flit rate average = 0.10075
	minimum = 0.087 (at node 1)
	maximum = 0.121 (at node 13)
Accepted flit rate average= 0.100937
	minimum = 0.087 (at node 6)
	maximum = 0.111 (at node 12)
Injected packet length average = 1
Accepted packet length average = 1
Total in-flight flits = 27 (0 measured)
latency change    = 0.0165091
throughput change = 0.0167183
Warmed up ...Time used is 3000 cycles
Class 0:
Packet latency average = 21.9654
	minimum = 7
	maximum = 75
Network latency average = 21.9167
	minimum = 7
	maximum = 75
Slowest packet = 983969
Flit latency average = 21.8973
	minimum = 7
	maximum = 75
Slowest flit = 983969
Fragmentation average = 0
	minimum = 0
	maximum = 0
Injected packet rate average = 0.099375
	minimum = 0.085 (at node 3)
	maximum = 0.113 (at node 12)
Accepted packet rate average = 0.0991875
	minimum = 0.09 (at node 13)
	maximum = 0.111 (at node 7)
Injected flit rate average = 0.099375
	minimum = 0.085 (at node 3)
	maximum = 0.113 (at node 12)
Accepted flit rate average= 0.0991875
	minimum = 0.09 (at node 13)
	maximum = 0.111 (at node 7)
Injected packet length average = 1
Accepted packet length average = 1
Total in-flight flits = 30 (30 measured)
latency change    = 0.0111886
throughput change = 0.0176434
Class 0:
Packet latency average = 22.1681
	minimum = 7
	maximum = 77
Network latency average = 22.1316
	minimum = 7
	maximum = 77
Slowest packet = 985835
Flit latency average = 22.1202
	minimum = 7
	maximum = 77
Slowest flit = 985835
Fragmentation average = 0
	minimum = 0
	maximum = 0
Injected packet rate average = 0.100344
	minimum = 0.0895 (at node 3)
	maximum = 0.108 (at node 12)
Accepted packet rate average = 0.100094
	minimum = 0.093 (at node 4)
	maximum = 0.109 (at node 7)
Injected flit rate average = 0.100344
	minimum = 0.0895 (at node 3)
	maximum = 0.108 (at node 12)
Accepted flit rate average= 0.100094
	minimum = 0.093 (at node 4)
	maximum = 0.109 (at node 7)
Injected packet length average = 1
Accepted packet length average = 1
Total in-flight flits = 35 (35 measured)
latency change    = 0.00914607
throughput change = 0.00905401
Class 0:
Packet latency average = 22.2914
	minimum = 7
	maximum = 77
Network latency average = 22.2644
	minimum = 7
	maximum = 77
Slowest packet = 985835
Flit latency average = 22.256
	minimum = 7
	maximum = 77
Slowest flit = 985835
Fragmentation average = 0
	minimum = 0
	maximum = 0
Injected packet rate average = 0.100354
	minimum = 0.091 (at node 3)
	maximum = 0.110333 (at node 2)
Accepted packet rate average = 0.100083
	minimum = 0.092 (at node 4)
	maximum = 0.106667 (at node 0)
Injected flit rate average = 0.100354
	minimum = 0.091 (at node 3)
	maximum = 0.110333 (at node 2)
Accepted flit rate average= 0.100083
	minimum = 0.092 (at node 4)
	maximum = 0.106667 (at node 0)
Injected packet length average = 1
Accepted packet length average = 1
Total in-flight flits = 40 (40 measured)
latency change    = 0.0055295
throughput change = 0.00010408
Draining all recorded packets ...
Draining remaining packets ...
Time taken is 6089 cycles
Class 0:
Packet latency average = 24.018
	minimum = 7
	maximum = 104
Network latency average = 23.7536
	minimum = 7
	maximum = 104
Slowest packet = 988269
Flit latency average = 23.7536
	minimum = 7
	maximum = 104
Slowest flit = 988269
Fragmentation average = 0
	minimum = 0
	maximum = 0
Injected packet rate average = 0.103625
	minimum = 0.086 (at node 6)
	maximum = 0.126 (at node 1)
Accepted packet rate average = 0.100687
	minimum = 0.086 (at node 1)
	maximum = 0.116 (at node 4)
Injected flit rate average = 0.103625
	minimum = 0.086 (at node 6)
	maximum = 0.126 (at node 1)
Accepted flit rate average= 0.100687
	minimum = 0.086 (at node 1)
	maximum = 0.116 (at node 4)
Injected packet length average = 1
Accepted packet length average = 1
Total in-flight flits = 47 (0 measured)
latency change    = 1
throughput change = 1
Class 0:
Packet latency average = 23.4098
	minimum = 7
	maximum = 104
Network latency average = 23.1601
	minimum = 7
	maximum = 104
Slowest packet = 988269
Flit latency average = 23.1601
	minimum = 7
	maximum = 104
Slowest flit = 988269
Fragmentation average = 0
	minimum = 0
	maximum = 0
Injected packet rate average = 0.100687
	minimum = 0.0905 (at node 7)
	maximum = 0.1115 (at node 12)
Accepted packet rate average = 0.0999687
	minimum = 0.0885 (at node 6)
	maximum = 0.1135 (at node 15)
Injected flit rate average = 0.100687
	minimum = 0.0905 (at node 7)
	maximum = 0.1115 (at node 12)
Accepted flit rate average= 0.0999687
	minimum = 0.0885 (at node 6)
	maximum = 0.1135 (at node 15)
Injected packet length average = 1
Accepted packet length average = 1
Total in-flight flits = 23 (0 measured)
latency change    = 0.0259799
throughput change = 0.00718975
Class 0:
Packet latency average = 22.9586
	minimum = 7
	maximum = 90
Network latency average = 22.9388
	minimum = 7
	maximum = 89
Slowest packet = 992242
Flit latency average = 22.9388
	minimum = 7
	maximum = 89
Slowest flit = 992242
Fragmentation average = 0
	minimum = 0
	maximum = 0
Injected packet rate average = 0.102313
	minimum = 0.082 (at node 3)
	maximum = 0.12 (at node 15)
Accepted packet rate average = 0.101125
	minimum = 0.087 (at node 4)
	maximum = 0.111 (at node 3)
Injected flit rate average = 0.102313
	minimum = 0.082 (at node 3)
	maximum = 0.12 (at node 15)
Accepted flit rate average= 0.101125
	minimum = 0.087 (at node 4)
	maximum = 0.111 (at node 3)
Injected packet length average = 1
Accepted packet length average = 1
Total in-flight flits = 42 (0 measured)
latency change    = 0.0196539
throughput change = 0.0114339
Warmed up ...Time used is 3000 cycles
Class 0:
Packet latency average = 22.0876
	minimum = 7
	maximum = 61
Network latency average = 22.0759
	minimum = 7
	maximum = 61
Slowest packet = 993967
Flit latency average = 22.163
	minimum = 7
	maximum = 61
Slowest flit = 993967
Fragmentation average = 0
	minimum = 0
	maximum = 0
Injected packet rate average = 0.0985625
	minimum = 0.078 (at node 13)
	maximum = 0.114 (at node 3)
Accepted packet rate average = 0.0989375
	minimum = 0.082 (at node 2)
	maximum = 0.112 (at node 10)
Injected flit rate average = 0.0985625
	minimum = 0.078 (at node 13)
	maximum = 0.114 (at node 3)
Accepted flit rate average= 0.0989375
	minimum = 0.082 (at node 2)
	maximum = 0.112 (at node 10)
Injected packet length average = 1
Accepted packet length average = 1
Total in-flight flits = 36 (36 measured)
latency change    = 0.0394332
throughput change = 0.0221099
Class 0:
Packet latency average = 22.3526
	minimum = 7
	maximum = 71
Network latency average = 22.3462
	minimum = 7
	maximum = 71
Slowest packet = 995488
Flit latency average = 22.3862
	minimum = 7
	maximum = 71
Slowest flit = 995488
Fragmentation average = 0
	minimum = 0
	maximum = 0
Injected packet rate average = 0.09875
	minimum = 0.0885 (at node 7)
	maximum = 0.1075 (at node 3)
Accepted packet rate average = 0.098625
	minimum = 0.087 (at node 14)
	maximum = 0.11 (at node 0)
Injected flit rate average = 0.09875
	minimum = 0.0885 (at node 7)
	maximum = 0.1075 (at node 3)
Accepted flit rate average= 0.098625
	minimum = 0.087 (at node 14)
	maximum = 0.11 (at node 0)
Injected packet length average = 1
Accepted packet length average = 1
Total in-flight flits = 46 (46 measured)
latency change    = 0.0118553
throughput change = 0.00316857
Class 0:
Packet latency average = 22.9317
	minimum = 7
	maximum = 155
Network latency average = 22.8453
	minimum = 7
	maximum = 155
Slowest packet = 996920
Flit latency average = 22.8672
	minimum = 7
	maximum = 155
Slowest flit = 996920
Fragmentation average = 0
	minimum = 0
	maximum = 0
Injected packet rate average = 0.0998542
	minimum = 0.0926667 (at node 7)
	maximum = 0.11 (at node 10)
Accepted packet rate average = 0.100271
	minimum = 0.093 (at node 8)
	maximum = 0.108 (at node 0)
Injected flit rate average = 0.0998542
	minimum = 0.0926667 (at node 7)
	maximum = 0.11 (at node 10)
Accepted flit rate average= 0.100271
	minimum = 0.093 (at node 8)
	maximum = 0.108 (at node 0)
Injected packet length average = 1
Accepted packet length average = 1
Total in-flight flits = 22 (22 measured)
latency change    = 0.0252519
throughput change = 0.0164139
Draining all recorded packets ...
Draining remaining packets ...
Time taken is 6076 cycles
Class 0:
Packet latency average = 22.6553
	minimum = 7
	maximum = 66
Network latency average = 22.6463
	minimum = 7
	maximum = 66
Slowest packet = 998667
Flit latency average = 22.6463
	minimum = 7
	maximum = 66
Slowest flit = 998667
Fragmentation average = 0
	minimum = 0
	maximum = 0
Injected packet rate average = 0.0994375
	minimum = 0.082 (at node 13)
	maximum = 0.11 (at node 1)
Accepted packet rate average = 0.097
	minimum = 0.087 (at node 7)
	maximum = 0.112 (at node 1)
Injected flit rate average = 0.0994375
	minimum = 0.082 (at node 13)
	maximum = 0.11 (at node 1)
Accepted flit rate average= 0.097
	minimum = 0.087 (at node 7)
	maximum = 0.112 (at node 1)
Injected packet length average = 1
Accepted packet length average = 1
Total in-flight flits = 39 (0 measured)
latency change    = 1
throughput change = 1
Class 0:
Packet latency average = 22.3542
	minimum = 7
	maximum = 100
Network latency average = 22.3446
	minimum = 7
	maximum = 100
Slowest packet = 1000183
Flit latency average = 22.3446
	minimum = 7
	maximum = 100
Slowest flit = 1000183
Fragmentation average = 0
	minimum = 0
	maximum = 0
Injected packet rate average = 0.0983437
	minimum = 0.085 (at node 4)
	maximum = 0.108 (at node 9)
Accepted packet rate average = 0.097125
	minimum = 0.0865 (at node 0)
	maximum = 0.111 (at node 1)
Injected flit rate average = 0.0983437
	minimum = 0.085 (at node 4)
	maximum = 0.108 (at node 9)
Accepted flit rate average= 0.097125
	minimum = 0.0865 (at node 0)
	maximum = 0.111 (at node 1)
Injected packet length average = 1
Accepted packet length average = 1
Total in-flight flits = 39 (0 measured)
latency change    = 0.0134666
throughput change = 0.001287
Class 0:
Packet latency average = 22.91
	minimum = 7
	maximum = 66
Network latency average = 22.8107
	minimum = 7
	maximum = 66
Slowest packet = 1000904
Flit latency average = 22.8107
	minimum = 7
	maximum = 66
Slowest flit = 1000904
Fragmentation average = 0
	minimum = 0
	maximum = 0
Injected packet rate average = 0.100875
	minimum = 0.088 (at node 11)
	maximum = 0.12 (at node 9)
Accepted packet rate average = 0.100687
	minimum = 0.089 (at node 10)
	maximum = 0.114 (at node 8)
Injected flit rate average = 0.100875
	minimum = 0.088 (at node 11)
	maximum = 0.12 (at node 9)
Accepted flit rate average= 0.100687
	minimum = 0.089 (at node 10)
	maximum = 0.114 (at node 8)
Injected packet length average = 1
Accepted packet length average = 1
Total in-flight flits = 42 (0 measured)
latency change    = 0.0242578
throughput change = 0.0353818
Warmed up ...Time used is 3000 cycles
Class 0:
Packet latency average = 22.8072
	minimum = 7
	maximum = 83
Network latency average = 22.719
	minimum = 7
	maximum = 83
Slowest packet = 1002796
Flit latency average = 22.8817
	minimum = 7
	maximum = 83
Slowest flit = 1002796
Fragmentation average = 0
	minimum = 0
	maximum = 0
Injected packet rate average = 0.0981875
	minimum = 0.077 (at node 8)
	maximum = 0.116 (at node 9)
Accepted packet rate average = 0.09825
	minimum = 0.077 (at node 9)
	maximum = 0.117 (at node 5)
Injected flit rate average = 0.0981875
	minimum = 0.077 (at node 8)
	maximum = 0.116 (at node 9)
Accepted flit rate average= 0.09825
	minimum = 0.077 (at node 9)
	maximum = 0.117 (at node 5)
Injected packet length average = 1
Accepted packet length average = 1
Total in-flight flits = 41 (41 measured)
latency change    = 0.00450754
throughput change = 0.0248092
Class 0:
Packet latency average = 22.8131
	minimum = 7
	maximum = 83
Network latency average = 22.7588
	minimum = 7
	maximum = 83
Slowest packet = 1002796
Flit latency average = 22.8379
	minimum = 7
	maximum = 83
Slowest flit = 1002796
Fragmentation average = 0
	minimum = 0
	maximum = 0
Injected packet rate average = 0.100156
	minimum = 0.086 (at node 4)
	maximum = 0.114 (at node 6)
Accepted packet rate average = 0.100437
	minimum = 0.0885 (at node 9)
	maximum = 0.118 (at node 13)
Injected flit rate average = 0.100156
	minimum = 0.086 (at node 4)
	maximum = 0.114 (at node 6)
Accepted flit rate average= 0.100437
	minimum = 0.0885 (at node 9)
	maximum = 0.118 (at node 13)
Injected packet length average = 1
Accepted packet length average = 1
Total in-flight flits = 33 (33 measured)
latency change    = 0.000256965
throughput change = 0.0217797
Class 0:
Packet latency average = 22.6371
	minimum = 7
	maximum = 83
Network latency average = 22.5857
	minimum = 7
	maximum = 83
Slowest packet = 1002796
Flit latency average = 22.6405
	minimum = 7
	maximum = 83
Slowest flit = 1002796
Fragmentation average = 0
	minimum = 0
	maximum = 0
Injected packet rate average = 0.0991458
	minimum = 0.0913333 (at node 8)
	maximum = 0.110333 (at node 6)
Accepted packet rate average = 0.0993958
	minimum = 0.0853333 (at node 7)
	maximum = 0.116 (at node 13)
Injected flit rate average = 0.0991458
	minimum = 0.0913333 (at node 8)
	maximum = 0.110333 (at node 6)
Accepted flit rate average= 0.0993958
	minimum = 0.0853333 (at node 7)
	maximum = 0.116 (at node 13)
Injected packet length average = 1
Accepted packet length average = 1
Total in-flight flits = 30 (30 measured)
latency change    = 0.00777126
throughput change = 0.01048
Draining all recorded packets ...
Draining remaining packets ...
Time taken is 6064 cycles
Class 0:
Packet latency average = 22.4959
	minimum = 7
	maximum = 84
Network latency average = 22.4903
	minimum = 7
	maximum = 84
Slowest packet = 1007935
Flit latency average = 22.4903
	minimum = 7
	maximum = 84
Slowest flit = 1007935
Fragmentation average = 0
	minimum = 0
	maximum = 0
Injected packet rate average = 0.102063
	minimum = 0.079 (at node 11)
	maximum = 0.127 (at node 4)
Accepted packet rate average = 0.100062
	minimum = 0.082 (at node 13)
	maximum = 0.12 (at node 5)
Injected flit rate average = 0.102063
	minimum = 0.079 (at node 11)
	maximum = 0.127 (at node 4)
Accepted flit rate average= 0.100062
	minimum = 0.082 (at node 13)
	maximum = 0.12 (at node 5)
Injected packet length average = 1
Accepted packet length average = 1
Total in-flight flits = 32 (0 measured)
latency change    = 1
throughput change = 1
Class 0:
Packet latency average = 22.6345
	minimum = 7
	maximum = 84
Network latency average = 22.6162
	minimum = 7
	maximum = 84
Slowest packet = 1007935
Flit latency average = 22.6162
	minimum = 7
	maximum = 84
Slowest flit = 1007935
Fragmentation average = 0
	minimum = 0
	maximum = 0
Injected packet rate average = 0.102375
	minimum = 0.087 (at node 11)
	maximum = 0.122 (at node 4)
Accepted packet rate average = 0.100969
	minimum = 0.086 (at node 13)
	maximum = 0.117 (at node 5)
Injected flit rate average = 0.102375
	minimum = 0.087 (at node 11)
	maximum = 0.122 (at node 4)
Accepted flit rate average= 0.100969
	minimum = 0.086 (at node 13)
	maximum = 0.117 (at node 5)
Injected packet length average = 1
Accepted packet length average = 1
Total in-flight flits = 46 (0 measured)
latency change    = 0.00612068
throughput change = 0.00897555
Class 0:
Packet latency average = 22.1292
	minimum = 7
	maximum = 95
Network latency average = 22.089
	minimum = 7
	maximum = 95
Slowest packet = 1010363
Flit latency average = 22.089
	minimum = 7
	maximum = 95
Slowest flit = 1010363
Fragmentation average = 0
	minimum = 0
	maximum = 0
Injected packet rate average = 0.098375
	minimum = 0.085 (at node 9)
	maximum = 0.112 (at node 7)
Accepted packet rate average = 0.0996875
	minimum = 0.091 (at node 1)
	maximum = 0.112 (at node 4)
Injected flit rate average = 0.098375
	minimum = 0.085 (at node 9)
	maximum = 0.112 (at node 7)
Accepted flit rate average= 0.0996875
	minimum = 0.091 (at node 1)
	maximum = 0.112 (at node 4)
Injected packet length average = 1
Accepted packet length average = 1
Total in-flight flits = 24 (0 measured)
latency change    = 0.0228353
throughput change = 0.0128527
Warmed up ...Time used is 3000 cycles
Class 0:
Packet latency average = 21.4596
	minimum = 7
	maximum = 76
Network latency average = 21.4545
	minimum = 7
	maximum = 76
Slowest packet = 1013242
Flit latency average = 21.464
	minimum = 7
	maximum = 76
Slowest flit = 1013242
Fragmentation average = 0
	minimum = 0
	maximum = 0
Injected packet rate average = 0.0995625
	minimum = 0.084 (at node 0)
	maximum = 0.114 (at node 5)
Accepted packet rate average = 0.099
	minimum = 0.083 (at node 0)
	maximum = 0.117 (at node 6)
Injected flit rate average = 0.0995625
	minimum = 0.084 (at node 0)
	maximum = 0.114 (at node 5)
Accepted flit rate average= 0.099
	minimum = 0.083 (at node 0)
	maximum = 0.117 (at node 6)
Injected packet length average = 1
Accepted packet length average = 1
Total in-flight flits = 33 (33 measured)
latency change    = 0.0311999
throughput change = 0.00694444
Class 0:
Packet latency average = 21.5221
	minimum = 7
	maximum = 76
Network latency average = 21.5182
	minimum = 7
	maximum = 76
Slowest packet = 1013242
Flit latency average = 21.5225
	minimum = 7
	maximum = 76
Slowest flit = 1013242
Fragmentation average = 0
	minimum = 0
	maximum = 0
Injected packet rate average = 0.0976875
	minimum = 0.0875 (at node 13)
	maximum = 0.11 (at node 5)
Accepted packet rate average = 0.0977187
	minimum = 0.0875 (at node 0)
	maximum = 0.1135 (at node 13)
Injected flit rate average = 0.0976875
	minimum = 0.0875 (at node 13)
	maximum = 0.11 (at node 5)
Accepted flit rate average= 0.0977187
	minimum = 0.0875 (at node 0)
	maximum = 0.1135 (at node 13)
Injected packet length average = 1
Accepted packet length average = 1
Total in-flight flits = 23 (23 measured)
latency change    = 0.00290214
throughput change = 0.0131116
Class 0:
Packet latency average = 21.5303
	minimum = 7
	maximum = 76
Network latency average = 21.5251
	minimum = 7
	maximum = 76
Slowest packet = 1013242
Flit latency average = 21.528
	minimum = 7
	maximum = 76
Slowest flit = 1013242
Fragmentation average = 0
	minimum = 0
	maximum = 0
Injected packet rate average = 0.0975417
	minimum = 0.087 (at node 13)
	maximum = 0.108 (at node 10)
Accepted packet rate average = 0.0972292
	minimum = 0.0903333 (at node 0)
	maximum = 0.113 (at node 13)
Injected flit rate average = 0.0975417
	minimum = 0.087 (at node 13)
	maximum = 0.108 (at node 10)
Accepted flit rate average= 0.0972292
	minimum = 0.0903333 (at node 0)
	maximum = 0.113 (at node 13)
Injected packet length average = 1
Accepted packet length average = 1
Total in-flight flits = 39 (39 measured)
latency change    = 0.000380172
throughput change = 0.00503535
Draining all recorded packets ...
Draining remaining packets ...
Time taken is 6074 cycles
====== Overall Traffic Statistics ======
====== Traffic class 0 ======
Packet latency average = 22.5632 (100 samples)
	minimum = 7 (100 samples)
	maximum = 98.18 (100 samples)
Network latency average = 22.5157 (100 samples)
	minimum = 7 (100 samples)
	maximum = 95.97 (100 samples)
Flit latency average = 22.5388 (100 samples)
	minimum = 7 (100 samples)
	maximum = 96.1 (100 samples)
Fragmentation average = 0 (100 samples)
	minimum = 0 (100 samples)
	maximum = 0 (100 samples)
Injected packet rate average = 0.100252 (100 samples)
	minimum = 0.0907548 (100 samples)
	maximum = 0.109698 (100 samples)
Accepted packet rate average = 0.100256 (100 samples)
	minimum = 0.0909638 (100 samples)
	maximum = 0.110448 (100 samples)
Injected flit rate average = 0.100252 (100 samples)
	minimum = 0.0907548 (100 samples)
	maximum = 0.109698 (100 samples)
Accepted flit rate average = 0.100256 (100 samples)
	minimum = 0.0909638 (100 samples)
	maximum = 0.110448 (100 samples)
Injected packet size average = 1 (100 samples)
Accepted packet size average = 1 (100 samples)
Hops average = 3.50097 (100 samples)
Total run time 10.3795
