BEGIN Configuration File: /tmp/tmps_ymee86.cfg
topology = mesh;
k = 8; n = 2;
routing_function = gnn_port_score_route_8x8_v4;
num_vcs = 4; vc_buf_size = 4;
wait_for_tail_credit = 1;
vc_allocator = islip; sw_allocator = islip;
alloc_iters = 1;
credit_delay = 2; routing_delay = 1;
vc_alloc_delay = 1; sw_alloc_delay = 1;
input_speedup = 2; output_speedup = 1; internal_speedup = 1.0;
traffic = transpose;
packet_size = 1; sim_type = latency;
injection_rate = 0.01;
warmup_periods = 3; sample_period = 1000; sim_count = 100;
seed = 0;

END Configuration File: /tmp/tmps_ymee86.cfg
Class 0:
Packet latency average = 33.1667
	minimum = 7
	maximum = 85
Network latency average = 33.1667
	minimum = 7
	maximum = 85
Slowest packet = 150
Flit latency average = 33.1667
	minimum = 7
	maximum = 85
Slowest flit = 150
Fragmentation average = 0
	minimum = 0
	maximum = 0
Injected packet rate average = 0.00960937
	minimum = 0.003 (at node 21)
	maximum = 0.015 (at node 18)
Accepted packet rate average = 0.009375
	minimum = 0.003 (at node 42)
	maximum = 0.015 (at node 11)
Injected flit rate average = 0.00960937
	minimum = 0.003 (at node 21)
	maximum = 0.015 (at node 18)
Accepted flit rate average= 0.009375
	minimum = 0.003 (at node 42)
	maximum = 0.015 (at node 11)
Injected packet length average = 1
Accepted packet length average = 1
Total in-flight flits = 15 (0 measured)
latency change    = 1
throughput change = 1
Class 0:
Packet latency average = 33.1792
	minimum = 7
	maximum = 85
Network latency average = 33.1792
	minimum = 7
	maximum = 85
Slowest packet = 150
Flit latency average = 33.1792
	minimum = 7
	maximum = 85
Slowest flit = 150
Fragmentation average = 0
	minimum = 0
	maximum = 0
Injected packet rate average = 0.00977344
	minimum = 0.0045 (at node 55)
	maximum = 0.015 (at node 42)
Accepted packet rate average = 0.00959375
	minimum = 0.0045 (at node 62)
	maximum = 0.015 (at node 45)
Injected flit rate average = 0.00977344
	minimum = 0.0045 (at node 55)
	maximum = 0.015 (at node 42)
Accepted flit rate average= 0.00959375
	minimum = 0.0045 (at node 62)
	maximum = 0.015 (at node 45)
Injected packet length average = 1
Accepted packet length average = 1
Total in-flight flits = 23 (0 measured)
latency change    = 0.000376334
throughput change = 0.0228013
Class 0:
Packet latency average = 33.0303
	minimum = 7
	maximum = 84
Network latency average = 33.0303
	minimum = 7
	maximum = 84
Slowest packet = 1229
Flit latency average = 33.0303
	minimum = 7
	maximum = 84
Slowest flit = 1229
Fragmentation average = 0
	minimum = 0
	maximum = 0
Injected packet rate average = 0.0103281
	minimum = 0.003 (at node 22)
	maximum = 0.022 (at node 1)
Accepted packet rate average = 0.0102969
	minimum = 0.003 (at node 50)
	maximum = 0.024 (at node 8)
Injected flit rate average = 0.0103281
	minimum = 0.003 (at node 22)
	maximum = 0.022 (at node 1)
Accepted flit rate average= 0.0102969
	minimum = 0.003 (at node 50)
	maximum = 0.024 (at node 8)
Injected packet length average = 1
Accepted packet length average = 1
Total in-flight flits = 25 (0 measured)
latency change    = 0.00450507
throughput change = 0.0682853
Warmed up ...Time used is 3000 cycles
Class 0:
Packet latency average = 33.2802
	minimum = 7
	maximum = 88
Network latency average = 33.2802
	minimum = 7
	maximum = 88
Slowest packet = 1953
Flit latency average = 33.7399
	minimum = 7
	maximum = 88
Slowest flit = 1953
Fragmentation average = 0
	minimum = 0
	maximum = 0
Injected packet rate average = 0.0100469
	minimum = 0.003 (at node 30)
	maximum = 0.017 (at node 23)
Accepted packet rate average = 0.0100938
	minimum = 0.003 (at node 51)
	maximum = 0.018 (at node 58)
Injected flit rate average = 0.0100469
	minimum = 0.003 (at node 30)
	maximum = 0.017 (at node 23)
Accepted flit rate average= 0.0100938
	minimum = 0.003 (at node 51)
	maximum = 0.018 (at node 58)
Injected packet length average = 1
Accepted packet length average = 1
Total in-flight flits = 22 (22 measured)
latency change    = 0.00750729
throughput change = 0.0201238
Class 0:
Packet latency average = 33.039
	minimum = 7
	maximum = 91
Network latency average = 33.039
	minimum = 7
	maximum = 91
Slowest packet = 2936
Flit latency average = 33.2803
	minimum = 7
	maximum = 91
Slowest flit = 2936
Fragmentation average = 0
	minimum = 0
	maximum = 0
Injected packet rate average = 0.00976562
	minimum = 0.004 (at node 30)
	maximum = 0.016 (at node 43)
Accepted packet rate average = 0.0098125
	minimum = 0.004 (at node 51)
	maximum = 0.017 (at node 29)
Injected flit rate average = 0.00976562
	minimum = 0.004 (at node 30)
	maximum = 0.016 (at node 43)
Accepted flit rate average= 0.0098125
	minimum = 0.004 (at node 51)
	maximum = 0.017 (at node 29)
Injected packet length average = 1
Accepted packet length average = 1
Total in-flight flits = 19 (19 measured)
latency change    = 0.00730048
throughput change = 0.0286624
Class 0:
Packet latency average = 32.8993
	minimum = 7
	maximum = 91
Network latency average = 32.8993
	minimum = 7
	maximum = 91
Slowest packet = 2936
Flit latency average = 33.0639
	minimum = 7
	maximum = 91
Slowest flit = 2936
Fragmentation average = 0
	minimum = 0
	maximum = 0
Injected packet rate average = 0.00970833
	minimum = 0.005 (at node 30)
	maximum = 0.0136667 (at node 37)
Accepted packet rate average = 0.00970312
	minimum = 0.00466667 (at node 51)
	maximum = 0.014 (at node 29)
Injected flit rate average = 0.00970833
	minimum = 0.005 (at node 30)
	maximum = 0.0136667 (at node 37)
Accepted flit rate average= 0.00970312
	minimum = 0.00466667 (at node 51)
	maximum = 0.014 (at node 29)
Injected packet length average = 1
Accepted packet length average = 1
Total in-flight flits = 26 (26 measured)
latency change    = 0.00424463
throughput change = 0.0112721
Draining all recorded packets ...
Draining remaining packets ...
Time taken is 6123 cycles
Class 0:
Packet latency average = 33.5608
	minimum = 7
	maximum = 81
Network latency average = 33.5608
	minimum = 7
	maximum = 81
Slowest packet = 4359
Flit latency average = 33.5608
	minimum = 7
	maximum = 81
Slowest flit = 4359
Fragmentation average = 0
	minimum = 0
	maximum = 0
Injected packet rate average = 0.01
	minimum = 0.003 (at node 42)
	maximum = 0.017 (at node 29)
Accepted packet rate average = 0.00964062
	minimum = 0.003 (at node 21)
	maximum = 0.016 (at node 43)
Injected flit rate average = 0.01
	minimum = 0.003 (at node 42)
	maximum = 0.017 (at node 29)
Accepted flit rate average= 0.00964062
	minimum = 0.003 (at node 21)
	maximum = 0.016 (at node 43)
Injected packet length average = 1
Accepted packet length average = 1
Total in-flight flits = 23 (0 measured)
latency change    = 1
throughput change = 1
Class 0:
Packet latency average = 33.5204
	minimum = 7
	maximum = 81
Network latency average = 33.5204
	minimum = 7
	maximum = 81
Slowest packet = 4359
Flit latency average = 33.5204
	minimum = 7
	maximum = 81
Slowest flit = 4359
Fragmentation average = 0
	minimum = 0
	maximum = 0
Injected packet rate average = 0.010125
	minimum = 0.0055 (at node 12)
	maximum = 0.0145 (at node 8)
Accepted packet rate average = 0.00995313
	minimum = 0.005 (at node 33)
	maximum = 0.0145 (at node 1)
Injected flit rate average = 0.010125
	minimum = 0.0055 (at node 12)
	maximum = 0.0145 (at node 8)
Accepted flit rate average= 0.00995313
	minimum = 0.005 (at node 33)
	maximum = 0.0145 (at node 1)
Injected packet length average = 1
Accepted packet length average = 1
Total in-flight flits = 22 (0 measured)
latency change    = 0.00120433
throughput change = 0.0313972
Class 0:
Packet latency average = 32.9699
	minimum = 7
	maximum = 78
Network latency average = 32.9699
	minimum = 7
	maximum = 78
Slowest packet = 5249
Flit latency average = 32.9699
	minimum = 7
	maximum = 78
Slowest flit = 5249
Fragmentation average = 0
	minimum = 0
	maximum = 0
Injected packet rate average = 0.00942187
	minimum = 0.002 (at node 37)
	maximum = 0.02 (at node 28)
Accepted packet rate average = 0.00935937
	minimum = 0.003 (at node 44)
	maximum = 0.02 (at node 35)
Injected flit rate average = 0.00942187
	minimum = 0.002 (at node 37)
	maximum = 0.02 (at node 28)
Accepted flit rate average= 0.00935937
	minimum = 0.003 (at node 44)
	maximum = 0.02 (at node 35)
Injected packet length average = 1
Accepted packet length average = 1
Total in-flight flits = 26 (0 measured)
latency change    = 0.0166958
throughput change = 0.0634391
Warmed up ...Time used is 3000 cycles
Class 0:
Packet latency average = 34.1756
	minimum = 7
	maximum = 85
Network latency average = 34.1756
	minimum = 7
	maximum = 85
Slowest packet = 5718
Flit latency average = 34.7613
	minimum = 7
	maximum = 86
Slowest flit = 5675
Fragmentation average = 0
	minimum = 0
	maximum = 0
Injected packet rate average = 0.00992188
	minimum = 0.005 (at node 1)
	maximum = 0.016 (at node 44)
Accepted packet rate average = 0.0100156
	minimum = 0.005 (at node 8)
	maximum = 0.016 (at node 37)
Injected flit rate average = 0.00992188
	minimum = 0.005 (at node 1)
	maximum = 0.016 (at node 44)
Accepted flit rate average= 0.0100156
	minimum = 0.005 (at node 8)
	maximum = 0.016 (at node 37)
Injected packet length average = 1
Accepted packet length average = 1
Total in-flight flits = 20 (20 measured)
latency change    = 0.0352784
throughput change = 0.0655226
Class 0:
Packet latency average = 34.0307
	minimum = 7
	maximum = 85
Network latency average = 34.0307
	minimum = 7
	maximum = 85
Slowest packet = 5718
Flit latency average = 34.3228
	minimum = 7
	maximum = 86
Slowest flit = 5675
Fragmentation average = 0
	minimum = 0
	maximum = 0
Injected packet rate average = 0.010125
	minimum = 0.005 (at node 60)
	maximum = 0.015 (at node 58)
Accepted packet rate average = 0.0101406
	minimum = 0.005 (at node 39)
	maximum = 0.0145 (at node 23)
Injected flit rate average = 0.010125
	minimum = 0.005 (at node 60)
	maximum = 0.015 (at node 58)
Accepted flit rate average= 0.0101406
	minimum = 0.005 (at node 39)
	maximum = 0.0145 (at node 23)
Injected packet length average = 1
Accepted packet length average = 1
Total in-flight flits = 24 (24 measured)
latency change    = 0.00425938
throughput change = 0.0123267
Class 0:
Packet latency average = 34.1567
	minimum = 7
	maximum = 85
Network latency average = 34.1567
	minimum = 7
	maximum = 85
Slowest packet = 5718
Flit latency average = 34.3466
	minimum = 7
	maximum = 86
Slowest flit = 5675
Fragmentation average = 0
	minimum = 0
	maximum = 0
Injected packet rate average = 0.0102917
	minimum = 0.005 (at node 60)
	maximum = 0.0146667 (at node 15)
Accepted packet rate average = 0.0103073
	minimum = 0.00466667 (at node 39)
	maximum = 0.0146667 (at node 57)
Injected flit rate average = 0.0102917
	minimum = 0.005 (at node 60)
	maximum = 0.0146667 (at node 15)
Accepted flit rate average= 0.0103073
	minimum = 0.00466667 (at node 39)
	maximum = 0.0146667 (at node 57)
Injected packet length average = 1
Accepted packet length average = 1
Total in-flight flits = 23 (23 measured)
latency change    = 0.00368952
throughput change = 0.0161698
Class 0:
Packet latency average = 34.0323
	minimum = 7
	maximum = 87
Network latency average = 34.0323
	minimum = 7
	maximum = 87
Slowest packet = 7960
Flit latency average = 34.1767
	minimum = 7
	maximum = 87
Slowest flit = 7960
Fragmentation average = 0
	minimum = 0
	maximum = 0
Injected packet rate average = 0.0102344
	minimum = 0.00675 (at node 60)
	maximum = 0.0135 (at node 4)
Accepted packet rate average = 0.0102578
	minimum = 0.00675 (at node 39)
	maximum = 0.01375 (at node 32)
Injected flit rate average = 0.0102344
	minimum = 0.00675 (at node 60)
	maximum = 0.0135 (at node 4)
Accepted flit rate average= 0.0102578
	minimum = 0.00675 (at node 39)
	maximum = 0.01375 (at node 32)
Injected packet length average = 1
Accepted packet length average = 1
Total in-flight flits = 20 (20 measured)
latency change    = 0.0036546
throughput change = 0.00482356
Draining all recorded packets ...
Draining remaining packets ...
Time taken is 7124 cycles
Class 0:
Packet latency average = 34.2881
	minimum = 7
	maximum = 85
Network latency average = 34.2881
	minimum = 7
	maximum = 85
Slowest packet = 8387
Flit latency average = 34.2881
	minimum = 7
	maximum = 85
Slowest flit = 8387
Fragmentation average = 0
	minimum = 0
	maximum = 0
Injected packet rate average = 0.00951562
	minimum = 0.004 (at node 17)
	maximum = 0.017 (at node 46)
Accepted packet rate average = 0.00921875
	minimum = 0.003 (at node 10)
	maximum = 0.017 (at node 53)
Injected flit rate average = 0.00951562
	minimum = 0.004 (at node 17)
	maximum = 0.017 (at node 46)
Accepted flit rate average= 0.00921875
	minimum = 0.003 (at node 10)
	maximum = 0.017 (at node 53)
Injected packet length average = 1
Accepted packet length average = 1
Total in-flight flits = 19 (0 measured)
latency change    = 1
throughput change = 1
Class 0:
Packet latency average = 34.3342
	minimum = 7
	maximum = 85
Network latency average = 34.3342
	minimum = 7
	maximum = 85
Slowest packet = 8387
Flit latency average = 34.3342
	minimum = 7
	maximum = 85
Slowest flit = 8387
Fragmentation average = 0
	minimum = 0
	maximum = 0
Injected packet rate average = 0.00958594
	minimum = 0.0045 (at node 19)
	maximum = 0.015 (at node 51)
Accepted packet rate average = 0.00942187
	minimum = 0.0045 (at node 26)
	maximum = 0.015 (at node 30)
Injected flit rate average = 0.00958594
	minimum = 0.0045 (at node 19)
	maximum = 0.015 (at node 51)
Accepted flit rate average= 0.00942187
	minimum = 0.0045 (at node 26)
	maximum = 0.015 (at node 30)
Injected packet length average = 1
Accepted packet length average = 1
Total in-flight flits = 21 (0 measured)
latency change    = 0.00134056
throughput change = 0.0215589
Class 0:
Packet latency average = 33.9204
	minimum = 7
	maximum = 83
Network latency average = 33.9204
	minimum = 7
	maximum = 83
Slowest packet = 10036
Flit latency average = 33.9204
	minimum = 7
	maximum = 83
Slowest flit = 10036
Fragmentation average = 0
	minimum = 0
	maximum = 0
Injected packet rate average = 0.0100156
	minimum = 0.005 (at node 15)
	maximum = 0.018 (at node 12)
Accepted packet rate average = 0.0100156
	minimum = 0.005 (at node 10)
	maximum = 0.019 (at node 33)
Injected flit rate average = 0.0100156
	minimum = 0.005 (at node 15)
	maximum = 0.018 (at node 12)
Accepted flit rate average= 0.0100156
	minimum = 0.005 (at node 10)
	maximum = 0.019 (at node 33)
Injected packet length average = 1
Accepted packet length average = 1
Total in-flight flits = 21 (0 measured)
latency change    = 0.0121969
throughput change = 0.0592824
Warmed up ...Time used is 3000 cycles
Class 0:
Packet latency average = 32.1902
	minimum = 7
	maximum = 86
Network latency average = 32.1902
	minimum = 7
	maximum = 86
Slowest packet = 10349
Flit latency average = 32.677
	minimum = 7
	maximum = 86
Slowest flit = 10349
Fragmentation average = 0
	minimum = 0
	maximum = 0
Injected packet rate average = 0.00951562
	minimum = 0.003 (at node 44)
	maximum = 0.021 (at node 47)
Accepted packet rate average = 0.00953125
	minimum = 0.002 (at node 57)
	maximum = 0.022 (at node 61)
Injected flit rate average = 0.00951562
	minimum = 0.003 (at node 44)
	maximum = 0.021 (at node 47)
Accepted flit rate average= 0.00953125
	minimum = 0.002 (at node 57)
	maximum = 0.022 (at node 61)
Injected packet length average = 1
Accepted packet length average = 1
Total in-flight flits = 20 (20 measured)
latency change    = 0.053752
throughput change = 0.0508197
Class 0:
Packet latency average = 33.273
	minimum = 7
	maximum = 86
Network latency average = 33.273
	minimum = 7
	maximum = 86
Slowest packet = 10349
Flit latency average = 33.4871
	minimum = 7
	maximum = 86
Slowest flit = 10349
Fragmentation average = 0
	minimum = 0
	maximum = 0
Injected packet rate average = 0.01
	minimum = 0.004 (at node 30)
	maximum = 0.0155 (at node 47)
Accepted packet rate average = 0.0100078
	minimum = 0.004 (at node 51)
	maximum = 0.016 (at node 61)
Injected flit rate average = 0.01
	minimum = 0.004 (at node 30)
	maximum = 0.0155 (at node 47)
Accepted flit rate average= 0.0100078
	minimum = 0.004 (at node 51)
	maximum = 0.016 (at node 61)
Injected packet length average = 1
Accepted packet length average = 1
Total in-flight flits = 20 (20 measured)
latency change    = 0.0325448
throughput change = 0.047619
Class 0:
Packet latency average = 33.3859
	minimum = 7
	maximum = 86
Network latency average = 33.3859
	minimum = 7
	maximum = 86
Slowest packet = 10349
Flit latency average = 33.5286
	minimum = 7
	maximum = 86
Slowest flit = 10349
Fragmentation average = 0
	minimum = 0
	maximum = 0
Injected packet rate average = 0.00993229
	minimum = 0.00566667 (at node 30)
	maximum = 0.0136667 (at node 47)
Accepted packet rate average = 0.00992188
	minimum = 0.00566667 (at node 51)
	maximum = 0.014 (at node 61)
Injected flit rate average = 0.00993229
	minimum = 0.00566667 (at node 30)
	maximum = 0.0136667 (at node 47)
Accepted flit rate average= 0.00992188
	minimum = 0.00566667 (at node 51)
	maximum = 0.014 (at node 61)
Injected packet length average = 1
Accepted packet length average = 1
Total in-flight flits = 23 (23 measured)
latency change    = 0.00338063
throughput change = 0.00866142
Class 0:
Packet latency average = 33.3318
	minimum = 7
	maximum = 98
Network latency average = 33.3318
	minimum = 7
	maximum = 98
Slowest packet = 12413
Flit latency average = 33.4387
	minimum = 7
	maximum = 98
Slowest flit = 12413
Fragmentation average = 0
	minimum = 0
	maximum = 0
Injected packet rate average = 0.00999219
	minimum = 0.00625 (at node 30)
	maximum = 0.014 (at node 47)
Accepted packet rate average = 0.00997266
	minimum = 0.006 (at node 51)
	maximum = 0.01425 (at node 61)
Injected flit rate average = 0.00999219
	minimum = 0.00625 (at node 30)
	maximum = 0.014 (at node 47)
Accepted flit rate average= 0.00997266
	minimum = 0.006 (at node 51)
	maximum = 0.01425 (at node 61)
Injected packet length average = 1
Accepted packet length average = 1
Total in-flight flits = 26 (26 measured)
latency change    = 0.0016239
throughput change = 0.00509205
Draining all recorded packets ...
Draining remaining packets ...
Time taken is 7116 cycles
Class 0:
Packet latency average = 32.4562
	minimum = 7
	maximum = 91
Network latency average = 32.4562
	minimum = 7
	maximum = 91
Slowest packet = 12846
Flit latency average = 32.4562
	minimum = 7
	maximum = 91
Slowest flit = 12846
Fragmentation average = 0
	minimum = 0
	maximum = 0
Injected packet rate average = 0.00990625
	minimum = 0.005 (at node 26)
	maximum = 0.018 (at node 19)
Accepted packet rate average = 0.009625
	minimum = 0.005 (at node 19)
	maximum = 0.017 (at node 26)
Injected flit rate average = 0.00990625
	minimum = 0.005 (at node 26)
	maximum = 0.018 (at node 19)
Accepted flit rate average= 0.009625
	minimum = 0.005 (at node 19)
	maximum = 0.017 (at node 26)
Injected packet length average = 1
Accepted packet length average = 1
Total in-flight flits = 18 (0 measured)
latency change    = 1
throughput change = 1
Class 0:
Packet latency average = 32.4874
	minimum = 7
	maximum = 91
Network latency average = 32.4874
	minimum = 7
	maximum = 91
Slowest packet = 12846
Flit latency average = 32.4874
	minimum = 7
	maximum = 91
Slowest flit = 12846
Fragmentation average = 0
	minimum = 0
	maximum = 0
Injected packet rate average = 0.0101484
	minimum = 0.006 (at node 14)
	maximum = 0.016 (at node 19)
Accepted packet rate average = 0.00995313
	minimum = 0.0055 (at node 19)
	maximum = 0.016 (at node 26)
Injected flit rate average = 0.0101484
	minimum = 0.006 (at node 14)
	maximum = 0.016 (at node 19)
Accepted flit rate average= 0.00995313
	minimum = 0.0055 (at node 19)
	maximum = 0.016 (at node 26)
Injected packet length average = 1
Accepted packet length average = 1
Total in-flight flits = 25 (0 measured)
latency change    = 0.000962597
throughput change = 0.032967
Class 0:
Packet latency average = 32.7014
	minimum = 7
	maximum = 77
Network latency average = 32.7014
	minimum = 7
	maximum = 77
Slowest packet = 14112
Flit latency average = 32.7014
	minimum = 7
	maximum = 77
Slowest flit = 14112
Fragmentation average = 0
	minimum = 0
	maximum = 0
Injected packet rate average = 0.009625
	minimum = 0.003 (at node 34)
	maximum = 0.017 (at node 3)
Accepted packet rate average = 0.00973437
	minimum = 0.004 (at node 56)
	maximum = 0.017 (at node 7)
Injected flit rate average = 0.009625
	minimum = 0.003 (at node 34)
	maximum = 0.017 (at node 3)
Accepted flit rate average= 0.00973437
	minimum = 0.004 (at node 56)
	maximum = 0.017 (at node 7)
Injected packet length average = 1
Accepted packet length average = 1
Total in-flight flits = 18 (0 measured)
latency change    = 0.00654416
throughput change = 0.0224719
Warmed up ...Time used is 3000 cycles
Class 0:
Packet latency average = 33.8957
	minimum = 7
	maximum = 88
Network latency average = 33.8957
	minimum = 7
	maximum = 88
Slowest packet = 15088
Flit latency average = 34.2951
	minimum = 7
	maximum = 88
Slowest flit = 15088
Fragmentation average = 0
	minimum = 0
	maximum = 0
Injected packet rate average = 0.0095
	minimum = 0.002 (at node 12)
	maximum = 0.017 (at node 15)
Accepted packet rate average = 0.00926562
	minimum = 0.002 (at node 33)
	maximum = 0.017 (at node 57)
Injected flit rate average = 0.0095
	minimum = 0.002 (at node 12)
	maximum = 0.017 (at node 15)
Accepted flit rate average= 0.00926562
	minimum = 0.002 (at node 33)
	maximum = 0.017 (at node 57)
Injected packet length average = 1
Accepted packet length average = 1
Total in-flight flits = 33 (33 measured)
latency change    = 0.0352319
throughput change = 0.0505902
Class 0:
Packet latency average = 34.3355
	minimum = 7
	maximum = 91
Network latency average = 34.3355
	minimum = 7
	maximum = 91
Slowest packet = 15551
Flit latency average = 34.5206
	minimum = 7
	maximum = 91
Slowest flit = 15551
Fragmentation average = 0
	minimum = 0
	maximum = 0
Injected packet rate average = 0.00971875
	minimum = 0.005 (at node 12)
	maximum = 0.014 (at node 15)
Accepted packet rate average = 0.00966406
	minimum = 0.0045 (at node 33)
	maximum = 0.014 (at node 6)
Injected flit rate average = 0.00971875
	minimum = 0.005 (at node 12)
	maximum = 0.014 (at node 15)
Accepted flit rate average= 0.00966406
	minimum = 0.0045 (at node 33)
	maximum = 0.014 (at node 6)
Injected packet length average = 1
Accepted packet length average = 1
Total in-flight flits = 25 (25 measured)
latency change    = 0.0128109
throughput change = 0.0412288
Class 0:
Packet latency average = 34.422
	minimum = 7
	maximum = 93
Network latency average = 34.422
	minimum = 7
	maximum = 93
Slowest packet = 16319
Flit latency average = 34.5411
	minimum = 7
	maximum = 93
Slowest flit = 16319
Fragmentation average = 0
	minimum = 0
	maximum = 0
Injected packet rate average = 0.00998438
	minimum = 0.005 (at node 12)
	maximum = 0.0146667 (at node 46)
Accepted packet rate average = 0.00994271
	minimum = 0.005 (at node 33)
	maximum = 0.0143333 (at node 53)
Injected flit rate average = 0.00998438
	minimum = 0.005 (at node 12)
	maximum = 0.0146667 (at node 46)
Accepted flit rate average= 0.00994271
	minimum = 0.005 (at node 33)
	maximum = 0.0143333 (at node 53)
Injected packet length average = 1
Accepted packet length average = 1
Total in-flight flits = 26 (26 measured)
latency change    = 0.00251229
throughput change = 0.0280251
Class 0:
Packet latency average = 34.3033
	minimum = 7
	maximum = 93
Network latency average = 34.3033
	minimum = 7
	maximum = 93
Slowest packet = 16319
Flit latency average = 34.3922
	minimum = 7
	maximum = 93
Slowest flit = 16319
Fragmentation average = 0
	minimum = 0
	maximum = 0
Injected packet rate average = 0.010082
	minimum = 0.00675 (at node 12)
	maximum = 0.0155 (at node 7)
Accepted packet rate average = 0.0100781
	minimum = 0.00675 (at node 33)
	maximum = 0.0155 (at node 56)
Injected flit rate average = 0.010082
	minimum = 0.00675 (at node 12)
	maximum = 0.0155 (at node 7)
Accepted flit rate average= 0.0100781
	minimum = 0.00675 (at node 33)
	maximum = 0.0155 (at node 56)
Injected packet length average = 1
Accepted packet length average = 1
Total in-flight flits = 19 (19 measured)
latency change    = 0.0034609
throughput change = 0.0134367
Draining all recorded packets ...
Draining remaining packets ...
Time taken is 7096 cycles
Class 0:
Packet latency average = 31.8665
	minimum = 7
	maximum = 86
Network latency average = 31.8665
	minimum = 7
	maximum = 86
Slowest packet = 17948
Flit latency average = 31.8665
	minimum = 7
	maximum = 86
Slowest flit = 17948
Fragmentation average = 0
	minimum = 0
	maximum = 0
Injected packet rate average = 0.0103438
	minimum = 0.005 (at node 48)
	maximum = 0.02 (at node 20)
Accepted packet rate average = 0.00982813
	minimum = 0.004 (at node 6)
	maximum = 0.02 (at node 34)
Injected flit rate average = 0.0103438
	minimum = 0.005 (at node 48)
	maximum = 0.02 (at node 20)
Accepted flit rate average= 0.00982813
	minimum = 0.004 (at node 6)
	maximum = 0.02 (at node 34)
Injected packet length average = 1
Accepted packet length average = 1
Total in-flight flits = 33 (0 measured)
latency change    = 1
throughput change = 1
Class 0:
Packet latency average = 32.9825
	minimum = 7
	maximum = 89
Network latency average = 32.9825
	minimum = 7
	maximum = 89
Slowest packet = 17956
Flit latency average = 32.9825
	minimum = 7
	maximum = 89
Slowest flit = 17956
Fragmentation average = 0
	minimum = 0
	maximum = 0
Injected packet rate average = 0.0100469
	minimum = 0.0045 (at node 28)
	maximum = 0.0195 (at node 43)
Accepted packet rate average = 0.00979688
	minimum = 0.0045 (at node 35)
	maximum = 0.019 (at node 29)
Injected flit rate average = 0.0100469
	minimum = 0.0045 (at node 28)
	maximum = 0.0195 (at node 43)
Accepted flit rate average= 0.00979688
	minimum = 0.0045 (at node 35)
	maximum = 0.019 (at node 29)
Injected packet length average = 1
Accepted packet length average = 1
Total in-flight flits = 32 (0 measured)
latency change    = 0.0338362
throughput change = 0.00318979
Class 0:
Packet latency average = 33.8476
	minimum = 7
	maximum = 82
Network latency average = 33.8476
	minimum = 7
	maximum = 82
Slowest packet = 18982
Flit latency average = 33.8476
	minimum = 7
	maximum = 82
Slowest flit = 18982
Fragmentation average = 0
	minimum = 0
	maximum = 0
Injected packet rate average = 0.0104063
	minimum = 0.002 (at node 22)
	maximum = 0.019 (at node 46)
Accepted packet rate average = 0.0105625
	minimum = 0.002 (at node 50)
	maximum = 0.019 (at node 53)
Injected flit rate average = 0.0104063
	minimum = 0.002 (at node 22)
	maximum = 0.019 (at node 46)
Accepted flit rate average= 0.0105625
	minimum = 0.002 (at node 50)
	maximum = 0.019 (at node 53)
Injected packet length average = 1
Accepted packet length average = 1
Total in-flight flits = 22 (0 measured)
latency change    = 0.0255609
throughput change = 0.0724852
Warmed up ...Time used is 3000 cycles
Class 0:
Packet latency average = 32.8256
	minimum = 7
	maximum = 80
Network latency average = 32.8256
	minimum = 7
	maximum = 80
Slowest packet = 19705
Flit latency average = 33.3862
	minimum = 7
	maximum = 80
Slowest flit = 19705
Fragmentation average = 0
	minimum = 0
	maximum = 0
Injected packet rate average = 0.00971875
	minimum = 0.004 (at node 58)
	maximum = 0.017 (at node 16)
Accepted packet rate average = 0.00975
	minimum = 0.005 (at node 23)
	maximum = 0.017 (at node 2)
Injected flit rate average = 0.00971875
	minimum = 0.004 (at node 58)
	maximum = 0.017 (at node 16)
Accepted flit rate average= 0.00975
	minimum = 0.005 (at node 23)
	maximum = 0.017 (at node 2)
Injected packet length average = 1
Accepted packet length average = 1
Total in-flight flits = 20 (20 measured)
latency change    = 0.0311358
throughput change = 0.0833333
Class 0:
Packet latency average = 33.1815
	minimum = 7
	maximum = 80
Network latency average = 33.1815
	minimum = 7
	maximum = 80
Slowest packet = 19705
Flit latency average = 33.4478
	minimum = 7
	maximum = 80
Slowest flit = 19705
Fragmentation average = 0
	minimum = 0
	maximum = 0
Injected packet rate average = 0.00999219
	minimum = 0.005 (at node 37)
	maximum = 0.014 (at node 35)
Accepted packet rate average = 0.0100313
	minimum = 0.005 (at node 44)
	maximum = 0.0145 (at node 15)
Injected flit rate average = 0.00999219
	minimum = 0.005 (at node 37)
	maximum = 0.014 (at node 35)
Accepted flit rate average= 0.0100313
	minimum = 0.005 (at node 44)
	maximum = 0.0145 (at node 15)
Injected packet length average = 1
Accepted packet length average = 1
Total in-flight flits = 17 (17 measured)
latency change    = 0.0107252
throughput change = 0.0280374
Class 0:
Packet latency average = 32.9639
	minimum = 7
	maximum = 93
Network latency average = 32.9639
	minimum = 7
	maximum = 93
Slowest packet = 20682
Flit latency average = 33.1431
	minimum = 7
	maximum = 93
Slowest flit = 20682
Fragmentation average = 0
	minimum = 0
	maximum = 0
Injected packet rate average = 0.0100573
	minimum = 0.00566667 (at node 25)
	maximum = 0.0143333 (at node 35)
Accepted packet rate average = 0.0100833
	minimum = 0.00566667 (at node 11)
	maximum = 0.0143333 (at node 28)
Injected flit rate average = 0.0100573
	minimum = 0.00566667 (at node 25)
	maximum = 0.0143333 (at node 35)
Accepted flit rate average= 0.0100833
	minimum = 0.00566667 (at node 11)
	maximum = 0.0143333 (at node 28)
Injected packet length average = 1
Accepted packet length average = 1
Total in-flight flits = 17 (17 measured)
latency change    = 0.00659836
throughput change = 0.00516529
Class 0:
Packet latency average = 32.8088
	minimum = 7
	maximum = 93
Network latency average = 32.8088
	minimum = 7
	maximum = 93
Slowest packet = 20682
Flit latency average = 32.946
	minimum = 7
	maximum = 93
Slowest flit = 20682
Fragmentation average = 0
	minimum = 0
	maximum = 0
Injected packet rate average = 0.00996875
	minimum = 0.007 (at node 60)
	maximum = 0.014 (at node 36)
Accepted packet rate average = 0.00997656
	minimum = 0.007 (at node 11)
	maximum = 0.014 (at node 36)
Injected flit rate average = 0.00996875
	minimum = 0.007 (at node 60)
	maximum = 0.014 (at node 36)
Accepted flit rate average= 0.00997656
	minimum = 0.007 (at node 11)
	maximum = 0.014 (at node 36)
Injected packet length average = 1
Accepted packet length average = 1
Total in-flight flits = 20 (20 measured)
latency change    = 0.00472748
throughput change = 0.0107022
Draining all recorded packets ...
Draining remaining packets ...
Time taken is 7137 cycles
Class 0:
Packet latency average = 32.1514
	minimum = 7
	maximum = 85
Network latency average = 32.1514
	minimum = 7
	maximum = 85
Slowest packet = 22086
Flit latency average = 32.1514
	minimum = 7
	maximum = 85
Slowest flit = 22086
Fragmentation average = 0
	minimum = 0
	maximum = 0
Injected packet rate average = 0.00970312
	minimum = 0.003 (at node 8)
	maximum = 0.021 (at node 59)
Accepted packet rate average = 0.00939062
	minimum = 0.003 (at node 1)
	maximum = 0.02 (at node 31)
Injected flit rate average = 0.00970312
	minimum = 0.003 (at node 8)
	maximum = 0.021 (at node 59)
Accepted flit rate average= 0.00939062
	minimum = 0.003 (at node 1)
	maximum = 0.02 (at node 31)
Injected packet length average = 1
Accepted packet length average = 1
Total in-flight flits = 20 (0 measured)
latency change    = 1
throughput change = 1
Class 0:
Packet latency average = 33.2154
	minimum = 7
	maximum = 85
Network latency average = 33.2154
	minimum = 7
	maximum = 85
Slowest packet = 22086
Flit latency average = 33.2154
	minimum = 7
	maximum = 85
Slowest flit = 22086
Fragmentation average = 0
	minimum = 0
	maximum = 0
Injected packet rate average = 0.00980469
	minimum = 0.005 (at node 7)
	maximum = 0.0155 (at node 59)
Accepted packet rate average = 0.00964844
	minimum = 0.0045 (at node 56)
	maximum = 0.0155 (at node 31)
Injected flit rate average = 0.00980469
	minimum = 0.005 (at node 7)
	maximum = 0.0155 (at node 59)
Accepted flit rate average= 0.00964844
	minimum = 0.0045 (at node 56)
	maximum = 0.0155 (at node 31)
Injected packet length average = 1
Accepted packet length average = 1
Total in-flight flits = 20 (0 measured)
latency change    = 0.0320325
throughput change = 0.0267206
Class 0:
Packet latency average = 32.242
	minimum = 7
	maximum = 81
Network latency average = 32.242
	minimum = 7
	maximum = 81
Slowest packet = 23527
Flit latency average = 32.242
	minimum = 7
	maximum = 81
Slowest flit = 23527
Fragmentation average = 0
	minimum = 0
	maximum = 0
Injected packet rate average = 0.0107969
	minimum = 0.005 (at node 6)
	maximum = 0.021 (at node 3)
Accepted packet rate average = 0.0107188
	minimum = 0.005 (at node 1)
	maximum = 0.021 (at node 24)
Injected flit rate average = 0.0107969
	minimum = 0.005 (at node 6)
	maximum = 0.021 (at node 3)
Accepted flit rate average= 0.0107188
	minimum = 0.005 (at node 1)
	maximum = 0.021 (at node 24)
Injected packet length average = 1
Accepted packet length average = 1
Total in-flight flits = 25 (0 measured)
latency change    = 0.0301905
throughput change = 0.0998542
Warmed up ...Time used is 3000 cycles
Class 0:
Packet latency average = 32.9581
	minimum = 7
	maximum = 87
Network latency average = 32.9581
	minimum = 7
	maximum = 87
Slowest packet = 24277
Flit latency average = 33.3816
	minimum = 7
	maximum = 87
Slowest flit = 24277
Fragmentation average = 0
	minimum = 0
	maximum = 0
Injected packet rate average = 0.00964062
	minimum = 0.004 (at node 39)
	maximum = 0.015 (at node 46)
Accepted packet rate average = 0.00970312
	minimum = 0.005 (at node 14)
	maximum = 0.016 (at node 22)
Injected flit rate average = 0.00964062
	minimum = 0.004 (at node 39)
	maximum = 0.015 (at node 46)
Accepted flit rate average= 0.00970312
	minimum = 0.005 (at node 14)
	maximum = 0.016 (at node 22)
Injected packet length average = 1
Accepted packet length average = 1
Total in-flight flits = 21 (21 measured)
latency change    = 0.0217267
throughput change = 0.10467
Class 0:
Packet latency average = 33.0377
	minimum = 7
	maximum = 87
Network latency average = 33.0377
	minimum = 7
	maximum = 87
Slowest packet = 24277
Flit latency average = 33.2474
	minimum = 7
	maximum = 87
Slowest flit = 24277
Fragmentation average = 0
	minimum = 0
	maximum = 0
Injected packet rate average = 0.00970312
	minimum = 0.0035 (at node 39)
	maximum = 0.0155 (at node 14)
Accepted packet rate average = 0.00972656
	minimum = 0.0035 (at node 60)
	maximum = 0.015 (at node 49)
Injected flit rate average = 0.00970312
	minimum = 0.0035 (at node 39)
	maximum = 0.0155 (at node 14)
Accepted flit rate average= 0.00972656
	minimum = 0.0035 (at node 60)
	maximum = 0.015 (at node 49)
Injected packet length average = 1
Accepted packet length average = 1
Total in-flight flits = 22 (22 measured)
latency change    = 0.00241092
throughput change = 0.00240964
Class 0:
Packet latency average = 33.0791
	minimum = 7
	maximum = 87
Network latency average = 33.0791
	minimum = 7
	maximum = 87
Slowest packet = 24277
Flit latency average = 33.2172
	minimum = 7
	maximum = 87
Slowest flit = 24277
Fragmentation average = 0
	minimum = 0
	maximum = 0
Injected packet rate average = 0.00980729
	minimum = 0.004 (at node 39)
	maximum = 0.0143333 (at node 14)
Accepted packet rate average = 0.00980729
	minimum = 0.00433333 (at node 60)
	maximum = 0.0143333 (at node 19)
Injected flit rate average = 0.00980729
	minimum = 0.004 (at node 39)
	maximum = 0.0143333 (at node 14)
Accepted flit rate average= 0.00980729
	minimum = 0.00433333 (at node 60)
	maximum = 0.0143333 (at node 19)
Injected packet length average = 1
Accepted packet length average = 1
Total in-flight flits = 25 (25 measured)
latency change    = 0.00125192
throughput change = 0.00823155
Class 0:
Packet latency average = 33.0516
	minimum = 7
	maximum = 87
Network latency average = 33.0516
	minimum = 7
	maximum = 87
Slowest packet = 24277
Flit latency average = 33.1541
	minimum = 7
	maximum = 87
Slowest flit = 24277
Fragmentation average = 0
	minimum = 0
	maximum = 0
Injected packet rate average = 0.00992969
	minimum = 0.0045 (at node 39)
	maximum = 0.015 (at node 33)
Accepted packet rate average = 0.00993359
	minimum = 0.00475 (at node 60)
	maximum = 0.015 (at node 12)
Injected flit rate average = 0.00992969
	minimum = 0.0045 (at node 39)
	maximum = 0.015 (at node 33)
Accepted flit rate average= 0.00993359
	minimum = 0.00475 (at node 60)
	maximum = 0.015 (at node 12)
Injected packet length average = 1
Accepted packet length average = 1
Total in-flight flits = 24 (24 measured)
latency change    = 0.0008317
throughput change = 0.0127146
Draining all recorded packets ...
Draining remaining packets ...
Time taken is 7147 cycles
Class 0:
Packet latency average = 33.8197
	minimum = 7
	maximum = 86
Network latency average = 33.8197
	minimum = 7
	maximum = 86
Slowest packet = 26887
Flit latency average = 33.8197
	minimum = 7
	maximum = 86
Slowest flit = 26887
Fragmentation average = 0
	minimum = 0
	maximum = 0
Injected packet rate average = 0.00990625
	minimum = 0.003 (at node 24)
	maximum = 0.018 (at node 38)
Accepted packet rate average = 0.00953125
	minimum = 0.002 (at node 39)
	maximum = 0.018 (at node 52)
Injected flit rate average = 0.00990625
	minimum = 0.003 (at node 24)
	maximum = 0.018 (at node 38)
Accepted flit rate average= 0.00953125
	minimum = 0.002 (at node 39)
	maximum = 0.018 (at node 52)
Injected packet length average = 1
Accepted packet length average = 1
Total in-flight flits = 24 (0 measured)
latency change    = 1
throughput change = 1
Class 0:
Packet latency average = 33.842
	minimum = 7
	maximum = 86
Network latency average = 33.842
	minimum = 7
	maximum = 86
Slowest packet = 26887
Flit latency average = 33.842
	minimum = 7
	maximum = 86
Slowest flit = 26887
Fragmentation average = 0
	minimum = 0
	maximum = 0
Injected packet rate average = 0.00989844
	minimum = 0.005 (at node 15)
	maximum = 0.0155 (at node 38)
Accepted packet rate average = 0.00974219
	minimum = 0.0045 (at node 57)
	maximum = 0.0155 (at node 52)
Injected flit rate average = 0.00989844
	minimum = 0.005 (at node 15)
	maximum = 0.0155 (at node 38)
Accepted flit rate average= 0.00974219
	minimum = 0.0045 (at node 57)
	maximum = 0.0155 (at node 52)
Injected packet length average = 1
Accepted packet length average = 1
Total in-flight flits = 20 (0 measured)
latency change    = 0.000660384
throughput change = 0.021652
Class 0:
Packet latency average = 33.6354
	minimum = 7
	maximum = 81
Network latency average = 33.6354
	minimum = 7
	maximum = 81
Slowest packet = 28080
Flit latency average = 33.6354
	minimum = 7
	maximum = 81
Slowest flit = 28080
Fragmentation average = 0
	minimum = 0
	maximum = 0
Injected packet rate average = 0.0100313
	minimum = 0.004 (at node 42)
	maximum = 0.016 (at node 52)
Accepted packet rate average = 0.00998438
	minimum = 0.004 (at node 25)
	maximum = 0.016 (at node 38)
Injected flit rate average = 0.0100313
	minimum = 0.004 (at node 42)
	maximum = 0.016 (at node 52)
Accepted flit rate average= 0.00998438
	minimum = 0.004 (at node 25)
	maximum = 0.016 (at node 38)
Injected packet length average = 1
Accepted packet length average = 1
Total in-flight flits = 23 (0 measured)
latency change    = 0.00614392
throughput change = 0.0242567
Warmed up ...Time used is 3000 cycles
Class 0:
Packet latency average = 33.8752
	minimum = 7
	maximum = 85
Network latency average = 33.8752
	minimum = 7
	maximum = 85
Slowest packet = 28710
Flit latency average = 34.3188
	minimum = 7
	maximum = 85
Slowest flit = 28710
Fragmentation average = 0
	minimum = 0
	maximum = 0
Injected packet rate average = 0.00992188
	minimum = 0.004 (at node 61)
	maximum = 0.016 (at node 30)
Accepted packet rate average = 0.01
	minimum = 0.004 (at node 47)
	maximum = 0.016 (at node 29)
Injected flit rate average = 0.00992188
	minimum = 0.004 (at node 61)
	maximum = 0.016 (at node 30)
Accepted flit rate average= 0.01
	minimum = 0.004 (at node 47)
	maximum = 0.016 (at node 29)
Injected packet length average = 1
Accepted packet length average = 1
Total in-flight flits = 18 (18 measured)
latency change    = 0.00707995
throughput change = 0.0015625
Class 0:
Packet latency average = 34.9123
	minimum = 7
	maximum = 86
Network latency average = 34.9123
	minimum = 7
	maximum = 86
Slowest packet = 29562
Flit latency average = 35.1055
	minimum = 7
	maximum = 86
Slowest flit = 29562
Fragmentation average = 0
	minimum = 0
	maximum = 0
Injected packet rate average = 0.0105234
	minimum = 0.005 (at node 18)
	maximum = 0.015 (at node 5)
Accepted packet rate average = 0.0105156
	minimum = 0.0045 (at node 18)
	maximum = 0.015 (at node 6)
Injected flit rate average = 0.0105234
	minimum = 0.005 (at node 18)
	maximum = 0.015 (at node 5)
Accepted flit rate average= 0.0105156
	minimum = 0.0045 (at node 18)
	maximum = 0.015 (at node 6)
Injected packet length average = 1
Accepted packet length average = 1
Total in-flight flits = 24 (24 measured)
latency change    = 0.0297064
throughput change = 0.0490342
Class 0:
Packet latency average = 34.2027
	minimum = 7
	maximum = 86
Network latency average = 34.2027
	minimum = 7
	maximum = 86
Slowest packet = 29562
Flit latency average = 34.3377
	minimum = 7
	maximum = 86
Slowest flit = 29562
Fragmentation average = 0
	minimum = 0
	maximum = 0
Injected packet rate average = 0.010651
	minimum = 0.00733333 (at node 14)
	maximum = 0.0146667 (at node 25)
Accepted packet rate average = 0.0106563
	minimum = 0.007 (at node 4)
	maximum = 0.0143333 (at node 11)
Injected flit rate average = 0.010651
	minimum = 0.00733333 (at node 14)
	maximum = 0.0146667 (at node 25)
Accepted flit rate average= 0.0106563
	minimum = 0.007 (at node 4)
	maximum = 0.0143333 (at node 11)
Injected packet length average = 1
Accepted packet length average = 1
Total in-flight flits = 22 (22 measured)
latency change    = 0.0207484
throughput change = 0.0131965
Draining all recorded packets ...
Draining remaining packets ...
Time taken is 6131 cycles
Class 0:
Packet latency average = 32.2385
	minimum = 7
	maximum = 83
Network latency average = 32.2385
	minimum = 7
	maximum = 83
Slowest packet = 30482
Flit latency average = 32.2385
	minimum = 7
	maximum = 83
Slowest flit = 30482
Fragmentation average = 0
	minimum = 0
	maximum = 0
Injected packet rate average = 0.00914062
	minimum = 0.003 (at node 31)
	maximum = 0.016 (at node 22)
Accepted packet rate average = 0.00884375
	minimum = 0.002 (at node 7)
	maximum = 0.016 (at node 50)
Injected flit rate average = 0.00914062
	minimum = 0.003 (at node 31)
	maximum = 0.016 (at node 22)
Accepted flit rate average= 0.00884375
	minimum = 0.002 (at node 7)
	maximum = 0.016 (at node 50)
Injected packet length average = 1
Accepted packet length average = 1
Total in-flight flits = 19 (0 measured)
latency change    = 1
throughput change = 1
Class 0:
Packet latency average = 33.4033
	minimum = 7
	maximum = 83
Network latency average = 33.4033
	minimum = 7
	maximum = 83
Slowest packet = 30482
Flit latency average = 33.4033
	minimum = 7
	maximum = 83
Slowest flit = 30482
Fragmentation average = 0
	minimum = 0
	maximum = 0
Injected packet rate average = 0.00960156
	minimum = 0.0045 (at node 31)
	maximum = 0.015 (at node 5)
Accepted packet rate average = 0.00945312
	minimum = 0.004 (at node 59)
	maximum = 0.0145 (at node 23)
Injected flit rate average = 0.00960156
	minimum = 0.0045 (at node 31)
	maximum = 0.015 (at node 5)
Accepted flit rate average= 0.00945312
	minimum = 0.004 (at node 59)
	maximum = 0.0145 (at node 23)
Injected packet length average = 1
Accepted packet length average = 1
Total in-flight flits = 19 (0 measured)
latency change    = 0.0348705
throughput change = 0.0644628
Class 0:
Packet latency average = 32.4628
	minimum = 7
	maximum = 95
Network latency average = 32.4628
	minimum = 7
	maximum = 95
Slowest packet = 31720
Flit latency average = 32.4628
	minimum = 7
	maximum = 95
Slowest flit = 31720
Fragmentation average = 0
	minimum = 0
	maximum = 0
Injected packet rate average = 0.00946875
	minimum = 0.005 (at node 14)
	maximum = 0.016 (at node 37)
Accepted packet rate average = 0.00945312
	minimum = 0.005 (at node 49)
	maximum = 0.016 (at node 60)
Injected flit rate average = 0.00946875
	minimum = 0.005 (at node 14)
	maximum = 0.016 (at node 37)
Accepted flit rate average= 0.00945312
	minimum = 0.005 (at node 49)
	maximum = 0.016 (at node 60)
Injected packet length average = 1
Accepted packet length average = 1
Total in-flight flits = 20 (0 measured)
latency change    = 0.0289715
throughput change = 0
Warmed up ...Time used is 3000 cycles
Class 0:
Packet latency average = 35.46
	minimum = 7
	maximum = 83
Network latency average = 35.46
	minimum = 7
	maximum = 83
Slowest packet = 32406
Flit latency average = 35.6968
	minimum = 7
	maximum = 83
Slowest flit = 32406
Fragmentation average = 0
	minimum = 0
	maximum = 0
Injected packet rate average = 0.00984375
	minimum = 0.003 (at node 17)
	maximum = 0.017 (at node 50)
Accepted packet rate average = 0.0096875
	minimum = 0.003 (at node 10)
	maximum = 0.018 (at node 22)
Injected flit rate average = 0.00984375
	minimum = 0.003 (at node 17)
	maximum = 0.017 (at node 50)
Accepted flit rate average= 0.0096875
	minimum = 0.003 (at node 10)
	maximum = 0.018 (at node 22)
Injected packet length average = 1
Accepted packet length average = 1
Total in-flight flits = 30 (30 measured)
latency change    = 0.0845231
throughput change = 0.0241935
Class 0:
Packet latency average = 34.7849
	minimum = 7
	maximum = 84
Network latency average = 34.7849
	minimum = 7
	maximum = 84
Slowest packet = 32894
Flit latency average = 34.9158
	minimum = 7
	maximum = 84
Slowest flit = 32894
Fragmentation average = 0
	minimum = 0
	maximum = 0
Injected packet rate average = 0.00950781
	minimum = 0.0035 (at node 17)
	maximum = 0.015 (at node 57)
Accepted packet rate average = 0.0095625
	minimum = 0.0035 (at node 10)
	maximum = 0.015 (at node 15)
Injected flit rate average = 0.00950781
	minimum = 0.0035 (at node 17)
	maximum = 0.015 (at node 57)
Accepted flit rate average= 0.0095625
	minimum = 0.0035 (at node 10)
	maximum = 0.015 (at node 15)
Injected packet length average = 1
Accepted packet length average = 1
Total in-flight flits = 13 (13 measured)
latency change    = 0.0194083
throughput change = 0.0130719
Class 0:
Packet latency average = 34.2238
	minimum = 7
	maximum = 84
Network latency average = 34.2238
	minimum = 7
	maximum = 84
Slowest packet = 32894
Flit latency average = 34.3155
	minimum = 7
	maximum = 84
Slowest flit = 32894
Fragmentation average = 0
	minimum = 0
	maximum = 0
Injected packet rate average = 0.00973437
	minimum = 0.005 (at node 17)
	maximum = 0.014 (at node 57)
Accepted packet rate average = 0.00973958
	minimum = 0.005 (at node 10)
	maximum = 0.0143333 (at node 15)
Injected flit rate average = 0.00973437
	minimum = 0.005 (at node 17)
	maximum = 0.014 (at node 57)
Accepted flit rate average= 0.00973958
	minimum = 0.005 (at node 10)
	maximum = 0.0143333 (at node 15)
Injected packet length average = 1
Accepted packet length average = 1
Total in-flight flits = 19 (19 measured)
latency change    = 0.016395
throughput change = 0.0181818
Class 0:
Packet latency average = 33.8922
	minimum = 7
	maximum = 84
Network latency average = 33.8922
	minimum = 7
	maximum = 84
Slowest packet = 32894
Flit latency average = 33.9633
	minimum = 7
	maximum = 84
Slowest flit = 32894
Fragmentation average = 0
	minimum = 0
	maximum = 0
Injected packet rate average = 0.00980859
	minimum = 0.007 (at node 17)
	maximum = 0.013 (at node 24)
Accepted packet rate average = 0.00978516
	minimum = 0.007 (at node 10)
	maximum = 0.01325 (at node 3)
Injected flit rate average = 0.00980859
	minimum = 0.007 (at node 17)
	maximum = 0.013 (at node 24)
Accepted flit rate average= 0.00978516
	minimum = 0.007 (at node 10)
	maximum = 0.01325 (at node 3)
Injected packet length average = 1
Accepted packet length average = 1
Total in-flight flits = 26 (26 measured)
latency change    = 0.00978489
throughput change = 0.00465735
Draining all recorded packets ...
Draining remaining packets ...
Time taken is 7159 cycles
Class 0:
Packet latency average = 33.7211
	minimum = 7
	maximum = 83
Network latency average = 33.7211
	minimum = 7
	maximum = 83
Slowest packet = 34965
Flit latency average = 33.7211
	minimum = 7
	maximum = 83
Slowest flit = 34965
Fragmentation average = 0
	minimum = 0
	maximum = 0
Injected packet rate average = 0.0105469
	minimum = 0.004 (at node 21)
	maximum = 0.019 (at node 13)
Accepted packet rate average = 0.0101406
	minimum = 0.004 (at node 42)
	maximum = 0.017 (at node 41)
Injected flit rate average = 0.0105469
	minimum = 0.004 (at node 21)
	maximum = 0.019 (at node 13)
Accepted flit rate average= 0.0101406
	minimum = 0.004 (at node 42)
	maximum = 0.017 (at node 41)
Injected packet length average = 1
Accepted packet length average = 1
Total in-flight flits = 26 (0 measured)
latency change    = 1
throughput change = 1
Class 0:
Packet latency average = 33.3705
	minimum = 7
	maximum = 90
Network latency average = 33.3705
	minimum = 7
	maximum = 90
Slowest packet = 36017
Flit latency average = 33.3705
	minimum = 7
	maximum = 90
Slowest flit = 36017
Fragmentation average = 0
	minimum = 0
	maximum = 0
Injected packet rate average = 0.0100859
	minimum = 0.0055 (at node 2)
	maximum = 0.015 (at node 13)
Accepted packet rate average = 0.00986719
	minimum = 0.0055 (at node 16)
	maximum = 0.015 (at node 41)
Injected flit rate average = 0.0100859
	minimum = 0.0055 (at node 2)
	maximum = 0.015 (at node 13)
Accepted flit rate average= 0.00986719
	minimum = 0.0055 (at node 16)
	maximum = 0.015 (at node 41)
Injected packet length average = 1
Accepted packet length average = 1
Total in-flight flits = 28 (0 measured)
latency change    = 0.0105052
throughput change = 0.0277118
Class 0:
Packet latency average = 32.7
	minimum = 7
	maximum = 83
Network latency average = 32.7
	minimum = 7
	maximum = 83
Slowest packet = 36529
Flit latency average = 32.7
	minimum = 7
	maximum = 83
Slowest flit = 36529
Fragmentation average = 0
	minimum = 0
	maximum = 0
Injected packet rate average = 0.0102031
	minimum = 0.004 (at node 28)
	maximum = 0.017 (at node 0)
Accepted packet rate average = 0.0103125
	minimum = 0.003 (at node 35)
	maximum = 0.016 (at node 0)
Injected flit rate average = 0.0102031
	minimum = 0.004 (at node 28)
	maximum = 0.017 (at node 0)
Accepted flit rate average= 0.0103125
	minimum = 0.003 (at node 35)
	maximum = 0.016 (at node 0)
Injected packet length average = 1
Accepted packet length average = 1
Total in-flight flits = 21 (0 measured)
latency change    = 0.020506
throughput change = 0.0431818
Warmed up ...Time used is 3000 cycles
Class 0:
Packet latency average = 33.0287
	minimum = 7
	maximum = 84
Network latency average = 33.0287
	minimum = 7
	maximum = 84
Slowest packet = 37167
Flit latency average = 33.3719
	minimum = 7
	maximum = 84
Slowest flit = 37167
Fragmentation average = 0
	minimum = 0
	maximum = 0
Injected packet rate average = 0.0102188
	minimum = 0.005 (at node 0)
	maximum = 0.017 (at node 20)
Accepted packet rate average = 0.010125
	minimum = 0.004 (at node 16)
	maximum = 0.017 (at node 13)
Injected flit rate average = 0.0102188
	minimum = 0.005 (at node 0)
	maximum = 0.017 (at node 20)
Accepted flit rate average= 0.010125
	minimum = 0.004 (at node 16)
	maximum = 0.017 (at node 13)
Injected packet length average = 1
Accepted packet length average = 1
Total in-flight flits = 27 (27 measured)
latency change    = 0.00995219
throughput change = 0.0185185
Class 0:
Packet latency average = 33.587
	minimum = 7
	maximum = 84
Network latency average = 33.587
	minimum = 7
	maximum = 84
Slowest packet = 37167
Flit latency average = 33.7479
	minimum = 7
	maximum = 84
Slowest flit = 37167
Fragmentation average = 0
	minimum = 0
	maximum = 0
Injected packet rate average = 0.0101953
	minimum = 0.0055 (at node 9)
	maximum = 0.0165 (at node 5)
Accepted packet rate average = 0.0102266
	minimum = 0.0055 (at node 4)
	maximum = 0.0165 (at node 40)
Injected flit rate average = 0.0101953
	minimum = 0.0055 (at node 9)
	maximum = 0.0165 (at node 5)
Accepted flit rate average= 0.0102266
	minimum = 0.0055 (at node 4)
	maximum = 0.0165 (at node 40)
Injected packet length average = 1
Accepted packet length average = 1
Total in-flight flits = 17 (17 measured)
latency change    = 0.016621
throughput change = 0.00993125
Class 0:
Packet latency average = 33.3957
	minimum = 7
	maximum = 84
Network latency average = 33.3957
	minimum = 7
	maximum = 84
Slowest packet = 37167
Flit latency average = 33.5062
	minimum = 7
	maximum = 84
Slowest flit = 37167
Fragmentation average = 0
	minimum = 0
	maximum = 0
Injected packet rate average = 0.0101146
	minimum = 0.006 (at node 32)
	maximum = 0.0163333 (at node 5)
Accepted packet rate average = 0.010125
	minimum = 0.00533333 (at node 4)
	maximum = 0.016 (at node 40)
Injected flit rate average = 0.0101146
	minimum = 0.006 (at node 32)
	maximum = 0.0163333 (at node 5)
Accepted flit rate average= 0.010125
	minimum = 0.00533333 (at node 4)
	maximum = 0.016 (at node 40)
Injected packet length average = 1
Accepted packet length average = 1
Total in-flight flits = 19 (19 measured)
latency change    = 0.0057259
throughput change = 0.0100309
Draining all recorded packets ...
Draining remaining packets ...
Time taken is 6126 cycles
Class 0:
Packet latency average = 34.325
	minimum = 7
	maximum = 78
Network latency average = 34.325
	minimum = 7
	maximum = 78
Slowest packet = 38879
Flit latency average = 34.325
	minimum = 7
	maximum = 78
Slowest flit = 38879
Fragmentation average = 0
	minimum = 0
	maximum = 0
Injected packet rate average = 0.00970312
	minimum = 0.002 (at node 46)
	maximum = 0.018 (at node 7)
Accepted packet rate average = 0.00942187
	minimum = 0.002 (at node 53)
	maximum = 0.017 (at node 56)
Injected flit rate average = 0.00970312
	minimum = 0.002 (at node 46)
	maximum = 0.018 (at node 7)
Accepted flit rate average= 0.00942187
	minimum = 0.002 (at node 53)
	maximum = 0.017 (at node 56)
Injected packet length average = 1
Accepted packet length average = 1
Total in-flight flits = 18 (0 measured)
latency change    = 1
throughput change = 1
Class 0:
Packet latency average = 34.2016
	minimum = 7
	maximum = 85
Network latency average = 34.2016
	minimum = 7
	maximum = 85
Slowest packet = 39472
Flit latency average = 34.2016
	minimum = 7
	maximum = 85
Slowest flit = 39472
Fragmentation average = 0
	minimum = 0
	maximum = 0
Injected packet rate average = 0.0101719
	minimum = 0.005 (at node 10)
	maximum = 0.0155 (at node 7)
Accepted packet rate average = 0.01
	minimum = 0.005 (at node 17)
	maximum = 0.015 (at node 36)
Injected flit rate average = 0.0101719
	minimum = 0.005 (at node 10)
	maximum = 0.0155 (at node 7)
Accepted flit rate average= 0.01
	minimum = 0.005 (at node 17)
	maximum = 0.015 (at node 36)
Injected packet length average = 1
Accepted packet length average = 1
Total in-flight flits = 22 (0 measured)
latency change    = 0.00361033
throughput change = 0.0578125
Class 0:
Packet latency average = 32.5504
	minimum = 7
	maximum = 85
Network latency average = 32.5504
	minimum = 7
	maximum = 85
Slowest packet = 40046
Flit latency average = 32.5504
	minimum = 7
	maximum = 85
Slowest flit = 40046
Fragmentation average = 0
	minimum = 0
	maximum = 0
Injected packet rate average = 0.0105625
	minimum = 0.002 (at node 56)
	maximum = 0.018 (at node 44)
Accepted packet rate average = 0.0107031
	minimum = 0.003 (at node 7)
	maximum = 0.018 (at node 1)
Injected flit rate average = 0.0105625
	minimum = 0.002 (at node 56)
	maximum = 0.018 (at node 44)
Accepted flit rate average= 0.0107031
	minimum = 0.003 (at node 7)
	maximum = 0.018 (at node 1)
Injected packet length average = 1
Accepted packet length average = 1
Total in-flight flits = 13 (0 measured)
latency change    = 0.0507275
throughput change = 0.0656934
Warmed up ...Time used is 3000 cycles
Class 0:
Packet latency average = 32.1122
	minimum = 7
	maximum = 85
Network latency average = 32.1122
	minimum = 7
	maximum = 85
Slowest packet = 41238
Flit latency average = 32.3475
	minimum = 7
	maximum = 85
Slowest flit = 41238
Fragmentation average = 0
	minimum = 0
	maximum = 0
Injected packet rate average = 0.00975
	minimum = 0.003 (at node 7)
	maximum = 0.019 (at node 40)
Accepted packet rate average = 0.00953125
	minimum = 0.002 (at node 6)
	maximum = 0.018 (at node 5)
Injected flit rate average = 0.00975
	minimum = 0.003 (at node 7)
	maximum = 0.019 (at node 40)
Accepted flit rate average= 0.00953125
	minimum = 0.002 (at node 6)
	maximum = 0.018 (at node 5)
Injected packet length average = 1
Accepted packet length average = 1
Total in-flight flits = 27 (27 measured)
latency change    = 0.0136439
throughput change = 0.122951
Class 0:
Packet latency average = 32.7584
	minimum = 7
	maximum = 85
Network latency average = 32.7584
	minimum = 7
	maximum = 85
Slowest packet = 41238
Flit latency average = 32.865
	minimum = 7
	maximum = 85
Slowest flit = 41238
Fragmentation average = 0
	minimum = 0
	maximum = 0
Injected packet rate average = 0.00992969
	minimum = 0.0055 (at node 14)
	maximum = 0.016 (at node 6)
Accepted packet rate average = 0.00989844
	minimum = 0.0055 (at node 49)
	maximum = 0.0155 (at node 48)
Injected flit rate average = 0.00992969
	minimum = 0.0055 (at node 14)
	maximum = 0.016 (at node 6)
Accepted flit rate average= 0.00989844
	minimum = 0.0055 (at node 49)
	maximum = 0.0155 (at node 48)
Injected packet length average = 1
Accepted packet length average = 1
Total in-flight flits = 17 (17 measured)
latency change    = 0.0197246
throughput change = 0.0370955
Class 0:
Packet latency average = 33.2453
	minimum = 7
	maximum = 91
Network latency average = 33.2453
	minimum = 7
	maximum = 91
Slowest packet = 42409
Flit latency average = 33.3117
	minimum = 7
	maximum = 91
Slowest flit = 42409
Fragmentation average = 0
	minimum = 0
	maximum = 0
Injected packet rate average = 0.0101406
	minimum = 0.006 (at node 54)
	maximum = 0.0153333 (at node 6)
Accepted packet rate average = 0.0101094
	minimum = 0.006 (at node 54)
	maximum = 0.0153333 (at node 48)
Injected flit rate average = 0.0101406
	minimum = 0.006 (at node 54)
	maximum = 0.0153333 (at node 6)
Accepted flit rate average= 0.0101094
	minimum = 0.006 (at node 54)
	maximum = 0.0153333 (at node 48)
Injected packet length average = 1
Accepted packet length average = 1
Total in-flight flits = 19 (19 measured)
latency change    = 0.0146474
throughput change = 0.0208655
Class 0:
Packet latency average = 33.0635
	minimum = 7
	maximum = 91
Network latency average = 33.0635
	minimum = 7
	maximum = 91
Slowest packet = 42409
Flit latency average = 33.1147
	minimum = 7
	maximum = 91
Slowest flit = 42409
Fragmentation average = 0
	minimum = 0
	maximum = 0
Injected packet rate average = 0.0100469
	minimum = 0.0065 (at node 54)
	maximum = 0.01375 (at node 18)
Accepted packet rate average = 0.0100156
	minimum = 0.0065 (at node 54)
	maximum = 0.01375 (at node 18)
Injected flit rate average = 0.0100469
	minimum = 0.0065 (at node 54)
	maximum = 0.01375 (at node 18)
Accepted flit rate average= 0.0100156
	minimum = 0.0065 (at node 54)
	maximum = 0.01375 (at node 18)
Injected packet length average = 1
Accepted packet length average = 1
Total in-flight flits = 21 (21 measured)
latency change    = 0.00549934
throughput change = 0.00936037
Draining all recorded packets ...
Draining remaining packets ...
Time taken is 7131 cycles
Class 0:
Packet latency average = 33.0522
	minimum = 7
	maximum = 93
Network latency average = 33.0522
	minimum = 7
	maximum = 93
Slowest packet = 43827
Flit latency average = 33.0522
	minimum = 7
	maximum = 93
Slowest flit = 43827
Fragmentation average = 0
	minimum = 0
	maximum = 0
Injected packet rate average = 0.0102656
	minimum = 0.004 (at node 21)
	maximum = 0.021 (at node 43)
Accepted packet rate average = 0.009875
	minimum = 0.004 (at node 42)
	maximum = 0.021 (at node 29)
Injected flit rate average = 0.0102656
	minimum = 0.004 (at node 21)
	maximum = 0.021 (at node 43)
Accepted flit rate average= 0.009875
	minimum = 0.004 (at node 42)
	maximum = 0.021 (at node 29)
Injected packet length average = 1
Accepted packet length average = 1
Total in-flight flits = 25 (0 measured)
latency change    = 1
throughput change = 1
Class 0:
Packet latency average = 33.0468
	minimum = 7
	maximum = 93
Network latency average = 33.0468
	minimum = 7
	maximum = 93
Slowest packet = 43827
Flit latency average = 33.0468
	minimum = 7
	maximum = 93
Slowest flit = 43827
Fragmentation average = 0
	minimum = 0
	maximum = 0
Injected packet rate average = 0.00980469
	minimum = 0.006 (at node 59)
	maximum = 0.0145 (at node 25)
Accepted packet rate average = 0.00967187
	minimum = 0.0055 (at node 31)
	maximum = 0.0145 (at node 11)
Injected flit rate average = 0.00980469
	minimum = 0.006 (at node 59)
	maximum = 0.0145 (at node 25)
Accepted flit rate average= 0.00967187
	minimum = 0.0055 (at node 31)
	maximum = 0.0145 (at node 11)
Injected packet length average = 1
Accepted packet length average = 1
Total in-flight flits = 17 (0 measured)
latency change    = 0.000162358
throughput change = 0.0210016
Class 0:
Packet latency average = 34.2697
	minimum = 7
	maximum = 87
Network latency average = 34.2697
	minimum = 7
	maximum = 87
Slowest packet = 44669
Flit latency average = 34.2697
	minimum = 7
	maximum = 87
Slowest flit = 44669
Fragmentation average = 0
	minimum = 0
	maximum = 0
Injected packet rate average = 0.0105938
	minimum = 0.006 (at node 19)
	maximum = 0.018 (at node 10)
Accepted packet rate average = 0.0104844
	minimum = 0.006 (at node 22)
	maximum = 0.019 (at node 17)
Injected flit rate average = 0.0105938
	minimum = 0.006 (at node 19)
	maximum = 0.018 (at node 10)
Accepted flit rate average= 0.0104844
	minimum = 0.006 (at node 22)
	maximum = 0.019 (at node 17)
Injected packet length average = 1
Accepted packet length average = 1
Total in-flight flits = 24 (0 measured)
latency change    = 0.0356844
throughput change = 0.0774963
Warmed up ...Time used is 3000 cycles
Class 0:
Packet latency average = 33.3955
	minimum = 7
	maximum = 92
Network latency average = 33.3955
	minimum = 7
	maximum = 92
Slowest packet = 45662
Flit latency average = 33.7747
	minimum = 7
	maximum = 92
Slowest flit = 45662
Fragmentation average = 0
	minimum = 0
	maximum = 0
Injected packet rate average = 0.00946875
	minimum = 0.004 (at node 26)
	maximum = 0.018 (at node 10)
Accepted packet rate average = 0.0095
	minimum = 0.004 (at node 19)
	maximum = 0.019 (at node 17)
Injected flit rate average = 0.00946875
	minimum = 0.004 (at node 26)
	maximum = 0.018 (at node 10)
Accepted flit rate average= 0.0095
	minimum = 0.004 (at node 19)
	maximum = 0.019 (at node 17)
Injected packet length average = 1
Accepted packet length average = 1
Total in-flight flits = 22 (22 measured)
latency change    = 0.0261771
throughput change = 0.103618
Class 0:
Packet latency average = 32.9668
	minimum = 7
	maximum = 92
Network latency average = 32.9668
	minimum = 7
	maximum = 92
Slowest packet = 45662
Flit latency average = 33.1629
	minimum = 7
	maximum = 92
Slowest flit = 45662
Fragmentation average = 0
	minimum = 0
	maximum = 0
Injected packet rate average = 0.00954687
	minimum = 0.005 (at node 30)
	maximum = 0.014 (at node 21)
Accepted packet rate average = 0.00959375
	minimum = 0.0045 (at node 51)
	maximum = 0.014 (at node 20)
Injected flit rate average = 0.00954687
	minimum = 0.005 (at node 30)
	maximum = 0.014 (at node 21)
Accepted flit rate average= 0.00959375
	minimum = 0.0045 (at node 51)
	maximum = 0.014 (at node 20)
Injected packet length average = 1
Accepted packet length average = 1
Total in-flight flits = 18 (18 measured)
latency change    = 0.0130061
throughput change = 0.00977199
Class 0:
Packet latency average = 33.3492
	minimum = 7
	maximum = 92
Network latency average = 33.3492
	minimum = 7
	maximum = 92
Slowest packet = 45662
Flit latency average = 33.4719
	minimum = 7
	maximum = 92
Slowest flit = 45662
Fragmentation average = 0
	minimum = 0
	maximum = 0
Injected packet rate average = 0.00979688
	minimum = 0.006 (at node 38)
	maximum = 0.013 (at node 19)
Accepted packet rate average = 0.00983333
	minimum = 0.00633333 (at node 52)
	maximum = 0.0123333 (at node 26)
Injected flit rate average = 0.00979688
	minimum = 0.006 (at node 38)
	maximum = 0.013 (at node 19)
Accepted flit rate average= 0.00983333
	minimum = 0.00633333 (at node 52)
	maximum = 0.0123333 (at node 26)
Injected packet length average = 1
Accepted packet length average = 1
Total in-flight flits = 17 (17 measured)
latency change    = 0.0114687
throughput change = 0.0243644
Class 0:
Packet latency average = 33.6766
	minimum = 7
	maximum = 92
Network latency average = 33.6766
	minimum = 7
	maximum = 92
Slowest packet = 45662
Flit latency average = 33.7655
	minimum = 7
	maximum = 92
Slowest flit = 45662
Fragmentation average = 0
	minimum = 0
	maximum = 0
Injected packet rate average = 0.00979688
	minimum = 0.00575 (at node 38)
	maximum = 0.0125 (at node 8)
Accepted packet rate average = 0.00982813
	minimum = 0.006 (at node 52)
	maximum = 0.0125 (at node 1)
Injected flit rate average = 0.00979688
	minimum = 0.00575 (at node 38)
	maximum = 0.0125 (at node 8)
Accepted flit rate average= 0.00982813
	minimum = 0.006 (at node 52)
	maximum = 0.0125 (at node 1)
Injected packet length average = 1
Accepted packet length average = 1
Total in-flight flits = 16 (16 measured)
latency change    = 0.0097194
throughput change = 0.000529942
Draining all recorded packets ...
Draining remaining packets ...
Time taken is 7143 cycles
Class 0:
Packet latency average = 32.4625
	minimum = 7
	maximum = 78
Network latency average = 32.4625
	minimum = 7
	maximum = 78
Slowest packet = 48280
Flit latency average = 32.4625
	minimum = 7
	maximum = 78
Slowest flit = 48280
Fragmentation average = 0
	minimum = 0
	maximum = 0
Injected packet rate average = 0.0101406
	minimum = 0.004 (at node 5)
	maximum = 0.018 (at node 21)
Accepted packet rate average = 0.00979688
	minimum = 0.004 (at node 40)
	maximum = 0.018 (at node 42)
Injected flit rate average = 0.0101406
	minimum = 0.004 (at node 5)
	maximum = 0.018 (at node 21)
Accepted flit rate average= 0.00979688
	minimum = 0.004 (at node 40)
	maximum = 0.018 (at node 42)
Injected packet length average = 1
Accepted packet length average = 1
Total in-flight flits = 22 (0 measured)
latency change    = 1
throughput change = 1
Class 0:
Packet latency average = 33.5208
	minimum = 7
	maximum = 84
Network latency average = 33.5208
	minimum = 7
	maximum = 84
Slowest packet = 49017
Flit latency average = 33.5208
	minimum = 7
	maximum = 84
Slowest flit = 49017
Fragmentation average = 0
	minimum = 0
	maximum = 0
Injected packet rate average = 0.00994531
	minimum = 0.006 (at node 24)
	maximum = 0.0145 (at node 21)
Accepted packet rate average = 0.00976562
	minimum = 0.006 (at node 3)
	maximum = 0.0145 (at node 42)
Injected flit rate average = 0.00994531
	minimum = 0.006 (at node 24)
	maximum = 0.0145 (at node 21)
Accepted flit rate average= 0.00976562
	minimum = 0.006 (at node 3)
	maximum = 0.0145 (at node 42)
Injected packet length average = 1
Accepted packet length average = 1
Total in-flight flits = 23 (0 measured)
latency change    = 0.0315708
throughput change = 0.0032
Class 0:
Packet latency average = 32.4893
	minimum = 7
	maximum = 80
Network latency average = 32.4893
	minimum = 7
	maximum = 80
Slowest packet = 49192
Flit latency average = 32.4893
	minimum = 7
	maximum = 80
Slowest flit = 49192
Fragmentation average = 0
	minimum = 0
	maximum = 0
Injected packet rate average = 0.0102344
	minimum = 0.002 (at node 31)
	maximum = 0.02 (at node 51)
Accepted packet rate average = 0.0102188
	minimum = 0.002 (at node 59)
	maximum = 0.019 (at node 15)
Injected flit rate average = 0.0102344
	minimum = 0.002 (at node 31)
	maximum = 0.02 (at node 51)
Accepted flit rate average= 0.0102188
	minimum = 0.002 (at node 59)
	maximum = 0.019 (at node 15)
Injected packet length average = 1
Accepted packet length average = 1
Total in-flight flits = 24 (0 measured)
latency change    = 0.031749
throughput change = 0.0443425
Warmed up ...Time used is 3000 cycles
Class 0:
Packet latency average = 32.5442
	minimum = 7
	maximum = 77
Network latency average = 32.5442
	minimum = 7
	maximum = 77
Slowest packet = 49797
Flit latency average = 33.2466
	minimum = 7
	maximum = 77
Slowest flit = 49731
Fragmentation average = 0
	minimum = 0
	maximum = 0
Injected packet rate average = 0.0103125
	minimum = 0.005 (at node 12)
	maximum = 0.02 (at node 5)
Accepted packet rate average = 0.0104531
	minimum = 0.004 (at node 33)
	maximum = 0.019 (at node 20)
Injected flit rate average = 0.0103125
	minimum = 0.005 (at node 12)
	maximum = 0.02 (at node 5)
Accepted flit rate average= 0.0104531
	minimum = 0.004 (at node 33)
	maximum = 0.019 (at node 20)
Injected packet length average = 1
Accepted packet length average = 1
Total in-flight flits = 15 (15 measured)
latency change    = 0.00168661
throughput change = 0.0224215
Class 0:
Packet latency average = 32.8626
	minimum = 7
	maximum = 85
Network latency average = 32.8626
	minimum = 7
	maximum = 85
Slowest packet = 50672
Flit latency average = 33.2188
	minimum = 7
	maximum = 85
Slowest flit = 50672
Fragmentation average = 0
	minimum = 0
	maximum = 0
Injected packet rate average = 0.0101328
	minimum = 0.005 (at node 20)
	maximum = 0.0155 (at node 46)
Accepted packet rate average = 0.0101406
	minimum = 0.005 (at node 34)
	maximum = 0.016 (at node 22)
Injected flit rate average = 0.0101328
	minimum = 0.005 (at node 20)
	maximum = 0.0155 (at node 46)
Accepted flit rate average= 0.0101406
	minimum = 0.005 (at node 34)
	maximum = 0.016 (at node 22)
Injected packet length average = 1
Accepted packet length average = 1
Total in-flight flits = 23 (23 measured)
latency change    = 0.00969038
throughput change = 0.0308166
Class 0:
Packet latency average = 32.8938
	minimum = 7
	maximum = 87
Network latency average = 32.8938
	minimum = 7
	maximum = 87
Slowest packet = 51437
Flit latency average = 33.1346
	minimum = 7
	maximum = 87
Slowest flit = 51437
Fragmentation average = 0
	minimum = 0
	maximum = 0
Injected packet rate average = 0.00997396
	minimum = 0.00633333 (at node 33)
	maximum = 0.0136667 (at node 1)
Accepted packet rate average = 0.00998438
	minimum = 0.00633333 (at node 12)
	maximum = 0.0136667 (at node 8)
Injected flit rate average = 0.00997396
	minimum = 0.00633333 (at node 33)
	maximum = 0.0136667 (at node 1)
Accepted flit rate average= 0.00998438
	minimum = 0.00633333 (at node 12)
	maximum = 0.0136667 (at node 8)
Injected packet length average = 1
Accepted packet length average = 1
Total in-flight flits = 22 (22 measured)
latency change    = 0.000947958
throughput change = 0.0156495
Draining all recorded packets ...
Draining remaining packets ...
Time taken is 6130 cycles
Class 0:
Packet latency average = 32.8949
	minimum = 7
	maximum = 89
Network latency average = 32.8949
	minimum = 7
	maximum = 89
Slowest packet = 51927
Flit latency average = 32.8949
	minimum = 7
	maximum = 89
Slowest flit = 51927
Fragmentation average = 0
	minimum = 0
	maximum = 0
Injected packet rate average = 0.0093125
	minimum = 0.003 (at node 59)
	maximum = 0.019 (at node 17)
Accepted packet rate average = 0.00892187
	minimum = 0.003 (at node 31)
	maximum = 0.019 (at node 10)
Injected flit rate average = 0.0093125
	minimum = 0.003 (at node 59)
	maximum = 0.019 (at node 17)
Accepted flit rate average= 0.00892187
	minimum = 0.003 (at node 31)
	maximum = 0.019 (at node 10)
Injected packet length average = 1
Accepted packet length average = 1
Total in-flight flits = 25 (0 measured)
latency change    = 1
throughput change = 1
Class 0:
Packet latency average = 33.4647
	minimum = 7
	maximum = 89
Network latency average = 33.4647
	minimum = 7
	maximum = 89
Slowest packet = 51927
Flit latency average = 33.4647
	minimum = 7
	maximum = 89
Slowest flit = 51927
Fragmentation average = 0
	minimum = 0
	maximum = 0
Injected packet rate average = 0.00934375
	minimum = 0.005 (at node 8)
	maximum = 0.015 (at node 32)
Accepted packet rate average = 0.00919531
	minimum = 0.005 (at node 1)
	maximum = 0.015 (at node 4)
Injected flit rate average = 0.00934375
	minimum = 0.005 (at node 8)
	maximum = 0.015 (at node 32)
Accepted flit rate average= 0.00919531
	minimum = 0.005 (at node 1)
	maximum = 0.015 (at node 4)
Injected packet length average = 1
Accepted packet length average = 1
Total in-flight flits = 19 (0 measured)
latency change    = 0.0170275
throughput change = 0.0297366
Class 0:
Packet latency average = 33.2895
	minimum = 7
	maximum = 84
Network latency average = 33.2895
	minimum = 7
	maximum = 84
Slowest packet = 53083
Flit latency average = 33.2895
	minimum = 7
	maximum = 84
Slowest flit = 53083
Fragmentation average = 0
	minimum = 0
	maximum = 0
Injected packet rate average = 0.0100313
	minimum = 0.004 (at node 4)
	maximum = 0.016 (at node 5)
Accepted packet rate average = 0.00998438
	minimum = 0.004 (at node 32)
	maximum = 0.016 (at node 40)
Injected flit rate average = 0.0100313
	minimum = 0.004 (at node 4)
	maximum = 0.016 (at node 5)
Accepted flit rate average= 0.00998438
	minimum = 0.004 (at node 32)
	maximum = 0.016 (at node 40)
Injected packet length average = 1
Accepted packet length average = 1
Total in-flight flits = 22 (0 measured)
latency change    = 0.0052637
throughput change = 0.0790297
Warmed up ...Time used is 3000 cycles
Class 0:
Packet latency average = 32.2985
	minimum = 7
	maximum = 91
Network latency average = 32.2985
	minimum = 7
	maximum = 91
Slowest packet = 53826
Flit latency average = 32.6065
	minimum = 7
	maximum = 91
Slowest flit = 53826
Fragmentation average = 0
	minimum = 0
	maximum = 0
Injected packet rate average = 0.0094375
	minimum = 0.003 (at node 13)
	maximum = 0.018 (at node 36)
Accepted packet rate average = 0.00960937
	minimum = 0.003 (at node 41)
	maximum = 0.018 (at node 36)
Injected flit rate average = 0.0094375
	minimum = 0.003 (at node 13)
	maximum = 0.018 (at node 36)
Accepted flit rate average= 0.00960937
	minimum = 0.003 (at node 41)
	maximum = 0.018 (at node 36)
Injected packet length average = 1
Accepted packet length average = 1
Total in-flight flits = 11 (11 measured)
latency change    = 0.0306836
throughput change = 0.0390244
Class 0:
Packet latency average = 32.7823
	minimum = 7
	maximum = 91
Network latency average = 32.7823
	minimum = 7
	maximum = 91
Slowest packet = 53826
Flit latency average = 32.9239
	minimum = 7
	maximum = 91
Slowest flit = 53826
Fragmentation average = 0
	minimum = 0
	maximum = 0
Injected packet rate average = 0.00985156
	minimum = 0.006 (at node 8)
	maximum = 0.018 (at node 36)
Accepted packet rate average = 0.00985938
	minimum = 0.0055 (at node 60)
	maximum = 0.018 (at node 36)
Injected flit rate average = 0.00985156
	minimum = 0.006 (at node 8)
	maximum = 0.018 (at node 36)
Accepted flit rate average= 0.00985938
	minimum = 0.0055 (at node 60)
	maximum = 0.018 (at node 36)
Injected packet length average = 1
Accepted packet length average = 1
Total in-flight flits = 21 (21 measured)
latency change    = 0.0147572
throughput change = 0.0253566
Class 0:
Packet latency average = 32.8001
	minimum = 7
	maximum = 91
Network latency average = 32.8001
	minimum = 7
	maximum = 91
Slowest packet = 53826
Flit latency average = 32.8924
	minimum = 7
	maximum = 91
Slowest flit = 53826
Fragmentation average = 0
	minimum = 0
	maximum = 0
Injected packet rate average = 0.010026
	minimum = 0.00633333 (at node 35)
	maximum = 0.015 (at node 36)
Accepted packet rate average = 0.0100677
	minimum = 0.00666667 (at node 56)
	maximum = 0.015 (at node 36)
Injected flit rate average = 0.010026
	minimum = 0.00633333 (at node 35)
	maximum = 0.015 (at node 36)
Accepted flit rate average= 0.0100677
	minimum = 0.00666667 (at node 56)
	maximum = 0.015 (at node 36)
Injected packet length average = 1
Accepted packet length average = 1
Total in-flight flits = 14 (14 measured)
latency change    = 0.000544102
throughput change = 0.0206932
Draining all recorded packets ...
Draining remaining packets ...
Time taken is 6124 cycles
Class 0:
Packet latency average = 32.8396
	minimum = 7
	maximum = 84
Network latency average = 32.8396
	minimum = 7
	maximum = 84
Slowest packet = 56016
Flit latency average = 32.8396
	minimum = 7
	maximum = 84
Slowest flit = 56016
Fragmentation average = 0
	minimum = 0
	maximum = 0
Injected packet rate average = 0.0102656
	minimum = 0.003 (at node 59)
	maximum = 0.019 (at node 42)
Accepted packet rate average = 0.0099375
	minimum = 0.003 (at node 31)
	maximum = 0.019 (at node 21)
Injected flit rate average = 0.0102656
	minimum = 0.003 (at node 59)
	maximum = 0.019 (at node 42)
Accepted flit rate average= 0.0099375
	minimum = 0.003 (at node 31)
	maximum = 0.019 (at node 21)
Injected packet length average = 1
Accepted packet length average = 1
Total in-flight flits = 21 (0 measured)
latency change    = 1
throughput change = 1
Class 0:
Packet latency average = 33.2036
	minimum = 7
	maximum = 86
Network latency average = 33.2036
	minimum = 7
	maximum = 86
Slowest packet = 56795
Flit latency average = 33.2036
	minimum = 7
	maximum = 86
Slowest flit = 56795
Fragmentation average = 0
	minimum = 0
	maximum = 0
Injected packet rate average = 0.0104453
	minimum = 0.0045 (at node 59)
	maximum = 0.0175 (at node 42)
Accepted packet rate average = 0.0102813
	minimum = 0.0045 (at node 31)
	maximum = 0.0175 (at node 21)
Injected flit rate average = 0.0104453
	minimum = 0.0045 (at node 59)
	maximum = 0.0175 (at node 42)
Accepted flit rate average= 0.0102813
	minimum = 0.0045 (at node 31)
	maximum = 0.0175 (at node 21)
Injected packet length average = 1
Accepted packet length average = 1
Total in-flight flits = 21 (0 measured)
latency change    = 0.0109634
throughput change = 0.0334347
Class 0:
Packet latency average = 31.6631
	minimum = 7
	maximum = 84
Network latency average = 31.6631
	minimum = 7
	maximum = 84
Slowest packet = 56875
Flit latency average = 31.6631
	minimum = 7
	maximum = 84
Slowest flit = 56875
Fragmentation average = 0
	minimum = 0
	maximum = 0
Injected packet rate average = 0.0102656
	minimum = 0.004 (at node 43)
	maximum = 0.02 (at node 63)
Accepted packet rate average = 0.01025
	minimum = 0.005 (at node 5)
	maximum = 0.021 (at node 63)
Injected flit rate average = 0.0102656
	minimum = 0.004 (at node 43)
	maximum = 0.02 (at node 63)
Accepted flit rate average= 0.01025
	minimum = 0.005 (at node 5)
	maximum = 0.021 (at node 63)
Injected packet length average = 1
Accepted packet length average = 1
Total in-flight flits = 22 (0 measured)
latency change    = 0.048654
throughput change = 0.00304878
Warmed up ...Time used is 3000 cycles
Class 0:
Packet latency average = 34.2016
	minimum = 7
	maximum = 84
Network latency average = 34.2016
	minimum = 7
	maximum = 84
Slowest packet = 57918
Flit latency average = 34.6549
	minimum = 7
	maximum = 84
Slowest flit = 57918
Fragmentation average = 0
	minimum = 0
	maximum = 0
Injected packet rate average = 0.0102031
	minimum = 0.003 (at node 54)
	maximum = 0.021 (at node 41)
Accepted packet rate average = 0.0101875
	minimum = 0.003 (at node 54)
	maximum = 0.021 (at node 13)
Injected flit rate average = 0.0102031
	minimum = 0.003 (at node 54)
	maximum = 0.021 (at node 41)
Accepted flit rate average= 0.0101875
	minimum = 0.003 (at node 54)
	maximum = 0.021 (at node 13)
Injected packet length average = 1
Accepted packet length average = 1
Total in-flight flits = 23 (23 measured)
latency change    = 0.074221
throughput change = 0.00613497
Class 0:
Packet latency average = 33.5364
	minimum = 7
	maximum = 84
Network latency average = 33.5364
	minimum = 7
	maximum = 84
Slowest packet = 57918
Flit latency average = 33.78
	minimum = 7
	maximum = 84
Slowest flit = 57918
Fragmentation average = 0
	minimum = 0
	maximum = 0
Injected packet rate average = 0.009875
	minimum = 0.0045 (at node 18)
	maximum = 0.015 (at node 49)
Accepted packet rate average = 0.00994531
	minimum = 0.0045 (at node 18)
	maximum = 0.015 (at node 14)
Injected flit rate average = 0.009875
	minimum = 0.0045 (at node 18)
	maximum = 0.015 (at node 49)
Accepted flit rate average= 0.00994531
	minimum = 0.0045 (at node 18)
	maximum = 0.015 (at node 14)
Injected packet length average = 1
[...]
	maximum = 0.016 (at node 56)
Injected flit rate average = 0.01
	minimum = 0.0045 (at node 25)
	maximum = 0.0165 (at node 7)
Accepted flit rate average= 0.00992188
	minimum = 0.0045 (at node 11)
	maximum = 0.016 (at node 56)
Injected packet length average = 1
Accepted packet length average = 1
Total in-flight flits = 31 (31 measured)
latency change    = 0.015022
throughput change = 0.023622
Class 0:
Packet latency average = 34.2047
	minimum = 7
	maximum = 90
Network latency average = 34.2047
	minimum = 7
	maximum = 90
Slowest packet = 409033
Flit latency average = 34.2576
	minimum = 7
	maximum = 90
Slowest flit = 409033
Fragmentation average = 0
	minimum = 0
	maximum = 0
Injected packet rate average = 0.0098125
	minimum = 0.005 (at node 25)
	maximum = 0.016 (at node 7)
Accepted packet rate average = 0.00982813
	minimum = 0.005 (at node 11)
	maximum = 0.0156667 (at node 56)
Injected flit rate average = 0.0098125
	minimum = 0.005 (at node 25)
	maximum = 0.016 (at node 7)
Accepted flit rate average= 0.00982813
	minimum = 0.005 (at node 11)
	maximum = 0.0156667 (at node 56)
Injected packet length average = 1
Accepted packet length average = 1
Total in-flight flits = 18 (18 measured)
latency change    = 0.0134285
throughput change = 0.00953895
Draining all recorded packets ...
Draining remaining packets ...
Time taken is 6124 cycles
Class 0:
Packet latency average = 33.2037
	minimum = 7
	maximum = 89
Network latency average = 33.2037
	minimum = 7
	maximum = 89
Slowest packet = 411254
Flit latency average = 33.2037
	minimum = 7
	maximum = 89
Slowest flit = 411254
Fragmentation average = 0
	minimum = 0
	maximum = 0
Injected packet rate average = 0.00948437
	minimum = 0.003 (at node 31)
	maximum = 0.018 (at node 5)
Accepted packet rate average = 0.00928125
	minimum = 0.003 (at node 5)
	maximum = 0.018 (at node 40)
Injected flit rate average = 0.00948437
	minimum = 0.003 (at node 31)
	maximum = 0.018 (at node 5)
Accepted flit rate average= 0.00928125
	minimum = 0.003 (at node 5)
	maximum = 0.018 (at node 40)
Injected packet length average = 1
Accepted packet length average = 1
Total in-flight flits = 13 (0 measured)
latency change    = 1
throughput change = 1
Class 0:
Packet latency average = 32.7786
	minimum = 7
	maximum = 89
Network latency average = 32.7786
	minimum = 7
	maximum = 89
Slowest packet = 411254
Flit latency average = 32.7786
	minimum = 7
	maximum = 89
Slowest flit = 411254
Fragmentation average = 0
	minimum = 0
	maximum = 0
Injected packet rate average = 0.00996875
	minimum = 0.0045 (at node 40)
	maximum = 0.0165 (at node 5)
Accepted packet rate average = 0.00970312
	minimum = 0.0045 (at node 5)
	maximum = 0.0165 (at node 40)
Injected flit rate average = 0.00996875
	minimum = 0.0045 (at node 40)
	maximum = 0.0165 (at node 5)
Accepted flit rate average= 0.00970312
	minimum = 0.0045 (at node 5)
	maximum = 0.0165 (at node 40)
Injected packet length average = 1
Accepted packet length average = 1
Total in-flight flits = 34 (0 measured)
latency change    = 0.0129695
throughput change = 0.0434783
Class 0:
Packet latency average = 32.9102
	minimum = 7
	maximum = 81
Network latency average = 32.9102
	minimum = 7
	maximum = 81
Slowest packet = 412010
Flit latency average = 32.9102
	minimum = 7
	maximum = 81
Slowest flit = 412010
Fragmentation average = 0
	minimum = 0
	maximum = 0
Injected packet rate average = 0.00965625
	minimum = 0.003 (at node 4)
	maximum = 0.02 (at node 34)
Accepted packet rate average = 0.00992188
	minimum = 0.004 (at node 32)
	maximum = 0.02 (at node 20)
Injected flit rate average = 0.00965625
	minimum = 0.003 (at node 4)
	maximum = 0.02 (at node 34)
Accepted flit rate average= 0.00992188
	minimum = 0.004 (at node 32)
	maximum = 0.02 (at node 20)
Injected packet length average = 1
Accepted packet length average = 1
Total in-flight flits = 17 (0 measured)
latency change    = 0.00400038
throughput change = 0.0220472
Warmed up ...Time used is 3000 cycles
Class 0:
Packet latency average = 32.6587
	minimum = 7
	maximum = 86
Network latency average = 32.6587
	minimum = 7
	maximum = 86
Slowest packet = 412794
Flit latency average = 33.0116
	minimum = 7
	maximum = 86
Slowest flit = 412794
Fragmentation average = 0
	minimum = 0
	maximum = 0
Injected packet rate average = 0.00965625
	minimum = 0.004 (at node 6)
	maximum = 0.015 (at node 5)
Accepted packet rate average = 0.00946875
	minimum = 0.004 (at node 48)
	maximum = 0.015 (at node 38)
Injected flit rate average = 0.00965625
	minimum = 0.004 (at node 6)
	maximum = 0.015 (at node 5)
Accepted flit rate average= 0.00946875
	minimum = 0.004 (at node 48)
	maximum = 0.015 (at node 38)
Injected packet length average = 1
Accepted packet length average = 1
Total in-flight flits = 29 (29 measured)
latency change    = 0.00770062
throughput change = 0.0478548
Class 0:
Packet latency average = 32.7315
	minimum = 7
	maximum = 86
Network latency average = 32.7315
	minimum = 7
	maximum = 86
Slowest packet = 412794
Flit latency average = 32.9006
	minimum = 7
	maximum = 86
Slowest flit = 412794
Fragmentation average = 0
	minimum = 0
	maximum = 0
Injected packet rate average = 0.00983594
	minimum = 0.006 (at node 9)
	maximum = 0.0135 (at node 16)
Accepted packet rate average = 0.00982031
	minimum = 0.006 (at node 9)
	maximum = 0.014 (at node 60)
Injected flit rate average = 0.00983594
	minimum = 0.006 (at node 9)
	maximum = 0.0135 (at node 16)
Accepted flit rate average= 0.00982031
	minimum = 0.006 (at node 9)
	maximum = 0.014 (at node 60)
Injected packet length average = 1
Accepted packet length average = 1
Total in-flight flits = 19 (19 measured)
latency change    = 0.00222135
throughput change = 0.0357995
Class 0:
Packet latency average = 33.5119
	minimum = 7
	maximum = 86
Network latency average = 33.5119
	minimum = 7
	maximum = 86
Slowest packet = 412794
Flit latency average = 33.6184
	minimum = 7
	maximum = 86
Slowest flit = 412794
Fragmentation average = 0
	minimum = 0
	maximum = 0
Injected packet rate average = 0.00975521
	minimum = 0.00666667 (at node 33)
	maximum = 0.0126667 (at node 30)
Accepted packet rate average = 0.00974479
	minimum = 0.00633333 (at node 12)
	maximum = 0.0126667 (at node 51)
Injected flit rate average = 0.00975521
	minimum = 0.00666667 (at node 33)
	maximum = 0.0126667 (at node 30)
Accepted flit rate average= 0.00974479
	minimum = 0.00633333 (at node 12)
	maximum = 0.0126667 (at node 51)
Injected packet length average = 1
Accepted packet length average = 1
Total in-flight flits = 19 (19 measured)
latency change    = 0.0232877
throughput change = 0.00774987
Draining all recorded packets ...
Draining remaining packets ...
Time taken is 6117 cycles
Class 0:
Packet latency average = 32.4717
	minimum = 7
	maximum = 85
Network latency average = 32.4717
	minimum = 7
	maximum = 85
Slowest packet = 415059
Flit latency average = 32.4717
	minimum = 7
	maximum = 85
Slowest flit = 415059
Fragmentation average = 0
	minimum = 0
	maximum = 0
Injected packet rate average = 0.009125
	minimum = 0.004 (at node 4)
	maximum = 0.014 (at node 18)
Accepted packet rate average = 0.00884375
	minimum = 0.004 (at node 32)
	maximum = 0.014 (at node 18)
Injected flit rate average = 0.009125
	minimum = 0.004 (at node 4)
	maximum = 0.014 (at node 18)
Accepted flit rate average= 0.00884375
	minimum = 0.004 (at node 32)
	maximum = 0.014 (at node 18)
Injected packet length average = 1
Accepted packet length average = 1
Total in-flight flits = 18 (0 measured)
latency change    = 1
throughput change = 1
Class 0:
Packet latency average = 33.0685
	minimum = 7
	maximum = 85
Network latency average = 33.0685
	minimum = 7
	maximum = 85
Slowest packet = 415059
Flit latency average = 33.0685
	minimum = 7
	maximum = 85
Slowest flit = 415059
Fragmentation average = 0
	minimum = 0
	maximum = 0
Injected packet rate average = 0.00946875
	minimum = 0.004 (at node 0)
	maximum = 0.0125 (at node 11)
Accepted packet rate average = 0.00923437
	minimum = 0.004 (at node 0)
	maximum = 0.0125 (at node 36)
Injected flit rate average = 0.00946875
	minimum = 0.004 (at node 0)
	maximum = 0.0125 (at node 11)
Accepted flit rate average= 0.00923437
	minimum = 0.004 (at node 0)
	maximum = 0.0125 (at node 36)
Injected packet length average = 1
Accepted packet length average = 1
Total in-flight flits = 30 (0 measured)
latency change    = 0.0180473
throughput change = 0.0423012
Class 0:
Packet latency average = 33.9145
	minimum = 7
	maximum = 83
Network latency average = 33.9145
	minimum = 7
	maximum = 83
Slowest packet = 416075
Flit latency average = 33.9145
	minimum = 7
	maximum = 83
Slowest flit = 416075
Fragmentation average = 0
	minimum = 0
	maximum = 0
Injected packet rate average = 0.010875
	minimum = 0.005 (at node 13)
	maximum = 0.022 (at node 48)
Accepted packet rate average = 0.0109687
	minimum = 0.004 (at node 22)
	maximum = 0.022 (at node 6)
Injected flit rate average = 0.010875
	minimum = 0.005 (at node 13)
	maximum = 0.022 (at node 48)
Accepted flit rate average= 0.0109687
	minimum = 0.004 (at node 22)
	maximum = 0.022 (at node 6)
Injected packet length average = 1
Accepted packet length average = 1
Total in-flight flits = 24 (0 measured)
latency change    = 0.0249451
throughput change = 0.15812
Warmed up ...Time used is 3000 cycles
Class 0:
Packet latency average = 33.0957
	minimum = 7
	maximum = 83
Network latency average = 33.0957
	minimum = 7
	maximum = 83
Slowest packet = 416567
Flit latency average = 33.6238
	minimum = 7
	maximum = 83
Slowest flit = 416567
Fragmentation average = 0
	minimum = 0
	maximum = 0
Injected packet rate average = 0.009875
	minimum = 0.003 (at node 19)
	maximum = 0.02 (at node 55)
Accepted packet rate average = 0.00984375
	minimum = 0.003 (at node 26)
	maximum = 0.02 (at node 62)
Injected flit rate average = 0.009875
	minimum = 0.003 (at node 19)
	maximum = 0.02 (at node 55)
Accepted flit rate average= 0.00984375
	minimum = 0.003 (at node 26)
	maximum = 0.02 (at node 62)
Injected packet length average = 1
Accepted packet length average = 1
Total in-flight flits = 26 (26 measured)
latency change    = 0.024741
throughput change = 0.114286
Class 0:
Packet latency average = 33.2299
	minimum = 7
	maximum = 85
Network latency average = 33.2299
	minimum = 7
	maximum = 85
Slowest packet = 417078
Flit latency average = 33.4853
	minimum = 7
	maximum = 85
Slowest flit = 417078
Fragmentation average = 0
	minimum = 0
	maximum = 0
Injected packet rate average = 0.0101094
	minimum = 0.0045 (at node 19)
	maximum = 0.017 (at node 53)
Accepted packet rate average = 0.0100781
	minimum = 0.0045 (at node 26)
	maximum = 0.0165 (at node 46)
Injected flit rate average = 0.0101094
	minimum = 0.0045 (at node 19)
	maximum = 0.017 (at node 53)
Accepted flit rate average= 0.0100781
	minimum = 0.0045 (at node 26)
	maximum = 0.0165 (at node 46)
Injected packet length average = 1
Accepted packet length average = 1
Total in-flight flits = 28 (28 measured)
latency change    = 0.00403698
throughput change = 0.0232558
Class 0:
Packet latency average = 33.5852
	minimum = 7
	maximum = 85
Network latency average = 33.5852
	minimum = 7
	maximum = 85
Slowest packet = 417078
Flit latency average = 33.747
	minimum = 7
	maximum = 85
Slowest flit = 417078
Fragmentation average = 0
	minimum = 0
	maximum = 0
Injected packet rate average = 0.0103021
	minimum = 0.006 (at node 46)
	maximum = 0.016 (at node 53)
Accepted packet rate average = 0.0103333
	minimum = 0.006 (at node 53)
	maximum = 0.016 (at node 46)
Injected flit rate average = 0.0103021
	minimum = 0.006 (at node 46)
	maximum = 0.016 (at node 53)
Accepted flit rate average= 0.0103333
	minimum = 0.006 (at node 53)
	maximum = 0.016 (at node 46)
Injected packet length average = 1
Accepted packet length average = 1
Total in-flight flits = 18 (18 measured)
latency change    = 0.0105804
throughput change = 0.0246976
Class 0:
Packet latency average = 33.4683
	minimum = 7
	maximum = 85
Network latency average = 33.4683
	minimum = 7
	maximum = 85
Slowest packet = 417078
Flit latency average = 33.5909
	minimum = 7
	maximum = 85
Slowest flit = 417078
Fragmentation average = 0
	minimum = 0
	maximum = 0
Injected packet rate average = 0.0103203
	minimum = 0.0065 (at node 46)
	maximum = 0.015 (at node 20)
Accepted packet rate average = 0.0103125
	minimum = 0.0065 (at node 53)
	maximum = 0.015 (at node 46)
Injected flit rate average = 0.0103203
	minimum = 0.0065 (at node 46)
	maximum = 0.015 (at node 20)
Accepted flit rate average= 0.0103125
	minimum = 0.0065 (at node 53)
	maximum = 0.015 (at node 46)
Injected packet length average = 1
Accepted packet length average = 1
Total in-flight flits = 26 (26 measured)
latency change    = 0.00349381
throughput change = 0.0020202
Draining all recorded packets ...
Draining remaining packets ...
Time taken is 7137 cycles
Class 0:
Packet latency average = 35.2675
	minimum = 7
	maximum = 85
Network latency average = 35.2675
	minimum = 7
	maximum = 85
Slowest packet = 419438
Flit latency average = 35.2675
	minimum = 7
	maximum = 85
Slowest flit = 419438
Fragmentation average = 0
	minimum = 0
	maximum = 0
Injected packet rate average = 0.0104063
	minimum = 0.004 (at node 45)
	maximum = 0.02 (at node 39)
Accepted packet rate average = 0.0100469
	minimum = 0.004 (at node 45)
	maximum = 0.02 (at node 60)
Injected flit rate average = 0.0104063
	minimum = 0.004 (at node 45)
	maximum = 0.02 (at node 39)
Accepted flit rate average= 0.0100469
	minimum = 0.004 (at node 45)
	maximum = 0.02 (at node 60)
Injected packet length average = 1
Accepted packet length average = 1
Total in-flight flits = 23 (0 measured)
latency change    = 1
throughput change = 1
Class 0:
Packet latency average = 34.2385
	minimum = 7
	maximum = 85
Network latency average = 34.2385
	minimum = 7
	maximum = 85
Slowest packet = 419438
Flit latency average = 34.2385
	minimum = 7
	maximum = 85
Slowest flit = 419438
Fragmentation average = 0
	minimum = 0
	maximum = 0
Injected packet rate average = 0.00991406
	minimum = 0.0055 (at node 17)
	maximum = 0.017 (at node 39)
Accepted packet rate average = 0.00969531
	minimum = 0.0055 (at node 10)
	maximum = 0.0165 (at node 60)
Injected flit rate average = 0.00991406
	minimum = 0.0055 (at node 17)
	maximum = 0.017 (at node 39)
Accepted flit rate average= 0.00969531
	minimum = 0.0055 (at node 10)
	maximum = 0.0165 (at node 60)
Injected packet length average = 1
Accepted packet length average = 1
Total in-flight flits = 28 (0 measured)
latency change    = 0.0300533
throughput change = 0.0362611
Class 0:
Packet latency average = 33.5517
	minimum = 7
	maximum = 81
Network latency average = 33.5517
	minimum = 7
	maximum = 81
Slowest packet = 420486
Flit latency average = 33.5517
	minimum = 7
	maximum = 81
Slowest flit = 420486
Fragmentation average = 0
	minimum = 0
	maximum = 0
Injected packet rate average = 0.009875
	minimum = 0.003 (at node 37)
	maximum = 0.02 (at node 47)
Accepted packet rate average = 0.00996875
	minimum = 0.003 (at node 44)
	maximum = 0.02 (at node 61)
Injected flit rate average = 0.009875
	minimum = 0.003 (at node 37)
	maximum = 0.02 (at node 47)
Accepted flit rate average= 0.00996875
	minimum = 0.003 (at node 44)
	maximum = 0.02 (at node 61)
Injected packet length average = 1
Accepted packet length average = 1
Total in-flight flits = 22 (0 measured)
latency change    = 0.0204697
throughput change = 0.0274295
Warmed up ...Time used is 3000 cycles
Class 0:
Packet latency average = 31.6043
	minimum = 7
	maximum = 87
Network latency average = 31.6043
	minimum = 7
	maximum = 87
Slowest packet = 421481
Flit latency average = 31.9417
	minimum = 7
	maximum = 87
Slowest flit = 421481
Fragmentation average = 0
	minimum = 0
	maximum = 0
Injected packet rate average = 0.0104688
	minimum = 0.002 (at node 12)
	maximum = 0.023 (at node 10)
Accepted packet rate average = 0.0104531
	minimum = 0.003 (at node 33)
	maximum = 0.023 (at node 17)
Injected flit rate average = 0.0104688
	minimum = 0.002 (at node 12)
	maximum = 0.023 (at node 10)
Accepted flit rate average= 0.0104531
	minimum = 0.003 (at node 33)
	maximum = 0.023 (at node 17)
Injected packet length average = 1
Accepted packet length average = 1
Total in-flight flits = 23 (23 measured)
latency change    = 0.061618
throughput change = 0.0463378
Class 0:
Packet latency average = 32.4674
	minimum = 7
	maximum = 87
Network latency average = 32.4674
	minimum = 7
	maximum = 87
Slowest packet = 421481
Flit latency average = 32.627
	minimum = 7
	maximum = 87
Slowest flit = 421481
Fragmentation average = 0
	minimum = 0
	maximum = 0
Injected packet rate average = 0.01025
	minimum = 0.0045 (at node 34)
	maximum = 0.0195 (at node 17)
Accepted packet rate average = 0.0101172
	minimum = 0.0045 (at node 20)
	maximum = 0.0195 (at node 10)
Injected flit rate average = 0.01025
	minimum = 0.0045 (at node 34)
	maximum = 0.0195 (at node 17)
Accepted flit rate average= 0.0101172
	minimum = 0.0045 (at node 20)
	maximum = 0.0195 (at node 10)
Injected packet length average = 1
Accepted packet length average = 1
Total in-flight flits = 39 (39 measured)
latency change    = 0.0265827
throughput change = 0.0332046
Class 0:
Packet latency average = 32.8675
	minimum = 7
	maximum = 87
Network latency average = 32.8675
	minimum = 7
	maximum = 87
Slowest packet = 421481
Flit latency average = 32.9684
	minimum = 7
	maximum = 87
Slowest flit = 421481
Fragmentation average = 0
	minimum = 0
	maximum = 0
Injected packet rate average = 0.010224
	minimum = 0.005 (at node 34)
	maximum = 0.0156667 (at node 17)
Accepted packet rate average = 0.0102135
	minimum = 0.005 (at node 20)
	maximum = 0.0156667 (at node 10)
Injected flit rate average = 0.010224
	minimum = 0.005 (at node 34)
	maximum = 0.0156667 (at node 17)
Accepted flit rate average= 0.0102135
	minimum = 0.005 (at node 20)
	maximum = 0.0156667 (at node 10)
Injected packet length average = 1
Accepted packet length average = 1
Total in-flight flits = 24 (24 measured)
latency change    = 0.0121718
throughput change = 0.00943396
Class 0:
Packet latency average = 32.8945
	minimum = 7
	maximum = 87
Network latency average = 32.8945
	minimum = 7
	maximum = 87
Slowest packet = 421481
Flit latency average = 32.9712
	minimum = 7
	maximum = 87
Slowest flit = 421481
Fragmentation average = 0
	minimum = 0
	maximum = 0
Injected packet rate average = 0.0100391
	minimum = 0.005 (at node 34)
	maximum = 0.014 (at node 17)
Accepted packet rate average = 0.010043
	minimum = 0.005 (at node 20)
	maximum = 0.014 (at node 10)
Injected flit rate average = 0.0100391
	minimum = 0.005 (at node 34)
	maximum = 0.014 (at node 17)
Accepted flit rate average= 0.010043
	minimum = 0.005 (at node 20)
	maximum = 0.014 (at node 10)
Injected packet length average = 1
Accepted packet length average = 1
Total in-flight flits = 21 (21 measured)
latency change    = 0.00082114
throughput change = 0.0169843
Draining all recorded packets ...
Draining remaining packets ...
Time taken is 7134 cycles
====== Overall Traffic Statistics ======
====== Traffic class 0 ======
Packet latency average = 33.5184 (100 samples)
	minimum = 7 (100 samples)
	maximum = 88.04 (100 samples)
Network latency average = 33.5184 (100 samples)
	minimum = 7 (100 samples)
	maximum = 88.04 (100 samples)
Flit latency average = 33.625 (100 samples)
	minimum = 7 (100 samples)
	maximum = 88.11 (100 samples)
Fragmentation average = 0 (100 samples)
	minimum = 0 (100 samples)
	maximum = 0 (100 samples)
Injected packet rate average = 0.0100048 (100 samples)
	minimum = 0.00616683 (100 samples)
	maximum = 0.014164 (100 samples)
Accepted packet rate average = 0.0100022 (100 samples)
	minimum = 0.00615583 (100 samples)
	maximum = 0.014143 (100 samples)
Injected flit rate average = 0.0100048 (100 samples)
	minimum = 0.00616683 (100 samples)
	maximum = 0.014164 (100 samples)
Accepted flit rate average = 0.0100022 (100 samples)
	minimum = 0.00615583 (100 samples)
	maximum = 0.014143 (100 samples)
Injected packet size average = 1 (100 samples)
Accepted packet size average = 1 (100 samples)
Hops average = 6.25169 (100 samples)
Total run time 46.923
