BEGIN Configuration File: /tmp/bs_1137237_455101.cfg
topology = mesh;
k = 4;
n = 2;
routing_function = gnn_ppo_route_4x4;
num_vcs = 4;
vc_buf_size = 4;
wait_for_tail_credit = 1;
vc_allocator = islip;
sw_allocator = islip;
alloc_iters = 1;
credit_delay = 2;
routing_delay = 1;
vc_alloc_delay = 1;
sw_alloc_delay = 1;
input_speedup = 2;
output_speedup = 1;
internal_speedup = 1.0;
traffic = uniform;
packet_size = 1;
sim_type = latency;
injection_rate = 0.05;
warmup_periods = 3;
sample_period = 1000;
sim_count = 100;
seed = 3;

END Configuration File: /tmp/bs_1137237_455101.cfg
Class 0:
Packet latency average = 19.0591
	minimum = 7
	maximum = 39
Network latency average = 19.0566
	minimum = 7
	maximum = 39
Slowest packet = 600
Flit latency average = 19.0566
	minimum = 7
	maximum = 39
Slowest flit = 600
Fragmentation average = 0
	minimum = 0
	maximum = 0
Injected packet rate average = 0.050375
	minimum = 0.034 (at node 4)
	maximum = 0.068 (at node 9)
Accepted packet rate average = 0.0496875
	minimum = 0.038 (at node 12)
	maximum = 0.06 (at node 11)
Injected flit rate average = 0.050375
	minimum = 0.034 (at node 4)
	maximum = 0.068 (at node 9)
Accepted flit rate average= 0.0496875
	minimum = 0.038 (at node 12)
	maximum = 0.06 (at node 11)
Injected packet length average = 1
Accepted packet length average = 1
Total in-flight flits = 11 (0 measured)
latency change    = 1
throughput change = 1
Class 0:
Packet latency average = 19.3817
	minimum = 7
	maximum = 39
Network latency average = 19.3804
	minimum = 7
	maximum = 39
Slowest packet = 600
Flit latency average = 19.3804
	minimum = 7
	maximum = 39
Slowest flit = 600
Fragmentation average = 0
	minimum = 0
	maximum = 0
Injected packet rate average = 0.049125
	minimum = 0.041 (at node 4)
	maximum = 0.057 (at node 9)
Accepted packet rate average = 0.0487187
	minimum = 0.0415 (at node 3)
	maximum = 0.0565 (at node 7)
Injected flit rate average = 0.049125
	minimum = 0.041 (at node 4)
	maximum = 0.057 (at node 9)
Accepted flit rate average= 0.0487187
	minimum = 0.0415 (at node 3)
	maximum = 0.0565 (at node 7)
Injected packet length average = 1
Accepted packet length average = 1
Total in-flight flits = 13 (0 measured)
latency change    = 0.0166413
throughput change = 0.0198845
Class 0:
Packet latency average = 20.0662
	minimum = 7
	maximum = 38
Network latency average = 20.0662
	minimum = 7
	maximum = 38
Slowest packet = 2104
Flit latency average = 20.0662
	minimum = 7
	maximum = 38
Slowest flit = 2104
Fragmentation average = 0
	minimum = 0
	maximum = 0
Injected packet rate average = 0.0490625
	minimum = 0.032 (at node 11)
	maximum = 0.066 (at node 12)
Accepted packet rate average = 0.0490625
	minimum = 0.037 (at node 11)
	maximum = 0.063 (at node 3)
Injected flit rate average = 0.0490625
	minimum = 0.032 (at node 11)
	maximum = 0.066 (at node 12)
Accepted flit rate average= 0.0490625
	minimum = 0.037 (at node 11)
	maximum = 0.063 (at node 3)
Injected packet length average = 1
Accepted packet length average = 1
Total in-flight flits = 13 (0 measured)
latency change    = 0.0341164
throughput change = 0.00700637
Warmed up ...Time used is 3000 cycles
Class 0:
Packet latency average = 19.382
	minimum = 7
	maximum = 38
Network latency average = 19.382
	minimum = 7
	maximum = 38
Slowest packet = 2370
Flit latency average = 19.4704
	minimum = 7
	maximum = 38
Slowest flit = 2370
Fragmentation average = 0
	minimum = 0
	maximum = 0
Injected packet rate average = 0.0475625
	minimum = 0.036 (at node 9)
	maximum = 0.062 (at node 12)
Accepted packet rate average = 0.0474375
	minimum = 0.039 (at node 11)
	maximum = 0.064 (at node 15)
Injected flit rate average = 0.0475625
	minimum = 0.036 (at node 9)
	maximum = 0.062 (at node 12)
Accepted flit rate average= 0.0474375
	minimum = 0.039 (at node 11)
	maximum = 0.064 (at node 15)
Injected packet length average = 1
Accepted packet length average = 1
Total in-flight flits = 15 (15 measured)
latency change    = 0.035301
throughput change = 0.0342556
Class 0:
Packet latency average = 19.5356
	minimum = 7
	maximum = 38
Network latency average = 19.5356
	minimum = 7
	maximum = 38
Slowest packet = 2370
Flit latency average = 19.5759
	minimum = 7
	maximum = 38
Slowest flit = 2370
Fragmentation average = 0
	minimum = 0
	maximum = 0
Injected packet rate average = 0.0505625
	minimum = 0.0405 (at node 14)
	maximum = 0.061 (at node 12)
Accepted packet rate average = 0.0504687
	minimum = 0.044 (at node 9)
	maximum = 0.058 (at node 0)
Injected flit rate average = 0.0505625
	minimum = 0.0405 (at node 14)
	maximum = 0.061 (at node 12)
Accepted flit rate average= 0.0504687
	minimum = 0.044 (at node 9)
	maximum = 0.058 (at node 0)
Injected packet length average = 1
Accepted packet length average = 1
Total in-flight flits = 16 (16 measured)
latency change    = 0.00785966
throughput change = 0.0600619
Class 0:
Packet latency average = 19.47
	minimum = 7
	maximum = 38
Network latency average = 19.47
	minimum = 7
	maximum = 38
Slowest packet = 2370
Flit latency average = 19.4971
	minimum = 7
	maximum = 38
Slowest flit = 2370
Fragmentation average = 0
	minimum = 0
	maximum = 0
Injected packet rate average = 0.0506875
	minimum = 0.0426667 (at node 14)
	maximum = 0.058 (at node 12)
Accepted packet rate average = 0.0505833
	minimum = 0.046 (at node 4)
	maximum = 0.057 (at node 6)
Injected flit rate average = 0.0506875
	minimum = 0.0426667 (at node 14)
	maximum = 0.058 (at node 12)
Accepted flit rate average= 0.0505833
	minimum = 0.046 (at node 4)
	maximum = 0.057 (at node 6)
Injected packet length average = 1
Accepted packet length average = 1
Total in-flight flits = 18 (18 measured)
latency change    = 0.00336935
throughput change = 0.00226524
Class 0:
Packet latency average = 19.5639
	minimum = 7
	maximum = 43
Network latency average = 19.5639
	minimum = 7
	maximum = 43
Slowest packet = 4908
Flit latency average = 19.5839
	minimum = 7
	maximum = 43
Slowest flit = 4908
Fragmentation average = 0
	minimum = 0
	maximum = 0
Injected packet rate average = 0.0506094
	minimum = 0.0445 (at node 3)
	maximum = 0.05525 (at node 0)
Accepted packet rate average = 0.0505781
	minimum = 0.043 (at node 4)
	maximum = 0.057 (at node 6)
Injected flit rate average = 0.0506094
	minimum = 0.0445 (at node 3)
	maximum = 0.05525 (at node 0)
Accepted flit rate average= 0.0505781
	minimum = 0.043 (at node 4)
	maximum = 0.057 (at node 6)
Injected packet length average = 1
Accepted packet length average = 1
Total in-flight flits = 15 (15 measured)
latency change    = 0.0048005
throughput change = 0.000102976
Class 0:
Packet latency average = 19.5531
	minimum = 7
	maximum = 43
Network latency average = 19.5531
	minimum = 7
	maximum = 43
Slowest packet = 4908
Flit latency average = 19.5691
	minimum = 7
	maximum = 43
Slowest flit = 4908
Fragmentation average = 0
	minimum = 0
	maximum = 0
Injected packet rate average = 0.0509375
	minimum = 0.0438 (at node 15)
	maximum = 0.057 (at node 0)
Accepted packet rate average = 0.05085
	minimum = 0.0442 (at node 4)
	maximum = 0.0578 (at node 6)
Injected flit rate average = 0.0509375
	minimum = 0.0438 (at node 15)
	maximum = 0.057 (at node 0)
Accepted flit rate average= 0.05085
	minimum = 0.0442 (at node 4)
	maximum = 0.0578 (at node 6)
Injected packet length average = 1
Accepted packet length average = 1
Total in-flight flits = 20 (20 measured)
latency change    = 0.000549861
throughput change = 0.00534661
Draining all recorded packets ...
Draining remaining packets ...
Time taken is 8055 cycles
Class 0:
Packet latency average = 19.6328
	minimum = 7
	maximum = 39
Network latency average = 19.6328
	minimum = 7
	maximum = 39
Slowest packet = 6844
Flit latency average = 19.6328
	minimum = 7
	maximum = 39
Slowest flit = 6844
Fragmentation average = 0
	minimum = 0
	maximum = 0
Injected packet rate average = 0.051625
	minimum = 0.033 (at node 8)
	maximum = 0.063 (at node 4)
Accepted packet rate average = 0.050375
	minimum = 0.037 (at node 2)
	maximum = 0.063 (at node 5)
Injected flit rate average = 0.051625
	minimum = 0.033 (at node 8)
	maximum = 0.063 (at node 4)
Accepted flit rate average= 0.050375
	minimum = 0.037 (at node 2)
	maximum = 0.063 (at node 5)
Injected packet length average = 1
Accepted packet length average = 1
Total in-flight flits = 20 (0 measured)
latency change    = 1
throughput change = 1
Class 0:
Packet latency average = 19.6523
	minimum = 7
	maximum = 42
Network latency average = 19.6523
	minimum = 7
	maximum = 42
Slowest packet = 7715
Flit latency average = 19.6523
	minimum = 7
	maximum = 42
Slowest flit = 7715
Fragmentation average = 0
	minimum = 0
	maximum = 0
Injected packet rate average = 0.051625
	minimum = 0.0425 (at node 8)
	maximum = 0.0585 (at node 10)
Accepted packet rate average = 0.0513125
	minimum = 0.0415 (at node 8)
	maximum = 0.061 (at node 0)
Injected flit rate average = 0.051625
	minimum = 0.0425 (at node 8)
	maximum = 0.0585 (at node 10)
Accepted flit rate average= 0.0513125
	minimum = 0.0415 (at node 8)
	maximum = 0.061 (at node 0)
Injected packet length average = 1
Accepted packet length average = 1
Total in-flight flits = 10 (0 measured)
latency change    = 0.000992202
throughput change = 0.0182704
Class 0:
Packet latency average = 19.2715
	minimum = 7
	maximum = 37
Network latency average = 19.2715
	minimum = 7
	maximum = 37
Slowest packet = 8112
Flit latency average = 19.2715
	minimum = 7
	maximum = 37
Slowest flit = 8112
Fragmentation average = 0
	minimum = 0
	maximum = 0
Injected packet rate average = 0.050625
	minimum = 0.038 (at node 5)
	maximum = 0.06 (at node 15)
Accepted packet rate average = 0.0501875
	minimum = 0.035 (at node 12)
	maximum = 0.061 (at node 14)
Injected flit rate average = 0.050625
	minimum = 0.038 (at node 5)
	maximum = 0.06 (at node 15)
Accepted flit rate average= 0.0501875
	minimum = 0.035 (at node 12)
	maximum = 0.061 (at node 14)
Injected packet length average = 1
Accepted packet length average = 1
Total in-flight flits = 17 (0 measured)
latency change    = 0.0197583
throughput change = 0.0224159
Warmed up ...Time used is 3000 cycles
Class 0:
Packet latency average = 19.7321
	minimum = 7
	maximum = 38
Network latency average = 19.7321
	minimum = 7
	maximum = 38
Slowest packet = 9038
Flit latency average = 19.784
	minimum = 7
	maximum = 38
Slowest flit = 9038
Fragmentation average = 0
	minimum = 0
	maximum = 0
Injected packet rate average = 0.0498125
	minimum = 0.039 (at node 15)
	maximum = 0.06 (at node 10)
Accepted packet rate average = 0.0500625
	minimum = 0.036 (at node 6)
	maximum = 0.063 (at node 7)
Injected flit rate average = 0.0498125
	minimum = 0.039 (at node 15)
	maximum = 0.06 (at node 10)
Accepted flit rate average= 0.0500625
	minimum = 0.036 (at node 6)
	maximum = 0.063 (at node 7)
Injected packet length average = 1
Accepted packet length average = 1
Total in-flight flits = 13 (13 measured)
latency change    = 0.0233457
throughput change = 0.00249688
Class 0:
Packet latency average = 19.8471
	minimum = 7
	maximum = 38
Network latency average = 19.8471
	minimum = 7
	maximum = 38
Slowest packet = 9038
Flit latency average = 19.8717
	minimum = 7
	maximum = 38
Slowest flit = 9038
Fragmentation average = 0
	minimum = 0
	maximum = 0
Injected packet rate average = 0.0504687
	minimum = 0.042 (at node 15)
	maximum = 0.056 (at node 12)
Accepted packet rate average = 0.0504062
	minimum = 0.043 (at node 6)
	maximum = 0.06 (at node 0)
Injected flit rate average = 0.0504687
	minimum = 0.042 (at node 15)
	maximum = 0.056 (at node 12)
Accepted flit rate average= 0.0504062
	minimum = 0.043 (at node 6)
	maximum = 0.06 (at node 0)
Injected packet length average = 1
Accepted packet length average = 1
Total in-flight flits = 19 (19 measured)
latency change    = 0.00579303
throughput change = 0.00681959
Class 0:
Packet latency average = 19.769
	minimum = 7
	maximum = 38
Network latency average = 19.769
	minimum = 7
	maximum = 38
Slowest packet = 9038
Flit latency average = 19.7857
	minimum = 7
	maximum = 38
Slowest flit = 9038
Fragmentation average = 0
	minimum = 0
	maximum = 0
Injected packet rate average = 0.0509167
	minimum = 0.044 (at node 4)
	maximum = 0.0576667 (at node 5)
Accepted packet rate average = 0.0510417
	minimum = 0.0416667 (at node 6)
	maximum = 0.061 (at node 0)
Injected flit rate average = 0.0509167
	minimum = 0.044 (at node 4)
	maximum = 0.0576667 (at node 5)
Accepted flit rate average= 0.0510417
	minimum = 0.0416667 (at node 6)
	maximum = 0.061 (at node 0)
Injected packet length average = 1
Accepted packet length average = 1
Total in-flight flits = 11 (11 measured)
latency change    = 0.00395105
throughput change = 0.012449
Draining all recorded packets ...
Draining remaining packets ...
Time taken is 6063 cycles
Class 0:
Packet latency average = 19.6847
	minimum = 7
	maximum = 37
Network latency average = 19.6847
	minimum = 7
	maximum = 37
Slowest packet = 11407
Flit latency average = 19.6847
	minimum = 7
	maximum = 37
Slowest flit = 11407
Fragmentation average = 0
	minimum = 0
	maximum = 0
Injected packet rate average = 0.050625
	minimum = 0.04 (at node 15)
	maximum = 0.062 (at node 5)
Accepted packet rate average = 0.04975
	minimum = 0.04 (at node 4)
	maximum = 0.062 (at node 6)
Injected flit rate average = 0.050625
	minimum = 0.04 (at node 15)
	maximum = 0.062 (at node 5)
Accepted flit rate average= 0.04975
	minimum = 0.04 (at node 4)
	maximum = 0.062 (at node 6)
Injected packet length average = 1
Accepted packet length average = 1
Total in-flight flits = 14 (0 measured)
latency change    = 1
throughput change = 1
Class 0:
Packet latency average = 19.5187
	minimum = 7
	maximum = 37
Network latency average = 19.5187
	minimum = 7
	maximum = 37
Slowest packet = 11407
Flit latency average = 19.5187
	minimum = 7
	maximum = 37
Slowest flit = 11407
Fragmentation average = 0
	minimum = 0
	maximum = 0
Injected packet rate average = 0.050875
	minimum = 0.0435 (at node 10)
	maximum = 0.056 (at node 14)
Accepted packet rate average = 0.05025
	minimum = 0.042 (at node 8)
	maximum = 0.0595 (at node 6)
Injected flit rate average = 0.050875
	minimum = 0.0435 (at node 10)
	maximum = 0.056 (at node 14)
Accepted flit rate average= 0.05025
	minimum = 0.042 (at node 8)
	maximum = 0.0595 (at node 6)
Injected packet length average = 1
Accepted packet length average = 1
Total in-flight flits = 20 (0 measured)
latency change    = 0.00850554
throughput change = 0.00995025
Class 0:
Packet latency average = 19.523
	minimum = 7
	maximum = 38
Network latency average = 19.523
	minimum = 7
	maximum = 38
Slowest packet = 13162
Flit latency average = 19.523
	minimum = 7
	maximum = 38
Slowest flit = 13162
Fragmentation average = 0
	minimum = 0
	maximum = 0
Injected packet rate average = 0.0540625
	minimum = 0.041 (at node 14)
	maximum = 0.073 (at node 10)
Accepted packet rate average = 0.05425
	minimum = 0.039 (at node 8)
	maximum = 0.072 (at node 5)
Injected flit rate average = 0.0540625
	minimum = 0.041 (at node 14)
	maximum = 0.073 (at node 10)
Accepted flit rate average= 0.05425
	minimum = 0.039 (at node 8)
	maximum = 0.072 (at node 5)
Injected packet length average = 1
Accepted packet length average = 1
Total in-flight flits = 17 (0 measured)
latency change    = 0.000224594
throughput change = 0.0737327
Warmed up ...Time used is 3000 cycles
Class 0:
Packet latency average = 19.5653
	minimum = 7
	maximum = 38
Network latency average = 19.5653
	minimum = 7
	maximum = 38
Slowest packet = 14081
Flit latency average = 19.6051
	minimum = 7
	maximum = 38
Slowest flit = 14081
Fragmentation average = 0
	minimum = 0
	maximum = 0
Injected packet rate average = 0.0498125
	minimum = 0.034 (at node 7)
	maximum = 0.066 (at node 6)
Accepted packet rate average = 0.049375
	minimum = 0.043 (at node 6)
	maximum = 0.059 (at node 15)
Injected flit rate average = 0.0498125
	minimum = 0.034 (at node 7)
	maximum = 0.066 (at node 6)
Accepted flit rate average= 0.049375
	minimum = 0.043 (at node 6)
	maximum = 0.059 (at node 15)
Injected packet length average = 1
Accepted packet length average = 1
Total in-flight flits = 24 (24 measured)
latency change    = 0.0021614
throughput change = 0.0987342
Class 0:
Packet latency average = 19.5941
	minimum = 7
	maximum = 38
Network latency average = 19.5941
	minimum = 7
	maximum = 38
Slowest packet = 14081
Flit latency average = 19.6129
	minimum = 7
	maximum = 38
Slowest flit = 14081
Fragmentation average = 0
	minimum = 0
	maximum = 0
Injected packet rate average = 0.0515625
	minimum = 0.04 (at node 7)
	maximum = 0.0615 (at node 11)
Accepted packet rate average = 0.0515
	minimum = 0.046 (at node 10)
	maximum = 0.0595 (at node 3)
Injected flit rate average = 0.0515625
	minimum = 0.04 (at node 7)
	maximum = 0.0615 (at node 11)
Accepted flit rate average= 0.0515
	minimum = 0.046 (at node 10)
	maximum = 0.0595 (at node 3)
Injected packet length average = 1
Accepted packet length average = 1
Total in-flight flits = 19 (19 measured)
latency change    = 0.00146902
throughput change = 0.0412621
Class 0:
Packet latency average = 19.5528
	minimum = 7
	maximum = 41
Network latency average = 19.5528
	minimum = 7
	maximum = 41
Slowest packet = 16274
Flit latency average = 19.5656
	minimum = 7
	maximum = 41
Slowest flit = 16274
Fragmentation average = 0
	minimum = 0
	maximum = 0
Injected packet rate average = 0.051375
	minimum = 0.043 (at node 7)
	maximum = 0.0593333 (at node 3)
Accepted packet rate average = 0.0514583
	minimum = 0.0446667 (at node 13)
	maximum = 0.0606667 (at node 9)
Injected flit rate average = 0.051375
	minimum = 0.043 (at node 7)
	maximum = 0.0593333 (at node 3)
Accepted flit rate average= 0.0514583
	minimum = 0.0446667 (at node 13)
	maximum = 0.0606667 (at node 9)
Injected packet length average = 1
Accepted packet length average = 1
Total in-flight flits = 13 (13 measured)
latency change    = 0.00211333
throughput change = 0.000809717
Class 0:
Packet latency average = 19.5019
	minimum = 7
	maximum = 41
Network latency average = 19.5019
	minimum = 7
	maximum = 41
Slowest packet = 16274
Flit latency average = 19.5119
	minimum = 7
	maximum = 41
Slowest flit = 16274
Fragmentation average = 0
	minimum = 0
	maximum = 0
Injected packet rate average = 0.0506562
	minimum = 0.04125 (at node 7)
	maximum = 0.055 (at node 1)
Accepted packet rate average = 0.0507344
	minimum = 0.046 (at node 13)
	maximum = 0.0575 (at node 1)
Injected flit rate average = 0.0506562
	minimum = 0.04125 (at node 7)
	maximum = 0.055 (at node 1)
Accepted flit rate average= 0.0507344
	minimum = 0.046 (at node 13)
	maximum = 0.0575 (at node 1)
Injected packet length average = 1
Accepted packet length average = 1
Total in-flight flits = 12 (12 measured)
latency change    = 0.0026118
throughput change = 0.0142696
Draining all recorded packets ...
Draining remaining packets ...
Time taken is 7043 cycles
Class 0:
Packet latency average = 19.6905
	minimum = 7
	maximum = 37
Network latency average = 19.6905
	minimum = 7
	maximum = 37
Slowest packet = 17149
Flit latency average = 19.6905
	minimum = 7
	maximum = 37
Slowest flit = 17149
Fragmentation average = 0
	minimum = 0
	maximum = 0
Injected packet rate average = 0.0508125
	minimum = 0.039 (at node 14)
	maximum = 0.058 (at node 2)
Accepted packet rate average = 0.049875
	minimum = 0.033 (at node 6)
	maximum = 0.064 (at node 11)
Injected flit rate average = 0.0508125
	minimum = 0.039 (at node 14)
	maximum = 0.058 (at node 2)
Accepted flit rate average= 0.049875
	minimum = 0.033 (at node 6)
	maximum = 0.064 (at node 11)
Injected packet length average = 1
Accepted packet length average = 1
Total in-flight flits = 15 (0 measured)
latency change    = 1
throughput change = 1
Class 0:
Packet latency average = 19.6343
	minimum = 7
	maximum = 37
Network latency average = 19.6343
	minimum = 7
	maximum = 37
Slowest packet = 17149
Flit latency average = 19.6343
	minimum = 7
	maximum = 37
Slowest flit = 17149
Fragmentation average = 0
	minimum = 0
	maximum = 0
Injected packet rate average = 0.0506562
	minimum = 0.0415 (at node 7)
	maximum = 0.0595 (at node 8)
Accepted packet rate average = 0.05025
	minimum = 0.041 (at node 6)
	maximum = 0.0585 (at node 10)
Injected flit rate average = 0.0506562
	minimum = 0.0415 (at node 7)
	maximum = 0.0595 (at node 8)
Accepted flit rate average= 0.05025
	minimum = 0.041 (at node 6)
	maximum = 0.0585 (at node 10)
Injected packet length average = 1
Accepted packet length average = 1
Total in-flight flits = 13 (0 measured)
latency change    = 0.00285968
throughput change = 0.00746269
Class 0:
Packet latency average = 19.6269
	minimum = 7
	maximum = 38
Network latency average = 19.6269
	minimum = 7
	maximum = 38
Slowest packet = 18835
Flit latency average = 19.6269
	minimum = 7
	maximum = 38
Slowest flit = 18835
Fragmentation average = 0
	minimum = 0
	maximum = 0
Injected packet rate average = 0.05425
	minimum = 0.043 (at node 15)
	maximum = 0.065 (at node 2)
Accepted packet rate average = 0.0544375
	minimum = 0.042 (at node 11)
	maximum = 0.069 (at node 10)
Injected flit rate average = 0.05425
	minimum = 0.043 (at node 15)
	maximum = 0.065 (at node 2)
Accepted flit rate average= 0.0544375
	minimum = 0.042 (at node 11)
	maximum = 0.069 (at node 10)
Injected packet length average = 1
Accepted packet length average = 1
Total in-flight flits = 10 (0 measured)
latency change    = 0.000380228
throughput change = 0.0769231
Warmed up ...Time used is 3000 cycles
Class 0:
Packet latency average = 19.5264
	minimum = 7
	maximum = 38
Network latency average = 19.5264
	minimum = 7
	maximum = 38
Slowest packet = 19783
Flit latency average = 19.6112
	minimum = 7
	maximum = 39
Slowest flit = 19624
Fragmentation average = 0
	minimum = 0
	maximum = 0
Injected packet rate average = 0.0494375
	minimum = 0.039 (at node 7)
	maximum = 0.061 (at node 14)
Accepted packet rate average = 0.0491875
	minimum = 0.039 (at node 7)
	maximum = 0.064 (at node 4)
Injected flit rate average = 0.0494375
	minimum = 0.039 (at node 7)
	maximum = 0.061 (at node 14)
Accepted flit rate average= 0.0491875
	minimum = 0.039 (at node 7)
	maximum = 0.064 (at node 4)
Injected packet length average = 1
Accepted packet length average = 1
Total in-flight flits = 14 (14 measured)
latency change    = 0.00514597
throughput change = 0.106734
Class 0:
Packet latency average = 19.6466
	minimum = 7
	maximum = 38
Network latency average = 19.6466
	minimum = 7
	maximum = 38
Slowest packet = 19783
Flit latency average = 19.6887
	minimum = 7
	maximum = 39
Slowest flit = 19624
Fragmentation average = 0
	minimum = 0
	maximum = 0
Injected packet rate average = 0.0486562
	minimum = 0.041 (at node 2)
	maximum = 0.0555 (at node 14)
Accepted packet rate average = 0.0485937
	minimum = 0.0405 (at node 0)
	maximum = 0.056 (at node 1)
Injected flit rate average = 0.0486562
	minimum = 0.041 (at node 2)
	maximum = 0.0555 (at node 14)
Accepted flit rate average= 0.0485937
	minimum = 0.0405 (at node 0)
	maximum = 0.056 (at node 1)
Injected packet length average = 1
Accepted packet length average = 1
Total in-flight flits = 12 (12 measured)
latency change    = 0.00611904
throughput change = 0.0122186
Class 0:
Packet latency average = 19.6878
	minimum = 7
	maximum = 38
Network latency average = 19.6878
	minimum = 7
	maximum = 38
Slowest packet = 19783
Flit latency average = 19.7156
	minimum = 7
	maximum = 39
Slowest flit = 19624
Fragmentation average = 0
	minimum = 0
	maximum = 0
Injected packet rate average = 0.0489167
	minimum = 0.0426667 (at node 2)
	maximum = 0.0536667 (at node 14)
Accepted packet rate average = 0.0488542
	minimum = 0.0416667 (at node 12)
	maximum = 0.058 (at node 4)
Injected flit rate average = 0.0489167
	minimum = 0.0426667 (at node 2)
	maximum = 0.0536667 (at node 14)
Accepted flit rate average= 0.0488542
	minimum = 0.0416667 (at node 12)
	maximum = 0.058 (at node 4)
Injected packet length average = 1
Accepted packet length average = 1
Total in-flight flits = 13 (13 measured)
latency change    = 0.00209229
throughput change = 0.00533049
Class 0:
Packet latency average = 19.6999
	minimum = 7
	maximum = 38
Network latency average = 19.6999
	minimum = 7
	maximum = 38
Slowest packet = 19783
Flit latency average = 19.7206
	minimum = 7
	maximum = 39
Slowest flit = 19624
Fragmentation average = 0
	minimum = 0
	maximum = 0
Injected packet rate average = 0.0492812
	minimum = 0.04425 (at node 10)
	maximum = 0.05425 (at node 13)
Accepted packet rate average = 0.0491562
	minimum = 0.04325 (at node 5)
	maximum = 0.05675 (at node 4)
Injected flit rate average = 0.0492812
	minimum = 0.04425 (at node 10)
	maximum = 0.05425 (at node 13)
Accepted flit rate average= 0.0491562
	minimum = 0.04325 (at node 5)
	maximum = 0.05675 (at node 4)
Injected packet length average = 1
Accepted packet length average = 1
Total in-flight flits = 18 (18 measured)
latency change    = 0.000616337
throughput change = 0.00614537
Draining all recorded packets ...
Draining remaining packets ...
Time taken is 7053 cycles
Class 0:
Packet latency average = 19.4625
	minimum = 7
	maximum = 37
Network latency average = 19.4625
	minimum = 7
	maximum = 37
Slowest packet = 22828
Flit latency average = 19.4625
	minimum = 7
	maximum = 37
Slowest flit = 22828
Fragmentation average = 0
	minimum = 0
	maximum = 0
Injected packet rate average = 0.047875
	minimum = 0.039 (at node 1)
	maximum = 0.055 (at node 4)
Accepted packet rate average = 0.046625
	minimum = 0.036 (at node 15)
	maximum = 0.057 (at node 4)
Injected flit rate average = 0.047875
	minimum = 0.039 (at node 1)
	maximum = 0.055 (at node 4)
Accepted flit rate average= 0.046625
	minimum = 0.036 (at node 15)
	maximum = 0.057 (at node 4)
Injected packet length average = 1
Accepted packet length average = 1
Total in-flight flits = 20 (0 measured)
latency change    = 1
throughput change = 1
Class 0:
Packet latency average = 19.3889
	minimum = 7
	maximum = 40
Network latency average = 19.3889
	minimum = 7
	maximum = 40
Slowest packet = 24243
Flit latency average = 19.3889
	minimum = 7
	maximum = 40
Slowest flit = 24243
Fragmentation average = 0
	minimum = 0
	maximum = 0
Injected packet rate average = 0.048125
	minimum = 0.04 (at node 12)
	maximum = 0.0555 (at node 6)
Accepted packet rate average = 0.0476562
	minimum = 0.0415 (at node 11)
	maximum = 0.054 (at node 14)
Injected flit rate average = 0.048125
	minimum = 0.04 (at node 12)
	maximum = 0.0555 (at node 6)
Accepted flit rate average= 0.0476562
	minimum = 0.0415 (at node 11)
	maximum = 0.054 (at node 14)
Injected packet length average = 1
Accepted packet length average = 1
Total in-flight flits = 15 (0 measured)
latency change    = 0.00379672
throughput change = 0.0216393
Class 0:
Packet latency average = 19.2924
	minimum = 7
	maximum = 38
Network latency average = 19.2924
	minimum = 7
	maximum = 38
Slowest packet = 25075
Flit latency average = 19.2924
	minimum = 7
	maximum = 38
Slowest flit = 25075
Fragmentation average = 0
	minimum = 0
	maximum = 0
Injected packet rate average = 0.051875
	minimum = 0.038 (at node 11)
	maximum = 0.061 (at node 9)
Accepted packet rate average = 0.0519375
	minimum = 0.038 (at node 15)
	maximum = 0.07 (at node 1)
Injected flit rate average = 0.051875
	minimum = 0.038 (at node 11)
	maximum = 0.061 (at node 9)
Accepted flit rate average= 0.0519375
	minimum = 0.038 (at node 15)
	maximum = 0.07 (at node 1)
Injected packet length average = 1
Accepted packet length average = 1
Total in-flight flits = 14 (0 measured)
latency change    = 0.00499853
throughput change = 0.0824308
Warmed up ...Time used is 3000 cycles
Class 0:
Packet latency average = 19.9258
	minimum = 7
	maximum = 37
Network latency average = 19.9258
	minimum = 7
	maximum = 37
Slowest packet = 25210
Flit latency average = 19.9792
	minimum = 7
	maximum = 37
Slowest flit = 25152
Fragmentation average = 0
	minimum = 0
	maximum = 0
Injected packet rate average = 0.048125
	minimum = 0.034 (at node 3)
	maximum = 0.064 (at node 12)
Accepted packet rate average = 0.0480625
	minimum = 0.037 (at node 0)
	maximum = 0.059 (at node 5)
Injected flit rate average = 0.048125
	minimum = 0.034 (at node 3)
	maximum = 0.064 (at node 12)
Accepted flit rate average= 0.0480625
	minimum = 0.037 (at node 0)
	maximum = 0.059 (at node 5)
Injected packet length average = 1
Accepted packet length average = 1
Total in-flight flits = 15 (15 measured)
latency change    = 0.0317883
throughput change = 0.0806242
Class 0:
Packet latency average = 19.9116
	minimum = 7
	maximum = 39
Network latency average = 19.9116
	minimum = 7
	maximum = 39
Slowest packet = 26517
Flit latency average = 19.9385
	minimum = 7
	maximum = 39
Slowest flit = 26517
Fragmentation average = 0
	minimum = 0
	maximum = 0
Injected packet rate average = 0.04775
	minimum = 0.037 (at node 7)
	maximum = 0.06 (at node 12)
Accepted packet rate average = 0.0477812
	minimum = 0.039 (at node 10)
	maximum = 0.0545 (at node 2)
Injected flit rate average = 0.04775
	minimum = 0.037 (at node 7)
	maximum = 0.06 (at node 12)
Accepted flit rate average= 0.0477812
	minimum = 0.039 (at node 10)
	maximum = 0.0545 (at node 2)
Injected packet length average = 1
Accepted packet length average = 1
Total in-flight flits = 13 (13 measured)
latency change    = 0.000717004
throughput change = 0.0058862
Class 0:
Packet latency average = 19.8524
	minimum = 7
	maximum = 39
Network latency average = 19.8524
	minimum = 7
	maximum = 39
Slowest packet = 26517
Flit latency average = 19.8705
	minimum = 7
	maximum = 39
Slowest flit = 26517
Fragmentation average = 0
	minimum = 0
	maximum = 0
Injected packet rate average = 0.0483542
	minimum = 0.0383333 (at node 4)
	maximum = 0.058 (at node 12)
Accepted packet rate average = 0.0484375
	minimum = 0.041 (at node 10)
	maximum = 0.0543333 (at node 15)
Injected flit rate average = 0.0483542
	minimum = 0.0383333 (at node 4)
	maximum = 0.058 (at node 12)
Accepted flit rate average= 0.0484375
	minimum = 0.041 (at node 10)
	maximum = 0.0543333 (at node 15)
Injected packet length average = 1
Accepted packet length average = 1
Total in-flight flits = 10 (10 measured)
latency change    = 0.00297728
throughput change = 0.0135484
Class 0:
Packet latency average = 19.7508
	minimum = 7
	maximum = 41
Network latency average = 19.7508
	minimum = 7
	maximum = 41
Slowest packet = 27769
Flit latency average = 19.7647
	minimum = 7
	maximum = 41
Slowest flit = 27769
Fragmentation average = 0
	minimum = 0
	maximum = 0
Injected packet rate average = 0.0490156
	minimum = 0.0395 (at node 3)
	maximum = 0.056 (at node 12)
Accepted packet rate average = 0.049
	minimum = 0.04425 (at node 4)
	maximum = 0.0545 (at node 15)
Injected flit rate average = 0.0490156
	minimum = 0.0395 (at node 3)
	maximum = 0.056 (at node 12)
Accepted flit rate average= 0.049
	minimum = 0.04425 (at node 4)
	maximum = 0.0545 (at node 15)
Injected packet length average = 1
Accepted packet length average = 1
Total in-flight flits = 15 (15 measured)
latency change    = 0.00514633
throughput change = 0.0114796
Draining all recorded packets ...
Draining remaining packets ...
Time taken is 7063 cycles
Class 0:
Packet latency average = 19.6909
	minimum = 7
	maximum = 37
Network latency average = 19.6909
	minimum = 7
	maximum = 37
Slowest packet = 28351
Flit latency average = 19.6909
	minimum = 7
	maximum = 37
Slowest flit = 28351
Fragmentation average = 0
	minimum = 0
	maximum = 0
Injected packet rate average = 0.0528125
	minimum = 0.043 (at node 6)
	maximum = 0.07 (at node 2)
Accepted packet rate average = 0.0515625
	minimum = 0.04 (at node 3)
	maximum = 0.062 (at node 1)
Injected flit rate average = 0.0528125
	minimum = 0.043 (at node 6)
	maximum = 0.07 (at node 2)
Accepted flit rate average= 0.0515625
	minimum = 0.04 (at node 3)
	maximum = 0.062 (at node 1)
Injected packet length average = 1
Accepted packet length average = 1
Total in-flight flits = 20 (0 measured)
latency change    = 1
throughput change = 1
Class 0:
Packet latency average = 19.6367
	minimum = 7
	maximum = 38
Network latency average = 19.6367
	minimum = 7
	maximum = 38
Slowest packet = 29328
Flit latency average = 19.6367
	minimum = 7
	maximum = 38
Slowest flit = 29328
Fragmentation average = 0
	minimum = 0
	maximum = 0
Injected packet rate average = 0.0513125
	minimum = 0.044 (at node 3)
	maximum = 0.0625 (at node 11)
Accepted packet rate average = 0.05075
	minimum = 0.039 (at node 3)
	maximum = 0.058 (at node 11)
Injected flit rate average = 0.0513125
	minimum = 0.044 (at node 3)
	maximum = 0.0625 (at node 11)
Accepted flit rate average= 0.05075
	minimum = 0.039 (at node 3)
	maximum = 0.058 (at node 11)
Injected packet length average = 1
Accepted packet length average = 1
Total in-flight flits = 18 (0 measured)
latency change    = 0.00276063
throughput change = 0.0160099
Class 0:
Packet latency average = 20.0794
	minimum = 7
	maximum = 37
Network latency average = 20.0794
	minimum = 7
	maximum = 37
Slowest packet = 30008
Flit latency average = 20.0794
	minimum = 7
	maximum = 37
Slowest flit = 30008
Fragmentation average = 0
	minimum = 0
	maximum = 0
Injected packet rate average = 0.0505
	minimum = 0.038 (at node 11)
	maximum = 0.058 (at node 5)
Accepted packet rate average = 0.050375
	minimum = 0.041 (at node 8)
	maximum = 0.06 (at node 0)
Injected flit rate average = 0.0505
	minimum = 0.038 (at node 11)
	maximum = 0.058 (at node 5)
Accepted flit rate average= 0.050375
	minimum = 0.041 (at node 8)
	maximum = 0.06 (at node 0)
Injected packet length average = 1
Accepted packet length average = 1
Total in-flight flits = 20 (0 measured)
latency change    = 0.0220477
throughput change = 0.00744417
Warmed up ...Time used is 3000 cycles
Class 0:
Packet latency average = 19.5945
	minimum = 7
	maximum = 41
Network latency average = 19.5945
	minimum = 7
	maximum = 41
Slowest packet = 30928
Flit latency average = 19.7338
	minimum = 7
	maximum = 41
Slowest flit = 30928
Fragmentation average = 0
	minimum = 0
	maximum = 0
Injected packet rate average = 0.0509375
	minimum = 0.039 (at node 9)
	maximum = 0.065 (at node 4)
Accepted packet rate average = 0.0511875
	minimum = 0.039 (at node 13)
	maximum = 0.061 (at node 11)
Injected flit rate average = 0.0509375
	minimum = 0.039 (at node 9)
	maximum = 0.065 (at node 4)
Accepted flit rate average= 0.0511875
	minimum = 0.039 (at node 13)
	maximum = 0.061 (at node 11)
Injected packet length average = 1
Accepted packet length average = 1
Total in-flight flits = 16 (16 measured)
latency change    = 0.0247473
throughput change = 0.015873
Class 0:
Packet latency average = 19.5072
	minimum = 7
	maximum = 41
Network latency average = 19.5072
	minimum = 7
	maximum = 41
Slowest packet = 30928
Flit latency average = 19.5789
	minimum = 7
	maximum = 41
Slowest flit = 30928
Fragmentation average = 0
	minimum = 0
	maximum = 0
Injected packet rate average = 0.050375
	minimum = 0.043 (at node 9)
	maximum = 0.0555 (at node 5)
Accepted packet rate average = 0.0504687
	minimum = 0.039 (at node 13)
	maximum = 0.059 (at node 6)
Injected flit rate average = 0.050375
	minimum = 0.043 (at node 9)
	maximum = 0.0555 (at node 5)
Accepted flit rate average= 0.0504687
	minimum = 0.039 (at node 13)
	maximum = 0.059 (at node 6)
Injected packet length average = 1
Accepted packet length average = 1
Total in-flight flits = 17 (17 measured)
latency change    = 0.0044744
throughput change = 0.0142415
Class 0:
Packet latency average = 19.4874
	minimum = 7
	maximum = 41
Network latency average = 19.4874
	minimum = 7
	maximum = 41
Slowest packet = 30928
Flit latency average = 19.5358
	minimum = 7
	maximum = 41
Slowest flit = 30928
Fragmentation average = 0
	minimum = 0
	maximum = 0
Injected packet rate average = 0.049875
	minimum = 0.0443333 (at node 9)
	maximum = 0.054 (at node 15)
Accepted packet rate average = 0.0500417
	minimum = 0.0446667 (at node 13)
	maximum = 0.057 (at node 6)
Injected flit rate average = 0.049875
	minimum = 0.0443333 (at node 9)
	maximum = 0.054 (at node 15)
Accepted flit rate average= 0.0500417
	minimum = 0.0446667 (at node 13)
	maximum = 0.057 (at node 6)
Injected packet length average = 1
Accepted packet length average = 1
Total in-flight flits = 12 (12 measured)
latency change    = 0.00101627
throughput change = 0.00853455
Draining all recorded packets ...
Draining remaining packets ...
Time taken is 6056 cycles
Class 0:
Packet latency average = 19.5298
	minimum = 7
	maximum = 37
Network latency average = 19.5298
	minimum = 7
	maximum = 37
Slowest packet = 33225
Flit latency average = 19.5298
	minimum = 7
	maximum = 37
Slowest flit = 33225
Fragmentation average = 0
	minimum = 0
	maximum = 0
Injected packet rate average = 0.053
	minimum = 0.044 (at node 7)
	maximum = 0.061 (at node 2)
Accepted packet rate average = 0.052375
	minimum = 0.04 (at node 12)
	maximum = 0.068 (at node 0)
Injected flit rate average = 0.053
	minimum = 0.044 (at node 7)
	maximum = 0.061 (at node 2)
Accepted flit rate average= 0.052375
	minimum = 0.04 (at node 12)
	maximum = 0.068 (at node 0)
Injected packet length average = 1
Accepted packet length average = 1
Total in-flight flits = 10 (0 measured)
latency change    = 1
throughput change = 1
Class 0:
Packet latency average = 19.5468
	minimum = 7
	maximum = 39
Network latency average = 19.5468
	minimum = 7
	maximum = 39
Slowest packet = 34340
Flit latency average = 19.5468
	minimum = 7
	maximum = 39
Slowest flit = 34340
Fragmentation average = 0
	minimum = 0
	maximum = 0
Injected packet rate average = 0.0522188
	minimum = 0.0475 (at node 1)
	maximum = 0.06 (at node 9)
Accepted packet rate average = 0.0517813
	minimum = 0.0405 (at node 12)
	maximum = 0.061 (at node 11)
Injected flit rate average = 0.0522188
	minimum = 0.0475 (at node 1)
	maximum = 0.06 (at node 9)
Accepted flit rate average= 0.0517813
	minimum = 0.0405 (at node 12)
	maximum = 0.061 (at node 11)
Injected packet length average = 1
Accepted packet length average = 1
Total in-flight flits = 14 (0 measured)
latency change    = 0.000866554
throughput change = 0.0114665
Class 0:
Packet latency average = 19.4033
	minimum = 7
	maximum = 37
Network latency average = 19.4033
	minimum = 7
	maximum = 37
Slowest packet = 34968
Flit latency average = 19.4033
	minimum = 7
	maximum = 37
Slowest flit = 34968
Fragmentation average = 0
	minimum = 0
	maximum = 0
Injected packet rate average = 0.0530625
	minimum = 0.039 (at node 2)
	maximum = 0.063 (at node 10)
Accepted packet rate average = 0.0526875
	minimum = 0.039 (at node 4)
	maximum = 0.062 (at node 11)
Injected flit rate average = 0.0530625
	minimum = 0.039 (at node 2)
	maximum = 0.063 (at node 10)
Accepted flit rate average= 0.0526875
	minimum = 0.039 (at node 4)
	maximum = 0.062 (at node 11)
Injected packet length average = 1
Accepted packet length average = 1
Total in-flight flits = 20 (0 measured)
latency change    = 0.00739305
throughput change = 0.0172005
Warmed up ...Time used is 3000 cycles
Class 0:
Packet latency average = 19.3815
	minimum = 7
	maximum = 38
Network latency average = 19.3815
	minimum = 7
	maximum = 38
Slowest packet = 36280
Flit latency average = 19.4971
	minimum = 7
	maximum = 38
Slowest flit = 36280
Fragmentation average = 0
	minimum = 0
	maximum = 0
Injected packet rate average = 0.0530625
	minimum = 0.035 (at node 13)
	maximum = 0.073 (at node 5)
Accepted packet rate average = 0.0531875
	minimum = 0.046 (at node 2)
	maximum = 0.073 (at node 5)
Injected flit rate average = 0.0530625
	minimum = 0.035 (at node 13)
	maximum = 0.073 (at node 5)
Accepted flit rate average= 0.0531875
	minimum = 0.046 (at node 2)
	maximum = 0.073 (at node 5)
Injected packet length average = 1
Accepted packet length average = 1
Total in-flight flits = 18 (18 measured)
latency change    = 0.00112754
throughput change = 0.00940071
Class 0:
Packet latency average = 19.5802
	minimum = 7
	maximum = 38
Network latency average = 19.5802
	minimum = 7
	maximum = 38
Slowest packet = 36280
Flit latency average = 19.6379
	minimum = 7
	maximum = 38
Slowest flit = 36280
Fragmentation average = 0
	minimum = 0
	maximum = 0
Injected packet rate average = 0.0508125
	minimum = 0.041 (at node 2)
	maximum = 0.0595 (at node 5)
Accepted packet rate average = 0.0510938
	minimum = 0.042 (at node 2)
	maximum = 0.06 (at node 5)
Injected flit rate average = 0.0508125
	minimum = 0.041 (at node 2)
	maximum = 0.0595 (at node 5)
Accepted flit rate average= 0.0510938
	minimum = 0.042 (at node 2)
	maximum = 0.06 (at node 5)
Injected packet length average = 1
Accepted packet length average = 1
Total in-flight flits = 11 (11 measured)
latency change    = 0.0101489
throughput change = 0.0409786
Class 0:
Packet latency average = 19.6993
	minimum = 7
	maximum = 38
Network latency average = 19.6993
	minimum = 7
	maximum = 38
Slowest packet = 36280
Flit latency average = 19.7371
	minimum = 7
	maximum = 38
Slowest flit = 36280
Fragmentation average = 0
	minimum = 0
	maximum = 0
Injected packet rate average = 0.0507083
	minimum = 0.0416667 (at node 11)
	maximum = 0.0603333 (at node 1)
Accepted packet rate average = 0.0507917
	minimum = 0.043 (at node 13)
	maximum = 0.0586667 (at node 12)
Injected flit rate average = 0.0507083
	minimum = 0.0416667 (at node 11)
	maximum = 0.0603333 (at node 1)
Accepted flit rate average= 0.0507917
	minimum = 0.043 (at node 13)
	maximum = 0.0586667 (at node 12)
Injected packet length average = 1
Accepted packet length average = 1
Total in-flight flits = 16 (16 measured)
latency change    = 0.00604856
throughput change = 0.0059475
Draining all recorded packets ...
Draining remaining packets ...
Time taken is 6056 cycles
Class 0:
Packet latency average = 19.5182
	minimum = 7
	maximum = 38
Network latency average = 19.5182
	minimum = 7
	maximum = 38
Slowest packet = 38569
Flit latency average = 19.5182
	minimum = 7
	maximum = 38
Slowest flit = 38569
Fragmentation average = 0
	minimum = 0
	maximum = 0
Injected packet rate average = 0.0539375
	minimum = 0.028 (at node 4)
	maximum = 0.067 (at node 11)
Accepted packet rate average = 0.0531875
	minimum = 0.043 (at node 15)
	maximum = 0.064 (at node 7)
Injected flit rate average = 0.0539375
	minimum = 0.028 (at node 4)
	maximum = 0.067 (at node 11)
Accepted flit rate average= 0.0531875
	minimum = 0.043 (at node 15)
	maximum = 0.064 (at node 7)
Injected packet length average = 1
Accepted packet length average = 1
Total in-flight flits = 12 (0 measured)
latency change    = 1
throughput change = 1
Class 0:
Packet latency average = 19.6192
	minimum = 7
	maximum = 38
Network latency average = 19.6192
	minimum = 7
	maximum = 38
Slowest packet = 38569
Flit latency average = 19.6192
	minimum = 7
	maximum = 38
Slowest flit = 38569
Fragmentation average = 0
	minimum = 0
	maximum = 0
Injected packet rate average = 0.0532813
	minimum = 0.046 (at node 4)
	maximum = 0.061 (at node 9)
Accepted packet rate average = 0.0526875
	minimum = 0.046 (at node 3)
	maximum = 0.059 (at node 11)
Injected flit rate average = 0.0532813
	minimum = 0.046 (at node 4)
	maximum = 0.061 (at node 9)
Accepted flit rate average= 0.0526875
	minimum = 0.046 (at node 3)
	maximum = 0.059 (at node 11)
Injected packet length average = 1
Accepted packet length average = 1
Total in-flight flits = 19 (0 measured)
latency change    = 0.00514818
throughput change = 0.00948992
Class 0:
Packet latency average = 19.4837
	minimum = 7
	maximum = 37
Network latency average = 19.4837
	minimum = 7
	maximum = 37
Slowest packet = 39838
Flit latency average = 19.4837
	minimum = 7
	maximum = 37
Slowest flit = 39838
Fragmentation average = 0
	minimum = 0
	maximum = 0
Injected packet rate average = 0.048125
	minimum = 0.042 (at node 0)
	maximum = 0.055 (at node 13)
Accepted packet rate average = 0.0478125
	minimum = 0.039 (at node 6)
	maximum = 0.059 (at node 4)
Injected flit rate average = 0.048125
	minimum = 0.042 (at node 0)
	maximum = 0.055 (at node 13)
Accepted flit rate average= 0.0478125
	minimum = 0.039 (at node 6)
	maximum = 0.059 (at node 4)
Injected packet length average = 1
Accepted packet length average = 1
Total in-flight flits = 24 (0 measured)
latency change    = 0.00695747
throughput change = 0.101961
Warmed up ...Time used is 3000 cycles
Class 0:
Packet latency average = 19.3098
	minimum = 7
	maximum = 38
Network latency average = 19.3098
	minimum = 7
	maximum = 38
Slowest packet = 41015
Flit latency average = 19.4487
	minimum = 7
	maximum = 38
Slowest flit = 41015
Fragmentation average = 0
	minimum = 0
	maximum = 0
Injected packet rate average = 0.048125
	minimum = 0.039 (at node 2)
	maximum = 0.062 (at node 5)
Accepted packet rate average = 0.0493125
	minimum = 0.032 (at node 0)
	maximum = 0.06 (at node 4)
Injected flit rate average = 0.048125
	minimum = 0.039 (at node 2)
	maximum = 0.062 (at node 5)
Accepted flit rate average= 0.0493125
	minimum = 0.032 (at node 0)
	maximum = 0.06 (at node 4)
Injected packet length average = 1
Accepted packet length average = 1
Total in-flight flits = 5 (5 measured)
latency change    = 0.00900352
throughput change = 0.0304183
Class 0:
Packet latency average = 19.5
	minimum = 7
	maximum = 39
Network latency average = 19.5
	minimum = 7
	maximum = 39
Slowest packet = 41912
Flit latency average = 19.5664
	minimum = 7
	maximum = 39
Slowest flit = 41912
Fragmentation average = 0
	minimum = 0
	maximum = 0
Injected packet rate average = 0.04925
	minimum = 0.0425 (at node 14)
	maximum = 0.0585 (at node 5)
Accepted packet rate average = 0.0494375
	minimum = 0.0395 (at node 6)
	maximum = 0.0565 (at node 14)
Injected flit rate average = 0.04925
	minimum = 0.0425 (at node 14)
	maximum = 0.0585 (at node 5)
Accepted flit rate average= 0.0494375
	minimum = 0.0395 (at node 6)
	maximum = 0.0565 (at node 14)
Injected packet length average = 1
Accepted packet length average = 1
Total in-flight flits = 18 (18 measured)
latency change    = 0.00975365
throughput change = 0.00252845
Class 0:
Packet latency average = 19.5566
	minimum = 7
	maximum = 39
Network latency average = 19.5566
	minimum = 7
	maximum = 39
Slowest packet = 41912
Flit latency average = 19.5993
	minimum = 7
	maximum = 39
Slowest flit = 41912
Fragmentation average = 0
	minimum = 0
	maximum = 0
Injected packet rate average = 0.0505208
	minimum = 0.045 (at node 11)
	maximum = 0.055 (at node 5)
Accepted packet rate average = 0.0505833
	minimum = 0.0443333 (at node 6)
	maximum = 0.059 (at node 4)
Injected flit rate average = 0.0505208
	minimum = 0.045 (at node 11)
	maximum = 0.055 (at node 5)
Accepted flit rate average= 0.0505833
	minimum = 0.0443333 (at node 6)
	maximum = 0.059 (at node 4)
Injected packet length average = 1
Accepted packet length average = 1
Total in-flight flits = 21 (21 measured)
latency change    = 0.00289276
throughput change = 0.0226524
Draining all recorded packets ...
Draining remaining packets ...
Time taken is 6061 cycles
Class 0:
Packet latency average = 19.4826
	minimum = 7
	maximum = 40
Network latency average = 19.4826
	minimum = 7
	maximum = 40
Slowest packet = 43501
Flit latency average = 19.4826
	minimum = 7
	maximum = 40
Slowest flit = 43501
Fragmentation average = 0
	minimum = 0
	maximum = 0
Injected packet rate average = 0.0496875
	minimum = 0.038 (at node 12)
	maximum = 0.059 (at node 3)
Accepted packet rate average = 0.0484375
	minimum = 0.039 (at node 0)
	maximum = 0.063 (at node 11)
Injected flit rate average = 0.0496875
	minimum = 0.038 (at node 12)
	maximum = 0.059 (at node 3)
Accepted flit rate average= 0.0484375
	minimum = 0.039 (at node 0)
	maximum = 0.063 (at node 11)
Injected packet length average = 1
Accepted packet length average = 1
Total in-flight flits = 20 (0 measured)
latency change    = 1
throughput change = 1
Class 0:
Packet latency average = 19.4152
	minimum = 7
	maximum = 40
Network latency average = 19.4152
	minimum = 7
	maximum = 40
Slowest packet = 43501
Flit latency average = 19.4152
	minimum = 7
	maximum = 40
Slowest flit = 43501
Fragmentation average = 0
	minimum = 0
	maximum = 0
Injected packet rate average = 0.0489062
	minimum = 0.043 (at node 4)
	maximum = 0.056 (at node 3)
Accepted packet rate average = 0.0484687
	minimum = 0.0415 (at node 0)
	maximum = 0.06 (at node 11)
Injected flit rate average = 0.0489062
	minimum = 0.043 (at node 4)
	maximum = 0.056 (at node 3)
Accepted flit rate average= 0.0484687
	minimum = 0.0415 (at node 0)
	maximum = 0.06 (at node 11)
Injected packet length average = 1
Accepted packet length average = 1
Total in-flight flits = 14 (0 measured)
latency change    = 0.00346968
throughput change = 0.000644745
Class 0:
Packet latency average = 19.602
	minimum = 7
	maximum = 38
Network latency average = 19.602
	minimum = 7
	maximum = 38
Slowest packet = 45145
Flit latency average = 19.602
	minimum = 7
	maximum = 38
Slowest flit = 45145
Fragmentation average = 0
	minimum = 0
	maximum = 0
Injected packet rate average = 0.05025
	minimum = 0.043 (at node 0)
	maximum = 0.06 (at node 1)
Accepted packet rate average = 0.05025
	minimum = 0.039 (at node 11)
	maximum = 0.062 (at node 8)
Injected flit rate average = 0.05025
	minimum = 0.043 (at node 0)
	maximum = 0.06 (at node 1)
Accepted flit rate average= 0.05025
	minimum = 0.039 (at node 11)
	maximum = 0.062 (at node 8)
Injected packet length average = 1
Accepted packet length average = 1
Total in-flight flits = 14 (0 measured)
latency change    = 0.00952832
throughput change = 0.0354478
Warmed up ...Time used is 3000 cycles
Class 0:
Packet latency average = 19.1444
	minimum = 7
	maximum = 42
Network latency average = 19.1444
	minimum = 7
	maximum = 42
Slowest packet = 45707
Flit latency average = 19.1658
	minimum = 7
	maximum = 42
Slowest flit = 45707
Fragmentation average = 0
	minimum = 0
	maximum = 0
Injected packet rate average = 0.046625
	minimum = 0.038 (at node 6)
	maximum = 0.062 (at node 1)
Accepted packet rate average = 0.04675
	minimum = 0.039 (at node 7)
	maximum = 0.054 (at node 6)
Injected flit rate average = 0.046625
	minimum = 0.038 (at node 6)
	maximum = 0.062 (at node 1)
Accepted flit rate average= 0.04675
	minimum = 0.039 (at node 7)
	maximum = 0.054 (at node 6)
Injected packet length average = 1
Accepted packet length average = 1
Total in-flight flits = 12 (12 measured)
latency change    = 0.0239013
throughput change = 0.0748663
Class 0:
Packet latency average = 19.4827
	minimum = 7
	maximum = 42
Network latency average = 19.4827
	minimum = 7
	maximum = 42
Slowest packet = 45707
Flit latency average = 19.4901
	minimum = 7
	maximum = 42
Slowest flit = 45707
Fragmentation average = 0
	minimum = 0
	maximum = 0
Injected packet rate average = 0.0474687
	minimum = 0.036 (at node 13)
	maximum = 0.057 (at node 8)
Accepted packet rate average = 0.047375
	minimum = 0.0375 (at node 9)
	maximum = 0.0545 (at node 2)
Injected flit rate average = 0.0474687
	minimum = 0.036 (at node 13)
	maximum = 0.057 (at node 8)
Accepted flit rate average= 0.047375
	minimum = 0.0375 (at node 9)
	maximum = 0.0545 (at node 2)
Injected packet length average = 1
Accepted packet length average = 1
Total in-flight flits = 17 (17 measured)
latency change    = 0.0173629
throughput change = 0.0131926
Class 0:
Packet latency average = 19.5891
	minimum = 7
	maximum = 42
Network latency average = 19.5891
	minimum = 7
	maximum = 42
Slowest packet = 45707
Flit latency average = 19.5934
	minimum = 7
	maximum = 42
Slowest flit = 45707
Fragmentation average = 0
	minimum = 0
	maximum = 0
Injected packet rate average = 0.0478958
	minimum = 0.036 (at node 13)
	maximum = 0.0553333 (at node 8)
Accepted packet rate average = 0.0478542
	minimum = 0.041 (at node 9)
	maximum = 0.0593333 (at node 6)
Injected flit rate average = 0.0478958
	minimum = 0.036 (at node 13)
	maximum = 0.0553333 (at node 8)
Accepted flit rate average= 0.0478542
	minimum = 0.041 (at node 9)
	maximum = 0.0593333 (at node 6)
Injected packet length average = 1
Accepted packet length average = 1
Total in-flight flits = 16 (16 measured)
latency change    = 0.005434
throughput change = 0.0100131
Class 0:
Packet latency average = 19.518
	minimum = 7
	maximum = 42
Network latency average = 19.518
	minimum = 7
	maximum = 42
Slowest packet = 45707
Flit latency average = 19.5214
	minimum = 7
	maximum = 42
Slowest flit = 45707
Fragmentation average = 0
	minimum = 0
	maximum = 0
Injected packet rate average = 0.0489531
	minimum = 0.04075 (at node 13)
	maximum = 0.05525 (at node 4)
Accepted packet rate average = 0.0489062
	minimum = 0.041 (at node 13)
	maximum = 0.05875 (at node 6)
Injected flit rate average = 0.0489531
	minimum = 0.04075 (at node 13)
	maximum = 0.05525 (at node 4)
Accepted flit rate average= 0.0489062
	minimum = 0.041 (at node 13)
	maximum = 0.05875 (at node 6)
Injected packet length average = 1
Accepted packet length average = 1
Total in-flight flits = 17 (17 measured)
latency change    = 0.00364614
throughput change = 0.0215122
Draining all recorded packets ...
Draining remaining packets ...
Time taken is 7052 cycles
Class 0:
Packet latency average = 19.1665
	minimum = 7
	maximum = 37
Network latency average = 19.1665
	minimum = 7
	maximum = 37
Slowest packet = 48694
Flit latency average = 19.1665
	minimum = 7
	maximum = 37
Slowest flit = 48694
Fragmentation average = 0
	minimum = 0
	maximum = 0
Injected packet rate average = 0.0493125
	minimum = 0.035 (at node 12)
	maximum = 0.058 (at node 5)
Accepted packet rate average = 0.0484375
	minimum = 0.041 (at node 14)
	maximum = 0.062 (at node 1)
Injected flit rate average = 0.0493125
	minimum = 0.035 (at node 12)
	maximum = 0.058 (at node 5)
Accepted flit rate average= 0.0484375
	minimum = 0.041 (at node 14)
	maximum = 0.062 (at node 1)
Injected packet length average = 1
Accepted packet length average = 1
Total in-flight flits = 14 (0 measured)
latency change    = 1
throughput change = 1
Class 0:
Packet latency average = 19.654
	minimum = 7
	maximum = 38
Network latency average = 19.654
	minimum = 7
	maximum = 38
Slowest packet = 49570
Flit latency average = 19.654
	minimum = 7
	maximum = 38
Slowest flit = 49570
Fragmentation average = 0
	minimum = 0
	maximum = 0
Injected packet rate average = 0.0484062
	minimum = 0.0405 (at node 12)
	maximum = 0.056 (at node 2)
Accepted packet rate average = 0.0477812
	minimum = 0.0415 (at node 2)
	maximum = 0.059 (at node 3)
Injected flit rate average = 0.0484062
	minimum = 0.0405 (at node 12)
	maximum = 0.056 (at node 2)
Accepted flit rate average= 0.0477812
	minimum = 0.0415 (at node 2)
	maximum = 0.059 (at node 3)
Injected packet length average = 1
Accepted packet length average = 1
Total in-flight flits = 20 (0 measured)
latency change    = 0.0248077
throughput change = 0.0137345
Class 0:
Packet latency average = 19.7468
	minimum = 7
	maximum = 38
Network latency average = 19.7468
	minimum = 7
	maximum = 38
Slowest packet = 50549
Flit latency average = 19.7468
	minimum = 7
	maximum = 38
Slowest flit = 50549
Fragmentation average = 0
	minimum = 0
	maximum = 0
Injected packet rate average = 0.047875
	minimum = 0.034 (at node 12)
	maximum = 0.062 (at node 1)
Accepted packet rate average = 0.048375
	minimum = 0.036 (at node 3)
	maximum = 0.059 (at node 7)
Injected flit rate average = 0.047875
	minimum = 0.034 (at node 12)
	maximum = 0.062 (at node 1)
Accepted flit rate average= 0.048375
	minimum = 0.036 (at node 3)
	maximum = 0.059 (at node 7)
Injected packet length average = 1
Accepted packet length average = 1
Total in-flight flits = 12 (0 measured)
latency change    = 0.00469686
throughput change = 0.0122739
Warmed up ...Time used is 3000 cycles
Class 0:
Packet latency average = 19.358
	minimum = 7
	maximum = 39
Network latency average = 19.358
	minimum = 7
	maximum = 39
Slowest packet = 51587
Flit latency average = 19.387
	minimum = 7
	maximum = 39
Slowest flit = 51587
Fragmentation average = 0
	minimum = 0
	maximum = 0
Injected packet rate average = 0.048625
	minimum = 0.038 (at node 14)
	maximum = 0.063 (at node 10)
Accepted packet rate average = 0.0489375
	minimum = 0.036 (at node 11)
	maximum = 0.071 (at node 15)
Injected flit rate average = 0.048625
	minimum = 0.038 (at node 14)
	maximum = 0.063 (at node 10)
Accepted flit rate average= 0.0489375
	minimum = 0.036 (at node 11)
	maximum = 0.071 (at node 15)
Injected packet length average = 1
Accepted packet length average = 1
Total in-flight flits = 7 (7 measured)
latency change    = 0.0200844
throughput change = 0.0114943
Class 0:
Packet latency average = 19.6149
	minimum = 7
	maximum = 39
Network latency average = 19.6149
	minimum = 7
	maximum = 39
Slowest packet = 51587
Flit latency average = 19.6277
	minimum = 7
	maximum = 39
Slowest flit = 51587
Fragmentation average = 0
	minimum = 0
	maximum = 0
Injected packet rate average = 0.04825
	minimum = 0.043 (at node 5)
	maximum = 0.054 (at node 10)
Accepted packet rate average = 0.0480937
	minimum = 0.0375 (at node 14)
	maximum = 0.0625 (at node 15)
Injected flit rate average = 0.04825
	minimum = 0.043 (at node 5)
	maximum = 0.054 (at node 10)
Accepted flit rate average= 0.0480937
	minimum = 0.0375 (at node 14)
	maximum = 0.0625 (at node 15)
Injected packet length average = 1
Accepted packet length average = 1
Total in-flight flits = 17 (17 measured)
latency change    = 0.0130999
throughput change = 0.0175439
Class 0:
Packet latency average = 19.6973
	minimum = 7
	maximum = 39
Network latency average = 19.6973
	minimum = 7
	maximum = 39
Slowest packet = 51587
Flit latency average = 19.7053
	minimum = 7
	maximum = 39
Slowest flit = 51587
Fragmentation average = 0
	minimum = 0
	maximum = 0
Injected packet rate average = 0.048375
	minimum = 0.0443333 (at node 5)
	maximum = 0.0543333 (at node 11)
Accepted packet rate average = 0.0483542
	minimum = 0.043 (at node 6)
	maximum = 0.057 (at node 15)
Injected flit rate average = 0.048375
	minimum = 0.0443333 (at node 5)
	maximum = 0.0543333 (at node 11)
Accepted flit rate average= 0.0483542
	minimum = 0.043 (at node 6)
	maximum = 0.057 (at node 15)
Injected packet length average = 1
Accepted packet length average = 1
Total in-flight flits = 13 (13 measured)
latency change    = 0.00418029
throughput change = 0.00538561
Draining all recorded packets ...
Draining remaining packets ...
Time taken is 6052 cycles
Class 0:
Packet latency average = 19.3166
	minimum = 7
	maximum = 37
Network latency average = 19.3166
	minimum = 7
	maximum = 37
Slowest packet = 53341
Flit latency average = 19.3166
	minimum = 7
	maximum = 37
Slowest flit = 53341
Fragmentation average = 0
	minimum = 0
	maximum = 0
Injected packet rate average = 0.0523125
	minimum = 0.043 (at node 8)
	maximum = 0.061 (at node 14)
Accepted packet rate average = 0.051125
	minimum = 0.039 (at node 3)
	maximum = 0.069 (at node 11)
Injected flit rate average = 0.0523125
	minimum = 0.043 (at node 8)
	maximum = 0.061 (at node 14)
Accepted flit rate average= 0.051125
	minimum = 0.039 (at node 3)
	maximum = 0.069 (at node 11)
Injected packet length average = 1
Accepted packet length average = 1
Total in-flight flits = 19 (0 measured)
latency change    = 1
throughput change = 1
Class 0:
Packet latency average = 19.48
	minimum = 7
	maximum = 37
Network latency average = 19.48
	minimum = 7
	maximum = 37
Slowest packet = 53341
Flit latency average = 19.48
	minimum = 7
	maximum = 37
Slowest flit = 53341
Fragmentation average = 0
	minimum = 0
	maximum = 0
Injected packet rate average = 0.0510625
	minimum = 0.0425 (at node 0)
	maximum = 0.059 (at node 14)
Accepted packet rate average = 0.0506562
	minimum = 0.043 (at node 15)
	maximum = 0.0565 (at node 11)
Injected flit rate average = 0.0510625
	minimum = 0.0425 (at node 0)
	maximum = 0.059 (at node 14)
Accepted flit rate average= 0.0506562
	minimum = 0.043 (at node 15)
	maximum = 0.0565 (at node 11)
Injected packet length average = 1
Accepted packet length average = 1
Total in-flight flits = 13 (0 measured)
latency change    = 0.00838425
throughput change = 0.00925355
Class 0:
Packet latency average = 19.5806
	minimum = 7
	maximum = 37
Network latency average = 19.5806
	minimum = 7
	maximum = 37
Slowest packet = 54929
Flit latency average = 19.5806
	minimum = 7
	maximum = 37
Slowest flit = 54929
Fragmentation average = 0
	minimum = 0
	maximum = 0
Injected packet rate average = 0.04925
	minimum = 0.043 (at node 8)
	maximum = 0.062 (at node 9)
Accepted packet rate average = 0.048875
	minimum = 0.034 (at node 10)
	maximum = 0.061 (at node 2)
Injected flit rate average = 0.04925
	minimum = 0.043 (at node 8)
	maximum = 0.062 (at node 9)
Accepted flit rate average= 0.048875
	minimum = 0.034 (at node 10)
	maximum = 0.061 (at node 2)
Injected packet length average = 1
Accepted packet length average = 1
Total in-flight flits = 19 (0 measured)
latency change    = 0.00513836
throughput change = 0.036445
Warmed up ...Time used is 3000 cycles
Class 0:
Packet latency average = 19.395
	minimum = 7
	maximum = 37
Network latency average = 19.395
	minimum = 7
	maximum = 37
Slowest packet = 55804
Flit latency average = 19.4251
	minimum = 7
	maximum = 37
Slowest flit = 55680
Fragmentation average = 0
	minimum = 0
	maximum = 0
Injected packet rate average = 0.050625
	minimum = 0.033 (at node 9)
	maximum = 0.062 (at node 6)
Accepted packet rate average = 0.050875
	minimum = 0.041 (at node 9)
	maximum = 0.062 (at node 4)
Injected flit rate average = 0.050625
	minimum = 0.033 (at node 9)
	maximum = 0.062 (at node 6)
Accepted flit rate average= 0.050875
	minimum = 0.041 (at node 9)
	maximum = 0.062 (at node 4)
Injected packet length average = 1
Accepted packet length average = 1
Total in-flight flits = 15 (15 measured)
latency change    = 0.00956919
throughput change = 0.039312
Class 0:
Packet latency average = 19.6156
	minimum = 7
	maximum = 37
Network latency average = 19.6156
	minimum = 7
	maximum = 37
Slowest packet = 55804
Flit latency average = 19.6285
	minimum = 7
	maximum = 37
Slowest flit = 55680
Fragmentation average = 0
	minimum = 0
	maximum = 0
Injected packet rate average = 0.0489375
	minimum = 0.0365 (at node 9)
	maximum = 0.0595 (at node 8)
Accepted packet rate average = 0.049125
	minimum = 0.0425 (at node 9)
	maximum = 0.058 (at node 4)
Injected flit rate average = 0.0489375
	minimum = 0.0365 (at node 9)
	maximum = 0.0595 (at node 8)
Accepted flit rate average= 0.049125
	minimum = 0.0425 (at node 9)
	maximum = 0.058 (at node 4)
Injected packet length average = 1
Accepted packet length average = 1
Total in-flight flits = 13 (13 measured)
latency change    = 0.0112469
throughput change = 0.0356234
Class 0:
Packet latency average = 19.7139
	minimum = 7
	maximum = 37
Network latency average = 19.7139
	minimum = 7
	maximum = 37
Slowest packet = 55804
Flit latency average = 19.7219
	minimum = 7
	maximum = 37
Slowest flit = 55680
Fragmentation average = 0
	minimum = 0
	maximum = 0
Injected packet rate average = 0.0482708
	minimum = 0.038 (at node 9)
	maximum = 0.0553333 (at node 15)
Accepted packet rate average = 0.0483125
	minimum = 0.0416667 (at node 3)
	maximum = 0.0576667 (at node 4)
Injected flit rate average = 0.0482708
	minimum = 0.038 (at node 9)
	maximum = 0.0553333 (at node 15)
Accepted flit rate average= 0.0483125
	minimum = 0.0416667 (at node 3)
	maximum = 0.0576667 (at node 4)
Injected packet length average = 1
Accepted packet length average = 1
Total in-flight flits = 17 (17 measured)
latency change    = 0.00498786
throughput change = 0.0168176
Draining all recorded packets ...
Draining remaining packets ...
Time taken is 6061 cycles
Class 0:
Packet latency average = 19.5979
	minimum = 7
	maximum = 39
Network latency average = 19.5979
	minimum = 7
	maximum = 39
Slowest packet = 58266
Flit latency average = 19.5979
	minimum = 7
	maximum = 39
Slowest flit = 58266
Fragmentation average = 0
	minimum = 0
	maximum = 0
Injected packet rate average = 0.048375
	minimum = 0.04 (at node 14)
	maximum = 0.06 (at node 7)
Accepted packet rate average = 0.0475625
	minimum = 0.03 (at node 9)
	maximum = 0.059 (at node 5)
Injected flit rate average = 0.048375
	minimum = 0.04 (at node 14)
	maximum = 0.06 (at node 7)
Accepted flit rate average= 0.0475625
	minimum = 0.03 (at node 9)
	maximum = 0.059 (at node 5)
Injected packet length average = 1
Accepted packet length average = 1
Total in-flight flits = 13 (0 measured)
latency change    = 1
throughput change = 1
Class 0:
Packet latency average = 19.608
	minimum = 7
	maximum = 39
Network latency average = 19.608
	minimum = 7
	maximum = 39
Slowest packet = 58266
Flit latency average = 19.608
	minimum = 7
	maximum = 39
Slowest flit = 58266
Fragmentation average = 0
	minimum = 0
	maximum = 0
Injected packet rate average = 0.0495312
	minimum = 0.0415 (at node 2)
	maximum = 0.0585 (at node 7)
Accepted packet rate average = 0.048625
	minimum = 0.0365 (at node 9)
	maximum = 0.061 (at node 11)
Injected flit rate average = 0.0495312
	minimum = 0.0415 (at node 2)
	maximum = 0.0585 (at node 7)
Accepted flit rate average= 0.048625
	minimum = 0.0365 (at node 9)
	maximum = 0.061 (at node 11)
Injected packet length average = 1
Accepted packet length average = 1
Total in-flight flits = 29 (0 measured)
latency change    = 0.000513651
throughput change = 0.0218509
Class 0:
Packet latency average = 19.5379
	minimum = 7
	maximum = 39
Network latency average = 19.5379
	minimum = 7
	maximum = 39
Slowest packet = 59952
Flit latency average = 19.5379
	minimum = 7
	maximum = 39
Slowest flit = 59952
Fragmentation average = 0
	minimum = 0
	maximum = 0
Injected packet rate average = 0.05
	minimum = 0.04 (at node 6)
	maximum = 0.067 (at node 14)
Accepted packet rate average = 0.051125
	minimum = 0.04 (at node 3)
	maximum = 0.059 (at node 10)
Injected flit rate average = 0.05
	minimum = 0.04 (at node 6)
	maximum = 0.067 (at node 14)
Accepted flit rate average= 0.051125
	minimum = 0.04 (at node 3)
	maximum = 0.059 (at node 10)
Injected packet length average = 1
Accepted packet length average = 1
Total in-flight flits = 11 (0 measured)
latency change    = 0.00358646
throughput change = 0.0488998
Warmed up ...Time used is 3000 cycles
Class 0:
Packet latency average = 19.6743
	minimum = 7
	maximum = 38
Network latency average = 19.6743
	minimum = 7
	maximum = 38
Slowest packet = 60888
Flit latency average = 19.7001
	minimum = 7
	maximum = 38
Slowest flit = 60888
Fragmentation average = 0
	minimum = 0
	maximum = 0
Injected packet rate average = 0.0501875
	minimum = 0.035 (at node 11)
	maximum = 0.071 (at node 14)
Accepted packet rate average = 0.0498125
	minimum = 0.043 (at node 7)
	maximum = 0.059 (at node 3)
Injected flit rate average = 0.0501875
	minimum = 0.035 (at node 11)
	maximum = 0.071 (at node 14)
Accepted flit rate average= 0.0498125
	minimum = 0.043 (at node 7)
	maximum = 0.059 (at node 3)
Injected packet length average = 1
Accepted packet length average = 1
Total in-flight flits = 17 (17 measured)
latency change    = 0.00693305
throughput change = 0.0263488
Class 0:
Packet latency average = 19.5384
	minimum = 7
	maximum = 38
Network latency average = 19.5384
	minimum = 7
	maximum = 38
Slowest packet = 60888
Flit latency average = 19.5527
	minimum = 7
	maximum = 38
Slowest flit = 60888
Fragmentation average = 0
	minimum = 0
	maximum = 0
Injected packet rate average = 0.048
	minimum = 0.039 (at node 4)
	maximum = 0.0575 (at node 14)
Accepted packet rate average = 0.048
	minimum = 0.0405 (at node 1)
	maximum = 0.0585 (at node 2)
Injected flit rate average = 0.048
	minimum = 0.039 (at node 4)
	maximum = 0.0575 (at node 14)
Accepted flit rate average= 0.048
	minimum = 0.0405 (at node 1)
	maximum = 0.0585 (at node 2)
Injected packet length average = 1
Accepted packet length average = 1
Total in-flight flits = 11 (11 measured)
latency change    = 0.00695757
throughput change = 0.0377604
Class 0:
Packet latency average = 19.7177
	minimum = 7
	maximum = 38
Network latency average = 19.7177
	minimum = 7
	maximum = 38
Slowest packet = 60888
Flit latency average = 19.7264
	minimum = 7
	maximum = 38
Slowest flit = 60888
Fragmentation average = 0
	minimum = 0
	maximum = 0
Injected packet rate average = 0.0483958
	minimum = 0.0433333 (at node 4)
	maximum = 0.057 (at node 14)
Accepted packet rate average = 0.0482708
	minimum = 0.0406667 (at node 10)
	maximum = 0.057 (at node 2)
Injected flit rate average = 0.0483958
	minimum = 0.0433333 (at node 4)
	maximum = 0.057 (at node 14)
Accepted flit rate average= 0.0482708
	minimum = 0.0406667 (at node 10)
	maximum = 0.057 (at node 2)
Injected packet length average = 1
Accepted packet length average = 1
Total in-flight flits = 17 (17 measured)
latency change    = 0.009095
throughput change = 0.0056107
Draining all recorded packets ...
Draining remaining packets ...
Time taken is 6048 cycles
Class 0:
Packet latency average = 19.6549
	minimum = 7
	maximum = 42
Network latency average = 19.6549
	minimum = 7
	maximum = 42
Slowest packet = 63329
Flit latency average = 19.6549
	minimum = 7
	maximum = 42
Slowest flit = 63329
Fragmentation average = 0
	minimum = 0
	maximum = 0
Injected packet rate average = 0.0506875
	minimum = 0.037 (at node 8)
	maximum = 0.062 (at node 5)
Accepted packet rate average = 0.0494375
	minimum = 0.04 (at node 4)
	maximum = 0.058 (at node 11)
Injected flit rate average = 0.0506875
	minimum = 0.037 (at node 8)
	maximum = 0.062 (at node 5)
Accepted flit rate average= 0.0494375
	minimum = 0.04 (at node 4)
	maximum = 0.058 (at node 11)
Injected packet length average = 1
Accepted packet length average = 1
Total in-flight flits = 20 (0 measured)
latency change    = 1
throughput change = 1
Class 0:
Packet latency average = 20.0732
	minimum = 7
	maximum = 42
Network latency average = 20.0732
	minimum = 7
	maximum = 42
Slowest packet = 63329
Flit latency average = 20.0732
	minimum = 7
	maximum = 42
Slowest flit = 63329
Fragmentation average = 0
	minimum = 0
	maximum = 0
Injected packet rate average = 0.0504062
	minimum = 0.0425 (at node 7)
	maximum = 0.056 (at node 15)
Accepted packet rate average = 0.0499687
	minimum = 0.0405 (at node 6)
	maximum = 0.0585 (at node 8)
Injected flit rate average = 0.0504062
	minimum = 0.0425 (at node 7)
	maximum = 0.056 (at node 15)
Accepted flit rate average= 0.0499687
	minimum = 0.0405 (at node 6)
	maximum = 0.0585 (at node 8)
Injected packet length average = 1
Accepted packet length average = 1
Total in-flight flits = 14 (0 measured)
latency change    = 0.0208389
throughput change = 0.0106316
Class 0:
Packet latency average = 19.3518
	minimum = 7
	maximum = 37
Network latency average = 19.3518
	minimum = 7
	maximum = 37
Slowest packet = 64407
Flit latency average = 19.3518
	minimum = 7
	maximum = 37
Slowest flit = 64407
Fragmentation average = 0
	minimum = 0
	maximum = 0
Injected packet rate average = 0.052
	minimum = 0.041 (at node 6)
	maximum = 0.06 (at node 15)
Accepted packet rate average = 0.051875
	minimum = 0.039 (at node 2)
	maximum = 0.069 (at node 4)
Injected flit rate average = 0.052
	minimum = 0.041 (at node 6)
	maximum = 0.06 (at node 15)
Accepted flit rate average= 0.051875
	minimum = 0.039 (at node 2)
	maximum = 0.069 (at node 4)
Injected packet length average = 1
Accepted packet length average = 1
Total in-flight flits = 16 (0 measured)
latency change    = 0.0372763
throughput change = 0.036747
Warmed up ...Time used is 3000 cycles
Class 0:
Packet latency average = 20.4255
	minimum = 7
	maximum = 37
Network latency average = 20.4255
	minimum = 7
	maximum = 37
Slowest packet = 65257
Flit latency average = 20.4644
	minimum = 7
	maximum = 37
Slowest flit = 65257
Fragmentation average = 0
	minimum = 0
	maximum = 0
Injected packet rate average = 0.0500625
	minimum = 0.035 (at node 5)
	maximum = 0.057 (at node 8)
Accepted packet rate average = 0.0500625
	minimum = 0.037 (at node 8)
	maximum = 0.064 (at node 15)
Injected flit rate average = 0.0500625
	minimum = 0.035 (at node 5)
	maximum = 0.057 (at node 8)
Accepted flit rate average= 0.0500625
	minimum = 0.037 (at node 8)
	maximum = 0.064 (at node 15)
Injected packet length average = 1
Accepted packet length average = 1
Total in-flight flits = 16 (16 measured)
latency change    = 0.0525653
throughput change = 0.0362047
Class 0:
Packet latency average = 19.9802
	minimum = 7
	maximum = 38
Network latency average = 19.9802
	minimum = 7
	maximum = 38
Slowest packet = 66293
Flit latency average = 20.0044
	minimum = 7
	maximum = 38
Slowest flit = 66293
Fragmentation average = 0
	minimum = 0
	maximum = 0
Injected packet rate average = 0.0495
	minimum = 0.044 (at node 6)
	maximum = 0.054 (at node 0)
Accepted packet rate average = 0.0495
	minimum = 0.0415 (at node 5)
	maximum = 0.0545 (at node 11)
Injected flit rate average = 0.0495
	minimum = 0.044 (at node 6)
	maximum = 0.054 (at node 0)
Accepted flit rate average= 0.0495
	minimum = 0.0415 (at node 5)
	maximum = 0.0545 (at node 11)
Injected packet length average = 1
Accepted packet length average = 1
Total in-flight flits = 16 (16 measured)
latency change    = 0.0222844
throughput change = 0.0113636
Class 0:
Packet latency average = 19.7129
	minimum = 7
	maximum = 39
Network latency average = 19.7129
	minimum = 7
	maximum = 39
Slowest packet = 66890
Flit latency average = 19.7305
	minimum = 7
	maximum = 39
Slowest flit = 66890
Fragmentation average = 0
	minimum = 0
	maximum = 0
Injected packet rate average = 0.0504375
	minimum = 0.0446667 (at node 6)
	maximum = 0.0553333 (at node 0)
Accepted packet rate average = 0.0503958
	minimum = 0.045 (at node 0)
	maximum = 0.06 (at node 9)
Injected flit rate average = 0.0504375
	minimum = 0.0446667 (at node 6)
	maximum = 0.0553333 (at node 0)
Accepted flit rate average= 0.0503958
	minimum = 0.045 (at node 0)
	maximum = 0.06 (at node 9)
Injected packet length average = 1
Accepted packet length average = 1
Total in-flight flits = 18 (18 measured)
latency change    = 0.0135633
throughput change = 0.0177759
Class 0:
Packet latency average = 19.7007
	minimum = 7
	maximum = 39
Network latency average = 19.7007
	minimum = 7
	maximum = 39
Slowest packet = 66890
Flit latency average = 19.7139
	minimum = 7
	maximum = 39
Slowest flit = 66890
Fragmentation average = 0
	minimum = 0
	maximum = 0
Injected packet rate average = 0.0504375
	minimum = 0.047 (at node 6)
	maximum = 0.05625 (at node 2)
Accepted packet rate average = 0.0504687
	minimum = 0.0445 (at node 12)
	maximum = 0.05375 (at node 3)
Injected flit rate average = 0.0504375
	minimum = 0.047 (at node 6)
	maximum = 0.05625 (at node 2)
Accepted flit rate average= 0.0504687
	minimum = 0.0445 (at node 12)
	maximum = 0.05375 (at node 3)
Injected packet length average = 1
Accepted packet length average = 1
Total in-flight flits = 14 (14 measured)
latency change    = 0.000617969
throughput change = 0.00144479
Draining all recorded packets ...
Draining remaining packets ...
Time taken is 7055 cycles
Class 0:
Packet latency average = 19.3532
	minimum = 7
	maximum = 37
Network latency average = 19.3532
	minimum = 7
	maximum = 37
Slowest packet = 68504
Flit latency average = 19.3532
	minimum = 7
	maximum = 37
Slowest flit = 68504
Fragmentation average = 0
	minimum = 0
	maximum = 0
Injected packet rate average = 0.0503125
	minimum = 0.027 (at node 7)
	maximum = 0.064 (at node 8)
Accepted packet rate average = 0.049375
	minimum = 0.041 (at node 1)
	maximum = 0.064 (at node 3)
Injected flit rate average = 0.0503125
	minimum = 0.027 (at node 7)
	maximum = 0.064 (at node 8)
Accepted flit rate average= 0.049375
	minimum = 0.041 (at node 1)
	maximum = 0.064 (at node 3)
Injected packet length average = 1
Accepted packet length average = 1
Total in-flight flits = 15 (0 measured)
latency change    = 1
throughput change = 1
Class 0:
Packet latency average = 19.3443
	minimum = 7
	maximum = 37
Network latency average = 19.3443
	minimum = 7
	maximum = 37
Slowest packet = 68504
Flit latency average = 19.3443
	minimum = 7
	maximum = 37
Slowest flit = 68504
Fragmentation average = 0
	minimum = 0
	maximum = 0
Injected packet rate average = 0.0500625
	minimum = 0.0365 (at node 7)
	maximum = 0.059 (at node 3)
Accepted packet rate average = 0.0494687
	minimum = 0.0415 (at node 13)
	maximum = 0.061 (at node 2)
Injected flit rate average = 0.0500625
	minimum = 0.0365 (at node 7)
	maximum = 0.059 (at node 3)
Accepted flit rate average= 0.0494687
	minimum = 0.0415 (at node 13)
	maximum = 0.061 (at node 2)
Injected packet length average = 1
Accepted packet length average = 1
Total in-flight flits = 19 (0 measured)
latency change    = 0.00045913
throughput change = 0.00189514
Class 0:
Packet latency average = 19.5862
	minimum = 7
	maximum = 37
Network latency average = 19.5849
	minimum = 7
	maximum = 37
Slowest packet = 70065
Flit latency average = 19.5849
	minimum = 7
	maximum = 37
Slowest flit = 70065
Fragmentation average = 0
	minimum = 0
	maximum = 0
Injected packet rate average = 0.049375
	minimum = 0.039 (at node 15)
	maximum = 0.058 (at node 4)
Accepted packet rate average = 0.0496875
	minimum = 0.041 (at node 6)
	maximum = 0.059 (at node 1)
Injected flit rate average = 0.049375
	minimum = 0.039 (at node 15)
	maximum = 0.058 (at node 4)
Accepted flit rate average= 0.0496875
	minimum = 0.041 (at node 6)
	maximum = 0.059 (at node 1)
Injected packet length average = 1
Accepted packet length average = 1
Total in-flight flits = 14 (0 measured)
latency change    = 0.0123496
throughput change = 0.00440252
Warmed up ...Time used is 3000 cycles
Class 0:
Packet latency average = 19.6294
	minimum = 7
	maximum = 38
Network latency average = 19.6294
	minimum = 7
	maximum = 38
Slowest packet = 71087
Flit latency average = 19.6832
	minimum = 7
	maximum = 38
Slowest flit = 71087
Fragmentation average = 0
	minimum = 0
	maximum = 0
Injected packet rate average = 0.0469375
	minimum = 0.035 (at node 15)
	maximum = 0.061 (at node 10)
Accepted packet rate average = 0.04675
	minimum = 0.032 (at node 15)
	maximum = 0.052 (at node 2)
Injected flit rate average = 0.0469375
	minimum = 0.035 (at node 15)
	maximum = 0.061 (at node 10)
Accepted flit rate average= 0.04675
	minimum = 0.032 (at node 15)
	maximum = 0.052 (at node 2)
Injected packet length average = 1
Accepted packet length average = 1
Total in-flight flits = 17 (17 measured)
latency change    = 0.00220405
throughput change = 0.0628342
Class 0:
Packet latency average = 19.2537
	minimum = 7
	maximum = 38
Network latency average = 19.2537
	minimum = 7
	maximum = 38
Slowest packet = 71087
Flit latency average = 19.2823
	minimum = 7
	maximum = 38
Slowest flit = 71087
Fragmentation average = 0
	minimum = 0
	maximum = 0
Injected packet rate average = 0.0495625
	minimum = 0.0445 (at node 4)
	maximum = 0.061 (at node 10)
Accepted packet rate average = 0.0495937
	minimum = 0.04 (at node 15)
	maximum = 0.055 (at node 13)
Injected flit rate average = 0.0495625
	minimum = 0.0445 (at node 4)
	maximum = 0.061 (at node 10)
Accepted flit rate average= 0.0495937
	minimum = 0.04 (at node 15)
	maximum = 0.055 (at node 13)
Injected packet length average = 1
Accepted packet length average = 1
Total in-flight flits = 13 (13 measured)
latency change    = 0.0195169
throughput change = 0.0573409
Class 0:
Packet latency average = 19.5415
	minimum = 7
	maximum = 38
Network latency average = 19.5415
	minimum = 7
	maximum = 38
Slowest packet = 71087
Flit latency average = 19.5587
	minimum = 7
	maximum = 38
Slowest flit = 71087
Fragmentation average = 0
	minimum = 0
	maximum = 0
Injected packet rate average = 0.0503542
	minimum = 0.0446667 (at node 4)
	maximum = 0.057 (at node 10)
Accepted packet rate average = 0.0501875
	minimum = 0.043 (at node 9)
	maximum = 0.0563333 (at node 13)
Injected flit rate average = 0.0503542
	minimum = 0.0446667 (at node 4)
	maximum = 0.057 (at node 10)
Accepted flit rate average= 0.0501875
	minimum = 0.043 (at node 9)
	maximum = 0.0563333 (at node 13)
Injected packet length average = 1
Accepted packet length average = 1
Total in-flight flits = 22 (22 measured)
latency change    = 0.0147322
throughput change = 0.0118306
Class 0:
Packet latency average = 19.5557
	minimum = 7
	maximum = 38
Network latency average = 19.5557
	minimum = 7
	maximum = 38
Slowest packet = 71087
Flit latency average = 19.5687
	minimum = 7
	maximum = 38
Slowest flit = 71087
Fragmentation average = 0
	minimum = 0
	maximum = 0
Injected packet rate average = 0.0495781
	minimum = 0.04325 (at node 14)
	maximum = 0.05425 (at node 10)
Accepted packet rate average = 0.0495937
	minimum = 0.041 (at node 9)
	maximum = 0.056 (at node 8)
Injected flit rate average = 0.0495781
	minimum = 0.04325 (at node 14)
[...]
	minimum = 0.039 (at node 6)
	maximum = 0.057 (at node 15)
Accepted packet rate average = 0.0491875
	minimum = 0.035 (at node 8)
	maximum = 0.071 (at node 4)
Injected flit rate average = 0.04875
	minimum = 0.039 (at node 6)
	maximum = 0.057 (at node 15)
Accepted flit rate average= 0.0491875
	minimum = 0.035 (at node 8)
	maximum = 0.071 (at node 4)
Injected packet length average = 1
Accepted packet length average = 1
Total in-flight flits = 17 (17 measured)
latency change    = 0.00905236
throughput change = 0.00635324
Class 0:
Packet latency average = 19.6479
	minimum = 7
	maximum = 38
Network latency average = 19.6473
	minimum = 7
	maximum = 38
Slowest packet = 499265
Flit latency average = 19.703
	minimum = 7
	maximum = 38
Slowest flit = 499265
Fragmentation average = 0
	minimum = 0
	maximum = 0
Injected packet rate average = 0.049625
	minimum = 0.043 (at node 3)
	maximum = 0.057 (at node 15)
Accepted packet rate average = 0.0496562
	minimum = 0.0435 (at node 3)
	maximum = 0.056 (at node 7)
Injected flit rate average = 0.049625
	minimum = 0.043 (at node 3)
	maximum = 0.057 (at node 15)
Accepted flit rate average= 0.0496562
	minimum = 0.0435 (at node 3)
	maximum = 0.056 (at node 7)
Injected packet length average = 1
Accepted packet length average = 1
Total in-flight flits = 23 (23 measured)
latency change    = 0.000175735
throughput change = 0.0094399
Class 0:
Packet latency average = 19.815
	minimum = 7
	maximum = 49
Network latency average = 19.8146
	minimum = 7
	maximum = 49
Slowest packet = 500943
Flit latency average = 19.85
	minimum = 7
	maximum = 49
Slowest flit = 500943
Fragmentation average = 0
	minimum = 0
	maximum = 0
Injected packet rate average = 0.0495625
	minimum = 0.0423333 (at node 6)
	maximum = 0.054 (at node 5)
Accepted packet rate average = 0.0497083
	minimum = 0.045 (at node 3)
	maximum = 0.0543333 (at node 7)
Injected flit rate average = 0.0495625
	minimum = 0.0423333 (at node 6)
	maximum = 0.054 (at node 5)
Accepted flit rate average= 0.0497083
	minimum = 0.045 (at node 3)
	maximum = 0.0543333 (at node 7)
Injected packet length average = 1
Accepted packet length average = 1
Total in-flight flits = 17 (17 measured)
latency change    = 0.00843119
throughput change = 0.00104778
Draining all recorded packets ...
Draining remaining packets ...
Time taken is 6057 cycles
Class 0:
Packet latency average = 19.476
	minimum = 7
	maximum = 38
Network latency average = 19.476
	minimum = 7
	maximum = 38
Slowest packet = 501802
Flit latency average = 19.476
	minimum = 7
	maximum = 38
Slowest flit = 501802
Fragmentation average = 0
	minimum = 0
	maximum = 0
Injected packet rate average = 0.050625
	minimum = 0.039 (at node 6)
	maximum = 0.058 (at node 2)
Accepted packet rate average = 0.0495
	minimum = 0.035 (at node 9)
	maximum = 0.061 (at node 4)
Injected flit rate average = 0.050625
	minimum = 0.039 (at node 6)
	maximum = 0.058 (at node 2)
Accepted flit rate average= 0.0495
	minimum = 0.035 (at node 9)
	maximum = 0.061 (at node 4)
Injected packet length average = 1
Accepted packet length average = 1
Total in-flight flits = 18 (0 measured)
latency change    = 1
throughput change = 1
Class 0:
Packet latency average = 19.3927
	minimum = 7
	maximum = 38
Network latency average = 19.3927
	minimum = 7
	maximum = 38
Slowest packet = 501802
Flit latency average = 19.3927
	minimum = 7
	maximum = 38
Slowest flit = 501802
Fragmentation average = 0
	minimum = 0
	maximum = 0
Injected packet rate average = 0.0505625
	minimum = 0.044 (at node 15)
	maximum = 0.0585 (at node 7)
Accepted packet rate average = 0.0499687
	minimum = 0.0415 (at node 9)
	maximum = 0.061 (at node 10)
Injected flit rate average = 0.0505625
	minimum = 0.044 (at node 15)
	maximum = 0.0585 (at node 7)
Accepted flit rate average= 0.0499687
	minimum = 0.0415 (at node 9)
	maximum = 0.061 (at node 10)
Injected packet length average = 1
Accepted packet length average = 1
Total in-flight flits = 19 (0 measured)
latency change    = 0.0042936
throughput change = 0.00938086
Class 0:
Packet latency average = 19.6789
	minimum = 7
	maximum = 39
Network latency average = 19.6789
	minimum = 7
	maximum = 39
Slowest packet = 503418
Flit latency average = 19.6789
	minimum = 7
	maximum = 39
Slowest flit = 503418
Fragmentation average = 0
	minimum = 0
	maximum = 0
Injected packet rate average = 0.053
	minimum = 0.042 (at node 3)
	maximum = 0.06 (at node 15)
Accepted packet rate average = 0.0529375
	minimum = 0.043 (at node 7)
	maximum = 0.069 (at node 5)
Injected flit rate average = 0.053
	minimum = 0.042 (at node 3)
	maximum = 0.06 (at node 15)
Accepted flit rate average= 0.0529375
	minimum = 0.043 (at node 7)
	maximum = 0.069 (at node 5)
Injected packet length average = 1
Accepted packet length average = 1
Total in-flight flits = 20 (0 measured)
latency change    = 0.0145395
throughput change = 0.0560803
Warmed up ...Time used is 3000 cycles
Class 0:
Packet latency average = 19.4586
	minimum = 7
	maximum = 37
Network latency average = 19.4586
	minimum = 7
	maximum = 37
Slowest packet = 503943
Flit latency average = 19.5333
	minimum = 7
	maximum = 37
Slowest flit = 503937
Fragmentation average = 0
	minimum = 0
	maximum = 0
Injected packet rate average = 0.052375
	minimum = 0.04 (at node 13)
	maximum = 0.073 (at node 15)
Accepted packet rate average = 0.052625
	minimum = 0.037 (at node 9)
	maximum = 0.067 (at node 11)
Injected flit rate average = 0.052375
	minimum = 0.04 (at node 13)
	maximum = 0.073 (at node 15)
Accepted flit rate average= 0.052625
	minimum = 0.037 (at node 9)
	maximum = 0.067 (at node 11)
Injected packet length average = 1
Accepted packet length average = 1
Total in-flight flits = 16 (16 measured)
latency change    = 0.0113178
throughput change = 0.00593824
Class 0:
Packet latency average = 19.5666
	minimum = 7
	maximum = 38
Network latency average = 19.5666
	minimum = 7
	maximum = 38
Slowest packet = 504784
Flit latency average = 19.6038
	minimum = 7
	maximum = 38
Slowest flit = 504784
Fragmentation average = 0
	minimum = 0
	maximum = 0
Injected packet rate average = 0.0507812
	minimum = 0.0415 (at node 13)
	maximum = 0.061 (at node 15)
Accepted packet rate average = 0.0510313
	minimum = 0.0405 (at node 1)
	maximum = 0.0625 (at node 8)
Injected flit rate average = 0.0507812
	minimum = 0.0415 (at node 13)
	maximum = 0.061 (at node 15)
Accepted flit rate average= 0.0510313
	minimum = 0.0405 (at node 1)
	maximum = 0.0625 (at node 8)
Injected packet length average = 1
Accepted packet length average = 1
Total in-flight flits = 12 (12 measured)
latency change    = 0.00552003
throughput change = 0.0312309
Class 0:
Packet latency average = 19.5344
	minimum = 7
	maximum = 38
Network latency average = 19.5344
	minimum = 7
	maximum = 38
Slowest packet = 504784
Flit latency average = 19.56
	minimum = 7
	maximum = 38
Slowest flit = 504784
Fragmentation average = 0
	minimum = 0
	maximum = 0
Injected packet rate average = 0.04975
	minimum = 0.043 (at node 13)
	maximum = 0.0546667 (at node 15)
Accepted packet rate average = 0.0500417
	minimum = 0.0433333 (at node 1)
	maximum = 0.0586667 (at node 11)
Injected flit rate average = 0.04975
	minimum = 0.043 (at node 13)
	maximum = 0.0546667 (at node 15)
Accepted flit rate average= 0.0500417
	minimum = 0.0433333 (at node 1)
	maximum = 0.0586667 (at node 11)
Injected packet length average = 1
Accepted packet length average = 1
Total in-flight flits = 6 (6 measured)
latency change    = 0.00164945
throughput change = 0.0197752
Draining all recorded packets ...
Draining remaining packets ...
Time taken is 6055 cycles
Class 0:
Packet latency average = 19.2035
	minimum = 7
	maximum = 39
Network latency average = 19.2035
	minimum = 7
	maximum = 39
Slowest packet = 507010
Flit latency average = 19.2035
	minimum = 7
	maximum = 39
Slowest flit = 507010
Fragmentation average = 0
	minimum = 0
	maximum = 0
Injected packet rate average = 0.0471875
	minimum = 0.037 (at node 3)
	maximum = 0.059 (at node 7)
Accepted packet rate average = 0.046375
	minimum = 0.037 (at node 3)
	maximum = 0.057 (at node 6)
Injected flit rate average = 0.0471875
	minimum = 0.037 (at node 3)
	maximum = 0.059 (at node 7)
Accepted flit rate average= 0.046375
	minimum = 0.037 (at node 3)
	maximum = 0.057 (at node 6)
Injected packet length average = 1
Accepted packet length average = 1
Total in-flight flits = 13 (0 measured)
latency change    = 1
throughput change = 1
Class 0:
Packet latency average = 19.2266
	minimum = 7
	maximum = 39
Network latency average = 19.2266
	minimum = 7
	maximum = 39
Slowest packet = 507010
Flit latency average = 19.2266
	minimum = 7
	maximum = 39
Slowest flit = 507010
Fragmentation average = 0
	minimum = 0
	maximum = 0
Injected packet rate average = 0.047375
	minimum = 0.039 (at node 3)
	maximum = 0.0585 (at node 7)
Accepted packet rate average = 0.0470312
	minimum = 0.038 (at node 12)
	maximum = 0.055 (at node 0)
Injected flit rate average = 0.047375
	minimum = 0.039 (at node 3)
	maximum = 0.0585 (at node 7)
Accepted flit rate average= 0.0470312
	minimum = 0.038 (at node 12)
	maximum = 0.055 (at node 0)
Injected packet length average = 1
Accepted packet length average = 1
Total in-flight flits = 11 (0 measured)
latency change    = 0.00120011
throughput change = 0.0139535
Class 0:
Packet latency average = 19.3944
	minimum = 7
	maximum = 38
Network latency average = 19.3944
	minimum = 7
	maximum = 38
Slowest packet = 508203
Flit latency average = 19.3944
	minimum = 7
	maximum = 38
Slowest flit = 508203
Fragmentation average = 0
	minimum = 0
	maximum = 0
Injected packet rate average = 0.0496875
	minimum = 0.039 (at node 3)
	maximum = 0.063 (at node 9)
Accepted packet rate average = 0.049125
	minimum = 0.038 (at node 3)
	maximum = 0.062 (at node 11)
Injected flit rate average = 0.0496875
	minimum = 0.039 (at node 3)
	maximum = 0.063 (at node 9)
Accepted flit rate average= 0.049125
	minimum = 0.038 (at node 3)
	maximum = 0.062 (at node 11)
Injected packet length average = 1
Accepted packet length average = 1
Total in-flight flits = 20 (0 measured)
latency change    = 0.00865322
throughput change = 0.0426209
Warmed up ...Time used is 3000 cycles
Class 0:
Packet latency average = 19.2614
	minimum = 7
	maximum = 37
Network latency average = 19.2614
	minimum = 7
	maximum = 37
Slowest packet = 508677
Flit latency average = 19.2978
	minimum = 7
	maximum = 37
Slowest flit = 508677
Fragmentation average = 0
	minimum = 0
	maximum = 0
Injected packet rate average = 0.049125
	minimum = 0.04 (at node 1)
	maximum = 0.063 (at node 6)
Accepted packet rate average = 0.0493125
	minimum = 0.041 (at node 1)
	maximum = 0.067 (at node 6)
Injected flit rate average = 0.049125
	minimum = 0.04 (at node 1)
	maximum = 0.063 (at node 6)
Accepted flit rate average= 0.0493125
	minimum = 0.041 (at node 1)
	maximum = 0.067 (at node 6)
Injected packet length average = 1
Accepted packet length average = 1
Total in-flight flits = 17 (17 measured)
latency change    = 0.00690624
throughput change = 0.00380228
Class 0:
Packet latency average = 19.2967
	minimum = 7
	maximum = 38
Network latency average = 19.2967
	minimum = 7
	maximum = 38
Slowest packet = 509445
Flit latency average = 19.3144
	minimum = 7
	maximum = 38
Slowest flit = 509445
Fragmentation average = 0
	minimum = 0
	maximum = 0
Injected packet rate average = 0.0496562
	minimum = 0.0435 (at node 1)
	maximum = 0.059 (at node 10)
Accepted packet rate average = 0.0495937
	minimum = 0.041 (at node 7)
	maximum = 0.0585 (at node 6)
Injected flit rate average = 0.0496562
	minimum = 0.0435 (at node 1)
	maximum = 0.059 (at node 10)
Accepted flit rate average= 0.0495937
	minimum = 0.041 (at node 7)
	maximum = 0.0585 (at node 6)
Injected packet length average = 1
Accepted packet length average = 1
Total in-flight flits = 22 (22 measured)
latency change    = 0.00183279
throughput change = 0.00567108
Class 0:
Packet latency average = 19.4985
	minimum = 7
	maximum = 43
Network latency average = 19.4985
	minimum = 7
	maximum = 43
Slowest packet = 510855
Flit latency average = 19.5085
	minimum = 7
	maximum = 43
Slowest flit = 510855
Fragmentation average = 0
	minimum = 0
	maximum = 0
Injected packet rate average = 0.0504583
	minimum = 0.043 (at node 7)
	maximum = 0.0566667 (at node 6)
Accepted packet rate average = 0.0505208
	minimum = 0.042 (at node 1)
	maximum = 0.0573333 (at node 6)
Injected flit rate average = 0.0504583
	minimum = 0.043 (at node 7)
	maximum = 0.0566667 (at node 6)
Accepted flit rate average= 0.0505208
	minimum = 0.042 (at node 1)
	maximum = 0.0573333 (at node 6)
Injected packet length average = 1
Accepted packet length average = 1
Total in-flight flits = 17 (17 measured)
latency change    = 0.0103495
throughput change = 0.0183505
Draining all recorded packets ...
Draining remaining packets ...
Time taken is 6063 cycles
Class 0:
Packet latency average = 19.5107
	minimum = 7
	maximum = 38
Network latency average = 19.5107
	minimum = 7
	maximum = 38
Slowest packet = 511500
Flit latency average = 19.5107
	minimum = 7
	maximum = 38
Slowest flit = 511500
Fragmentation average = 0
	minimum = 0
	maximum = 0
Injected packet rate average = 0.050875
	minimum = 0.04 (at node 15)
	maximum = 0.06 (at node 9)
Accepted packet rate average = 0.0496875
	minimum = 0.037 (at node 12)
	maximum = 0.057 (at node 0)
Injected flit rate average = 0.050875
	minimum = 0.04 (at node 15)
	maximum = 0.06 (at node 9)
Accepted flit rate average= 0.0496875
	minimum = 0.037 (at node 12)
	maximum = 0.057 (at node 0)
Injected packet length average = 1
Accepted packet length average = 1
Total in-flight flits = 19 (0 measured)
latency change    = 1
throughput change = 1
Class 0:
Packet latency average = 19.2217
	minimum = 7
	maximum = 38
Network latency average = 19.2217
	minimum = 7
	maximum = 38
Slowest packet = 511500
Flit latency average = 19.2217
	minimum = 7
	maximum = 38
Slowest flit = 511500
Fragmentation average = 0
	minimum = 0
	maximum = 0
Injected packet rate average = 0.0496875
	minimum = 0.041 (at node 11)
	maximum = 0.0595 (at node 10)
Accepted packet rate average = 0.0493437
	minimum = 0.04 (at node 12)
	maximum = 0.06 (at node 2)
Injected flit rate average = 0.0496875
	minimum = 0.041 (at node 11)
	maximum = 0.0595 (at node 10)
Accepted flit rate average= 0.0493437
	minimum = 0.04 (at node 12)
	maximum = 0.06 (at node 2)
Injected packet length average = 1
Accepted packet length average = 1
Total in-flight flits = 11 (0 measured)
latency change    = 0.0150368
throughput change = 0.00696643
Class 0:
Packet latency average = 19.3455
	minimum = 7
	maximum = 37
Network latency average = 19.3455
	minimum = 7
	maximum = 37
Slowest packet = 512698
Flit latency average = 19.3455
	minimum = 7
	maximum = 37
Slowest flit = 512698
Fragmentation average = 0
	minimum = 0
	maximum = 0
Injected packet rate average = 0.0531875
	minimum = 0.036 (at node 11)
	maximum = 0.072 (at node 13)
Accepted packet rate average = 0.0531875
	minimum = 0.04 (at node 3)
	maximum = 0.062 (at node 0)
Injected flit rate average = 0.0531875
	minimum = 0.036 (at node 11)
	maximum = 0.072 (at node 13)
Accepted flit rate average= 0.0531875
	minimum = 0.04 (at node 3)
	maximum = 0.062 (at node 0)
Injected packet length average = 1
Accepted packet length average = 1
Total in-flight flits = 11 (0 measured)
latency change    = 0.00640029
throughput change = 0.0722679
Warmed up ...Time used is 3000 cycles
Class 0:
Packet latency average = 19.4842
	minimum = 7
	maximum = 37
Network latency average = 19.4842
	minimum = 7
	maximum = 37
Slowest packet = 513581
Flit latency average = 19.5215
	minimum = 7
	maximum = 37
Slowest flit = 513581
Fragmentation average = 0
	minimum = 0
	maximum = 0
Injected packet rate average = 0.0480625
	minimum = 0.036 (at node 1)
	maximum = 0.058 (at node 0)
Accepted packet rate average = 0.0480625
	minimum = 0.033 (at node 15)
	maximum = 0.057 (at node 1)
Injected flit rate average = 0.0480625
	minimum = 0.036 (at node 1)
	maximum = 0.058 (at node 0)
Accepted flit rate average= 0.0480625
	minimum = 0.033 (at node 15)
	maximum = 0.057 (at node 1)
Injected packet length average = 1
Accepted packet length average = 1
Total in-flight flits = 11 (11 measured)
latency change    = 0.00711824
throughput change = 0.106632
Class 0:
Packet latency average = 19.5537
	minimum = 7
	maximum = 37
Network latency average = 19.5537
	minimum = 7
	maximum = 37
Slowest packet = 513581
Flit latency average = 19.5717
	minimum = 7
	maximum = 37
Slowest flit = 513581
Fragmentation average = 0
	minimum = 0
	maximum = 0
Injected packet rate average = 0.0482812
	minimum = 0.042 (at node 15)
	maximum = 0.057 (at node 11)
Accepted packet rate average = 0.048375
	minimum = 0.0385 (at node 15)
	maximum = 0.055 (at node 11)
Injected flit rate average = 0.0482812
	minimum = 0.042 (at node 15)
	maximum = 0.057 (at node 11)
Accepted flit rate average= 0.048375
	minimum = 0.0385 (at node 15)
	maximum = 0.055 (at node 11)
Injected packet length average = 1
Accepted packet length average = 1
Total in-flight flits = 8 (8 measured)
latency change    = 0.00355468
throughput change = 0.00645995
Class 0:
Packet latency average = 19.4357
	minimum = 7
	maximum = 39
Network latency average = 19.4357
	minimum = 7
	maximum = 39
Slowest packet = 515234
Flit latency average = 19.4481
	minimum = 7
	maximum = 39
Slowest flit = 515234
Fragmentation average = 0
	minimum = 0
	maximum = 0
Injected packet rate average = 0.049
	minimum = 0.0446667 (at node 1)
	maximum = 0.0556667 (at node 11)
Accepted packet rate average = 0.0488125
	minimum = 0.0403333 (at node 14)
	maximum = 0.054 (at node 13)
Injected flit rate average = 0.049
	minimum = 0.0446667 (at node 1)
	maximum = 0.0556667 (at node 11)
Accepted flit rate average= 0.0488125
	minimum = 0.0403333 (at node 14)
	maximum = 0.054 (at node 13)
Injected packet length average = 1
Accepted packet length average = 1
Total in-flight flits = 20 (20 measured)
latency change    = 0.00607123
throughput change = 0.00896287
Class 0:
Packet latency average = 19.5284
	minimum = 7
	maximum = 39
Network latency average = 19.5284
	minimum = 7
	maximum = 39
Slowest packet = 515234
Flit latency average = 19.5374
	minimum = 7
	maximum = 39
Slowest flit = 515234
Fragmentation average = 0
	minimum = 0
	maximum = 0
Injected packet rate average = 0.0491406
	minimum = 0.044 (at node 15)
	maximum = 0.055 (at node 4)
Accepted packet rate average = 0.0491094
	minimum = 0.044 (at node 15)
	maximum = 0.055 (at node 3)
Injected flit rate average = 0.0491406
	minimum = 0.044 (at node 15)
	maximum = 0.055 (at node 4)
Accepted flit rate average= 0.0491094
	minimum = 0.044 (at node 15)
	maximum = 0.055 (at node 3)
Injected packet length average = 1
Accepted packet length average = 1
Total in-flight flits = 13 (13 measured)
latency change    = 0.00474892
throughput change = 0.00604518
Draining all recorded packets ...
Draining remaining packets ...
Time taken is 7057 cycles
====== Overall Traffic Statistics ======
====== Traffic class 0 ======
Packet latency average = 19.5683 (100 samples)
	minimum = 7 (100 samples)
	maximum = 39.28 (100 samples)
Network latency average = 19.5683 (100 samples)
	minimum = 7 (100 samples)
	maximum = 39.28 (100 samples)
Flit latency average = 19.584 (100 samples)
	minimum = 7 (100 samples)
	maximum = 39.37 (100 samples)
Fragmentation average = 0 (100 samples)
	minimum = 0 (100 samples)
	maximum = 0 (100 samples)
Injected packet rate average = 0.0499996 (100 samples)
	minimum = 0.0435735 (100 samples)
	maximum = 0.0568157 (100 samples)
Accepted packet rate average = 0.050013 (100 samples)
	minimum = 0.043194 (100 samples)
	maximum = 0.0568573 (100 samples)
Injected flit rate average = 0.0499996 (100 samples)
	minimum = 0.0435735 (100 samples)
	maximum = 0.0568157 (100 samples)
Accepted flit rate average = 0.050013 (100 samples)
	minimum = 0.043194 (100 samples)
	maximum = 0.0568573 (100 samples)
Injected packet size average = 1 (100 samples)
Accepted packet size average = 1 (100 samples)
Hops average = 3.50041 (100 samples)
Total run time 7.15729
