BEGIN Configuration File: /tmp/tmpb8_t6plj.cfg
topology = mesh;
k = 4;
n = 2;
routing_function = gnn_port_score_route_4x4;
num_vcs = 4;
vc_buf_size = 4;
wait_for_tail_credit = 1;
vc_allocator = islip;
sw_allocator = islip;
alloc_iters = 1;
credit_delay = 2;
routing_delay = 1;
vc_alloc_delay = 1;
sw_alloc_delay = 1;
input_speedup = 2;
output_speedup = 1;
internal_speedup = 1.0;
traffic = uniform;
packet_size = 1;
sim_type = latency;
injection_rate = 0.3;
warmup_periods = 3;
sample_period = 1000;
sim_count = 100;
seed = 3;

END Configuration File: /tmp/tmpb8_t6plj.cfg
WARNING: Possible network deadlock.
WARNING: Possible network deadlock.
Class 0:
Packet latency average = 64.2418
	minimum = 7
	maximum = 213
Network latency average = 42.9837
	minimum = 7
	maximum = 213
Slowest packet = 16
Flit latency average = 42.9837
	minimum = 7
	maximum = 213
Slowest flit = 16
Fragmentation average = 0
	minimum = 0
	maximum = 0
Injected packet rate average = 0.0264375
	minimum = 0.009 (at node 1)
	maximum = 0.046 (at node 5)
Accepted packet rate average = 0.019125
	minimum = 0.011 (at node 12)
	maximum = 0.03 (at node 6)
Injected flit rate average = 0.0264375
	minimum = 0.009 (at node 1)
	maximum = 0.046 (at node 5)
Accepted flit rate average= 0.019125
	minimum = 0.011 (at node 12)
	maximum = 0.03 (at node 6)
Injected packet length average = 1
Accepted packet length average = 1
Total in-flight flits = 133 (0 measured)
latency change    = 1
throughput change = 1
WARNING: Possible network deadlock.
WARNING: Possible network deadlock.
WARNING: Possible network deadlock.
WARNING: Possible network deadlock.
Class 0:
Packet latency average = 64.2418
	minimum = 7
	maximum = 213
Network latency average = 42.9837
	minimum = 7
	maximum = 213
Slowest packet = 16
Flit latency average = 42.9837
	minimum = 7
	maximum = 213
Slowest flit = 16
Fragmentation average = 0
	minimum = 0
	maximum = 0
Injected packet rate average = 0.0132187
	minimum = 0.0045 (at node 1)
	maximum = 0.023 (at node 5)
Accepted packet rate average = 0.0095625
	minimum = 0.0055 (at node 12)
	maximum = 0.015 (at node 6)
Injected flit rate average = 0.0132187
	minimum = 0.0045 (at node 1)
	maximum = 0.023 (at node 5)
Accepted flit rate average= 0.0095625
	minimum = 0.0055 (at node 12)
	maximum = 0.015 (at node 6)
Injected packet length average = 1
Accepted packet length average = 1
Total in-flight flits = 133 (0 measured)
latency change    = 0
throughput change = 1
Average latency for class 0 exceeded 500 cycles. Aborting simulation.
Too many sample periods needed to converge
Simulation unstable, ending ...
Total run time 0.158163
