BEGIN Configuration File: /tmp/bs_1137237_425691.cfg
topology = mesh;
k = 4;
n = 2;
routing_function = gnn_ppo_route_4x4;
num_vcs = 4;
vc_buf_size = 4;
wait_for_tail_credit = 1;
vc_allocator = islip;
sw_allocator = islip;
alloc_iters = 1;
credit_delay = 2;
routing_delay = 1;
vc_alloc_delay = 1;
sw_alloc_delay = 1;
input_speedup = 2;
output_speedup = 1;
internal_speedup = 1.0;
traffic = uniform;
packet_size = 1;
sim_type = latency;
injection_rate = 0.1;
warmup_periods = 3;
sample_period = 1000;
sim_count = 100;
seed = 4;

END Configuration File: /tmp/bs_1137237_425691.cfg
Class 0:
Packet latency average = 19.8136
	minimum = 7
	maximum = 43
Network latency average = 19.8129
	minimum = 7
	maximum = 43
Slowest packet = 877
Flit latency average = 19.8129
	minimum = 7
	maximum = 43
Slowest flit = 877
Fragmentation average = 0
	minimum = 0
	maximum = 0
Injected packet rate average = 0.100312
	minimum = 0.082 (at node 6)
	maximum = 0.111 (at node 2)
Accepted packet rate average = 0.0985625
	minimum = 0.085 (at node 2)
	maximum = 0.111 (at node 12)
Injected flit rate average = 0.100312
	minimum = 0.082 (at node 6)
	maximum = 0.111 (at node 2)
Accepted flit rate average= 0.0985625
	minimum = 0.085 (at node 2)
	maximum = 0.111 (at node 12)
Injected packet length average = 1
Accepted packet length average = 1
Total in-flight flits = 28 (0 measured)
latency change    = 1
throughput change = 1
Class 0:
Packet latency average = 19.9067
	minimum = 7
	maximum = 43
Network latency average = 19.9055
	minimum = 7
	maximum = 43
Slowest packet = 877
Flit latency average = 19.9055
	minimum = 7
	maximum = 43
Slowest flit = 877
Fragmentation average = 0
	minimum = 0
	maximum = 0
Injected packet rate average = 0.101781
	minimum = 0.0925 (at node 6)
	maximum = 0.113 (at node 2)
Accepted packet rate average = 0.100844
	minimum = 0.091 (at node 9)
	maximum = 0.111 (at node 0)
Injected flit rate average = 0.101781
	minimum = 0.0925 (at node 6)
	maximum = 0.113 (at node 2)
Accepted flit rate average= 0.100844
	minimum = 0.091 (at node 9)
	maximum = 0.111 (at node 0)
Injected packet length average = 1
Accepted packet length average = 1
Total in-flight flits = 30 (0 measured)
latency change    = 0.00467955
throughput change = 0.0226216
Class 0:
Packet latency average = 19.7091
	minimum = 7
	maximum = 48
Network latency average = 19.7085
	minimum = 7
	maximum = 48
Slowest packet = 3211
Flit latency average = 19.7085
	minimum = 7
	maximum = 48
Slowest flit = 3211
Fragmentation average = 0
	minimum = 0
	maximum = 0
Injected packet rate average = 0.10075
	minimum = 0.08 (at node 6)
	maximum = 0.118 (at node 10)
Accepted packet rate average = 0.100562
	minimum = 0.083 (at node 5)
	maximum = 0.119 (at node 13)
Injected flit rate average = 0.10075
	minimum = 0.08 (at node 6)
	maximum = 0.118 (at node 10)
Accepted flit rate average= 0.100562
	minimum = 0.083 (at node 5)
	maximum = 0.119 (at node 13)
Injected packet length average = 1
Accepted packet length average = 1
Total in-flight flits = 33 (0 measured)
latency change    = 0.0100252
throughput change = 0.00279677
Warmed up ...Time used is 3000 cycles
Class 0:
Packet latency average = 19.6357
	minimum = 7
	maximum = 44
Network latency average = 19.6357
	minimum = 7
	maximum = 44
Slowest packet = 5369
Flit latency average = 19.718
	minimum = 7
	maximum = 44
Slowest flit = 5369
Fragmentation average = 0
	minimum = 0
	maximum = 0
Injected packet rate average = 0.0991875
	minimum = 0.085 (at node 12)
	maximum = 0.122 (at node 9)
Accepted packet rate average = 0.0995
	minimum = 0.086 (at node 1)
	maximum = 0.115 (at node 13)
Injected flit rate average = 0.0991875
	minimum = 0.085 (at node 12)
	maximum = 0.122 (at node 9)
Accepted flit rate average= 0.0995
	minimum = 0.086 (at node 1)
	maximum = 0.115 (at node 13)
Injected packet length average = 1
Accepted packet length average = 1
Total in-flight flits = 28 (28 measured)
latency change    = 0.00374177
throughput change = 0.0106784
Class 0:
Packet latency average = 19.6631
	minimum = 7
	maximum = 44
Network latency average = 19.6628
	minimum = 7
	maximum = 44
Slowest packet = 5369
Flit latency average = 19.7034
	minimum = 7
	maximum = 44
Slowest flit = 5369
Fragmentation average = 0
	minimum = 0
	maximum = 0
Injected packet rate average = 0.1
	minimum = 0.088 (at node 4)
	maximum = 0.113 (at node 6)
Accepted packet rate average = 0.100187
	minimum = 0.0885 (at node 11)
	maximum = 0.1095 (at node 0)
Injected flit rate average = 0.1
	minimum = 0.088 (at node 4)
	maximum = 0.113 (at node 6)
Accepted flit rate average= 0.100187
	minimum = 0.0885 (at node 11)
	maximum = 0.1095 (at node 0)
Injected packet length average = 1
Accepted packet length average = 1
Total in-flight flits = 27 (27 measured)
latency change    = 0.00139505
throughput change = 0.00686213
Class 0:
Packet latency average = 19.7576
	minimum = 7
	maximum = 64
Network latency average = 19.7568
	minimum = 7
	maximum = 64
Slowest packet = 8940
Flit latency average = 19.7832
	minimum = 7
	maximum = 64
Slowest flit = 8940
Fragmentation average = 0
	minimum = 0
	maximum = 0
Injected packet rate average = 0.0999375
	minimum = 0.0886667 (at node 2)
	maximum = 0.110667 (at node 6)
Accepted packet rate average = 0.100146
	minimum = 0.0916667 (at node 8)
	maximum = 0.108667 (at node 7)
Injected flit rate average = 0.0999375
	minimum = 0.0886667 (at node 2)
	maximum = 0.110667 (at node 6)
Accepted flit rate average= 0.100146
	minimum = 0.0916667 (at node 8)
	maximum = 0.108667 (at node 7)
Injected packet length average = 1
Accepted packet length average = 1
Total in-flight flits = 23 (23 measured)
latency change    = 0.00478553
throughput change = 0.00041606
Draining all recorded packets ...
Draining remaining packets ...
Time taken is 6066 cycles
Class 0:
Packet latency average = 19.872
	minimum = 7
	maximum = 47
Network latency average = 19.8707
	minimum = 7
	maximum = 47
Slowest packet = 10516
Flit latency average = 19.8707
	minimum = 7
	maximum = 47
Slowest flit = 10516
Fragmentation average = 0
	minimum = 0
	maximum = 0
Injected packet rate average = 0.0984375
	minimum = 0.085 (at node 7)
	maximum = 0.117 (at node 12)
Accepted packet rate average = 0.0961875
	minimum = 0.089 (at node 3)
	maximum = 0.107 (at node 4)
Injected flit rate average = 0.0984375
	minimum = 0.085 (at node 7)
	maximum = 0.117 (at node 12)
Accepted flit rate average= 0.0961875
	minimum = 0.089 (at node 3)
	maximum = 0.107 (at node 4)
Injected packet length average = 1
Accepted packet length average = 1
Total in-flight flits = 36 (0 measured)
latency change    = 1
throughput change = 1
Class 0:
Packet latency average = 19.8583
	minimum = 7
	maximum = 47
Network latency average = 19.8571
	minimum = 7
	maximum = 47
Slowest packet = 10516
Flit latency average = 19.8571
	minimum = 7
	maximum = 47
Slowest flit = 10516
Fragmentation average = 0
	minimum = 0
	maximum = 0
Injected packet rate average = 0.1005
	minimum = 0.089 (at node 8)
	maximum = 0.121 (at node 12)
Accepted packet rate average = 0.0994687
	minimum = 0.091 (at node 15)
	maximum = 0.1105 (at node 8)
Injected flit rate average = 0.1005
	minimum = 0.089 (at node 8)
	maximum = 0.121 (at node 12)
Accepted flit rate average= 0.0994687
	minimum = 0.091 (at node 15)
	maximum = 0.1105 (at node 8)
Injected packet length average = 1
Accepted packet length average = 1
Total in-flight flits = 33 (0 measured)
latency change    = 0.000689134
throughput change = 0.0329877
Class 0:
Packet latency average = 19.9011
	minimum = 7
	maximum = 43
Network latency average = 19.9011
	minimum = 7
	maximum = 43
Slowest packet = 12992
Flit latency average = 19.9011
	minimum = 7
	maximum = 43
Slowest flit = 12992
Fragmentation average = 0
	minimum = 0
	maximum = 0
Injected packet rate average = 0.100687
	minimum = 0.089 (at node 1)
	maximum = 0.112 (at node 13)
Accepted packet rate average = 0.100437
	minimum = 0.085 (at node 13)
	maximum = 0.118 (at node 9)
Injected flit rate average = 0.100687
	minimum = 0.089 (at node 1)
	maximum = 0.112 (at node 13)
Accepted flit rate average= 0.100437
	minimum = 0.085 (at node 13)
	maximum = 0.118 (at node 9)
Injected packet length average = 1
Accepted packet length average = 1
Total in-flight flits = 37 (0 measured)
latency change    = 0.00214803
throughput change = 0.0096453
Warmed up ...Time used is 3000 cycles
Class 0:
Packet latency average = 20.0782
	minimum = 7
	maximum = 44
Network latency average = 20.0782
	minimum = 7
	maximum = 44
Slowest packet = 14669
Flit latency average = 20.119
	minimum = 7
	maximum = 44
Slowest flit = 14669
Fragmentation average = 0
	minimum = 0
	maximum = 0
Injected packet rate average = 0.0975
	minimum = 0.085 (at node 0)
	maximum = 0.121 (at node 12)
Accepted packet rate average = 0.0981875
	minimum = 0.081 (at node 1)
	maximum = 0.111 (at node 0)
Injected flit rate average = 0.0975
	minimum = 0.085 (at node 0)
	maximum = 0.121 (at node 12)
Accepted flit rate average= 0.0981875
	minimum = 0.081 (at node 1)
	maximum = 0.111 (at node 0)
Injected packet length average = 1
Accepted packet length average = 1
Total in-flight flits = 26 (26 measured)
latency change    = 0.00882394
throughput change = 0.0229153
Class 0:
Packet latency average = 19.844
	minimum = 7
	maximum = 44
Network latency average = 19.844
	minimum = 7
	maximum = 44
Slowest packet = 14669
Flit latency average = 19.8668
	minimum = 7
	maximum = 44
Slowest flit = 14669
Fragmentation average = 0
	minimum = 0
	maximum = 0
Injected packet rate average = 0.0995
	minimum = 0.0885 (at node 0)
	maximum = 0.112 (at node 10)
Accepted packet rate average = 0.0997187
	minimum = 0.092 (at node 7)
	maximum = 0.1155 (at node 0)
Injected flit rate average = 0.0995
	minimum = 0.0885 (at node 0)
	maximum = 0.112 (at node 10)
Accepted flit rate average= 0.0997187
	minimum = 0.092 (at node 7)
	maximum = 0.1155 (at node 0)
Injected packet length average = 1
Accepted packet length average = 1
Total in-flight flits = 30 (30 measured)
latency change    = 0.011803
throughput change = 0.0153557
Class 0:
Packet latency average = 19.8844
	minimum = 7
	maximum = 46
Network latency average = 19.8844
	minimum = 7
	maximum = 46
Slowest packet = 18330
Flit latency average = 19.8993
	minimum = 7
	maximum = 46
Slowest flit = 18330
Fragmentation average = 0
	minimum = 0
	maximum = 0
Injected packet rate average = 0.100271
	minimum = 0.09 (at node 5)
	maximum = 0.11 (at node 15)
Accepted packet rate average = 0.100292
	minimum = 0.0943333 (at node 13)
	maximum = 0.115333 (at node 0)
Injected flit rate average = 0.100271
	minimum = 0.09 (at node 5)
	maximum = 0.11 (at node 15)
Accepted flit rate average= 0.100292
	minimum = 0.0943333 (at node 13)
	maximum = 0.115333 (at node 0)
Injected packet length average = 1
Accepted packet length average = 1
Total in-flight flits = 36 (36 measured)
latency change    = 0.00203368
throughput change = 0.00571251
Draining all recorded packets ...
Draining remaining packets ...
Time taken is 6064 cycles
Class 0:
Packet latency average = 19.9772
	minimum = 7
	maximum = 44
Network latency average = 19.9766
	minimum = 7
	maximum = 44
Slowest packet = 20682
Flit latency average = 19.9766
	minimum = 7
	maximum = 44
Slowest flit = 20682
Fragmentation average = 0
	minimum = 0
	maximum = 0
Injected packet rate average = 0.0980625
	minimum = 0.079 (at node 13)
	maximum = 0.122 (at node 15)
Accepted packet rate average = 0.096
	minimum = 0.081 (at node 7)
	maximum = 0.106 (at node 14)
Injected flit rate average = 0.0980625
	minimum = 0.079 (at node 13)
	maximum = 0.122 (at node 15)
Accepted flit rate average= 0.096
	minimum = 0.081 (at node 7)
	maximum = 0.106 (at node 14)
Injected packet length average = 1
Accepted packet length average = 1
Total in-flight flits = 33 (0 measured)
latency change    = 1
throughput change = 1
Class 0:
Packet latency average = 19.7798
	minimum = 7
	maximum = 47
Network latency average = 19.7783
	minimum = 7
	maximum = 47
Slowest packet = 21346
Flit latency average = 19.7783
	minimum = 7
	maximum = 47
Slowest flit = 21346
Fragmentation average = 0
	minimum = 0
	maximum = 0
Injected packet rate average = 0.100031
	minimum = 0.087 (at node 3)
	maximum = 0.1155 (at node 6)
Accepted packet rate average = 0.0992187
	minimum = 0.088 (at node 7)
	maximum = 0.1085 (at node 8)
Injected flit rate average = 0.100031
	minimum = 0.087 (at node 3)
	maximum = 0.1155 (at node 6)
Accepted flit rate average= 0.0992187
	minimum = 0.088 (at node 7)
	maximum = 0.1085 (at node 8)
Injected packet length average = 1
Accepted packet length average = 1
Total in-flight flits = 26 (0 measured)
latency change    = 0.00997839
throughput change = 0.0324409
Class 0:
Packet latency average = 19.7076
	minimum = 7
	maximum = 42
Network latency average = 19.7076
	minimum = 7
	maximum = 42
Slowest packet = 23059
Flit latency average = 19.7076
	minimum = 7
	maximum = 42
Slowest flit = 23059
Fragmentation average = 0
	minimum = 0
	maximum = 0
Injected packet rate average = 0.09725
	minimum = 0.077 (at node 5)
	maximum = 0.117 (at node 2)
Accepted packet rate average = 0.0968125
	minimum = 0.078 (at node 15)
	maximum = 0.117 (at node 14)
Injected flit rate average = 0.09725
	minimum = 0.077 (at node 5)
	maximum = 0.117 (at node 2)
Accepted flit rate average= 0.0968125
	minimum = 0.078 (at node 15)
	maximum = 0.117 (at node 14)
Injected packet length average = 1
Accepted packet length average = 1
Total in-flight flits = 33 (0 measured)
latency change    = 0.0036681
throughput change = 0.0248547
Warmed up ...Time used is 3000 cycles
Class 0:
Packet latency average = 19.8328
	minimum = 7
	maximum = 47
Network latency average = 19.8295
	minimum = 7
	maximum = 47
Slowest packet = 24871
Flit latency average = 19.8624
	minimum = 7
	maximum = 47
Slowest flit = 24871
Fragmentation average = 0
	minimum = 0
	maximum = 0
Injected packet rate average = 0.09825
	minimum = 0.088 (at node 7)
	maximum = 0.11 (at node 15)
Accepted packet rate average = 0.098125
	minimum = 0.076 (at node 5)
	maximum = 0.11 (at node 10)
Injected flit rate average = 0.09825
	minimum = 0.088 (at node 7)
	maximum = 0.11 (at node 15)
Accepted flit rate average= 0.098125
	minimum = 0.076 (at node 5)
	maximum = 0.11 (at node 10)
Injected packet length average = 1
Accepted packet length average = 1
Total in-flight flits = 35 (35 measured)
latency change    = 0.00631469
throughput change = 0.0133758
Class 0:
Packet latency average = 19.8167
	minimum = 7
	maximum = 47
Network latency average = 19.8148
	minimum = 7
	maximum = 47
Slowest packet = 24871
Flit latency average = 19.8312
	minimum = 7
	maximum = 47
Slowest flit = 24871
Fragmentation average = 0
	minimum = 0
	maximum = 0
Injected packet rate average = 0.099375
	minimum = 0.087 (at node 1)
	maximum = 0.115 (at node 15)
Accepted packet rate average = 0.0992187
	minimum = 0.0855 (at node 5)
	maximum = 0.12 (at node 6)
Injected flit rate average = 0.099375
	minimum = 0.087 (at node 1)
	maximum = 0.115 (at node 15)
Accepted flit rate average= 0.0992187
	minimum = 0.0855 (at node 5)
	maximum = 0.12 (at node 6)
Injected packet length average = 1
Accepted packet length average = 1
Total in-flight flits = 38 (38 measured)
latency change    = 0.000813147
throughput change = 0.0110236
Class 0:
Packet latency average = 19.9663
	minimum = 7
	maximum = 47
Network latency average = 19.965
	minimum = 7
	maximum = 47
Slowest packet = 24871
Flit latency average = 19.975
	minimum = 7
	maximum = 47
Slowest flit = 24871
Fragmentation average = 0
	minimum = 0
	maximum = 0
Injected packet rate average = 0.0990833
	minimum = 0.0886667 (at node 1)
	maximum = 0.111333 (at node 15)
Accepted packet rate average = 0.0990417
	minimum = 0.0863333 (at node 5)
	maximum = 0.116333 (at node 6)
Injected flit rate average = 0.0990833
	minimum = 0.0886667 (at node 1)
	maximum = 0.111333 (at node 15)
Accepted flit rate average= 0.0990417
	minimum = 0.0863333 (at node 5)
	maximum = 0.116333 (at node 6)
Injected packet length average = 1
Accepted packet length average = 1
Total in-flight flits = 35 (35 measured)
latency change    = 0.00749479
throughput change = 0.00178797
Draining all recorded packets ...
Draining remaining packets ...
Time taken is 6065 cycles
Class 0:
Packet latency average = 19.9135
	minimum = 7
	maximum = 43
Network latency average = 19.9135
	minimum = 7
	maximum = 43
Slowest packet = 29421
Flit latency average = 19.9135
	minimum = 7
	maximum = 43
Slowest flit = 29421
Fragmentation average = 0
	minimum = 0
	maximum = 0
Injected packet rate average = 0.0999375
	minimum = 0.087 (at node 10)
	maximum = 0.117 (at node 15)
Accepted packet rate average = 0.0983125
	minimum = 0.086 (at node 14)
	maximum = 0.112 (at node 6)
Injected flit rate average = 0.0999375
	minimum = 0.087 (at node 10)
	maximum = 0.117 (at node 15)
Accepted flit rate average= 0.0983125
	minimum = 0.086 (at node 14)
	maximum = 0.112 (at node 6)
Injected packet length average = 1
Accepted packet length average = 1
Total in-flight flits = 26 (0 measured)
latency change    = 1
throughput change = 1
Class 0:
Packet latency average = 19.7385
	minimum = 7
	maximum = 44
Network latency average = 19.7382
	minimum = 7
	maximum = 44
Slowest packet = 31415
Flit latency average = 19.7382
	minimum = 7
	maximum = 44
Slowest flit = 31415
Fragmentation average = 0
	minimum = 0
	maximum = 0
Injected packet rate average = 0.100094
	minimum = 0.086 (at node 3)
	maximum = 0.115 (at node 9)
Accepted packet rate average = 0.0989375
	minimum = 0.0865 (at node 14)
	maximum = 0.108 (at node 6)
Injected flit rate average = 0.100094
	minimum = 0.086 (at node 3)
	maximum = 0.115 (at node 9)
Accepted flit rate average= 0.0989375
	minimum = 0.0865 (at node 14)
	maximum = 0.108 (at node 6)
Injected packet length average = 1
Accepted packet length average = 1
Total in-flight flits = 37 (0 measured)
latency change    = 0.00886947
throughput change = 0.00631712
Class 0:
Packet latency average = 19.5642
	minimum = 7
	maximum = 40
Network latency average = 19.5636
	minimum = 7
	maximum = 40
Slowest packet = 32153
Flit latency average = 19.5636
	minimum = 7
	maximum = 40
Slowest flit = 32153
Fragmentation average = 0
	minimum = 0
	maximum = 0
Injected packet rate average = 0.0973125
	minimum = 0.081 (at node 2)
	maximum = 0.116 (at node 4)
Accepted packet rate average = 0.0978125
	minimum = 0.085 (at node 15)
	maximum = 0.111 (at node 11)
Injected flit rate average = 0.0973125
	minimum = 0.081 (at node 2)
	maximum = 0.116 (at node 4)
Accepted flit rate average= 0.0978125
	minimum = 0.085 (at node 15)
	maximum = 0.111 (at node 11)
Injected packet length average = 1
Accepted packet length average = 1
Total in-flight flits = 29 (0 measured)
latency change    = 0.00890677
throughput change = 0.0115016
Warmed up ...Time used is 3000 cycles
Class 0:
Packet latency average = 19.7925
	minimum = 7
	maximum = 55
Network latency average = 19.7925
	minimum = 7
	maximum = 55
Slowest packet = 34018
Flit latency average = 19.8139
	minimum = 7
	maximum = 55
Slowest flit = 34018
Fragmentation average = 0
	minimum = 0
	maximum = 0
Injected packet rate average = 0.105188
	minimum = 0.091 (at node 8)
	maximum = 0.119 (at node 12)
Accepted packet rate average = 0.105125
	minimum = 0.087 (at node 6)
	maximum = 0.133 (at node 8)
Injected flit rate average = 0.105188
	minimum = 0.091 (at node 8)
	maximum = 0.119 (at node 12)
Accepted flit rate average= 0.105125
	minimum = 0.087 (at node 6)
	maximum = 0.133 (at node 8)
Injected packet length average = 1
Accepted packet length average = 1
Total in-flight flits = 30 (30 measured)
latency change    = 0.0115337
throughput change = 0.06956
Class 0:
Packet latency average = 19.7551
	minimum = 7
	maximum = 55
Network latency average = 19.7548
	minimum = 7
	maximum = 55
Slowest packet = 34018
Flit latency average = 19.7663
	minimum = 7
	maximum = 55
Slowest flit = 34018
Fragmentation average = 0
	minimum = 0
	maximum = 0
Injected packet rate average = 0.101281
	minimum = 0.0955 (at node 6)
	maximum = 0.109 (at node 13)
Accepted packet rate average = 0.101219
	minimum = 0.0895 (at node 6)
	maximum = 0.118 (at node 5)
Injected flit rate average = 0.101281
	minimum = 0.0955 (at node 6)
	maximum = 0.109 (at node 13)
Accepted flit rate average= 0.101219
	minimum = 0.0895 (at node 6)
	maximum = 0.118 (at node 5)
Injected packet length average = 1
Accepted packet length average = 1
Total in-flight flits = 31 (31 measured)
latency change    = 0.00189107
throughput change = 0.0385922
Class 0:
Packet latency average = 19.8644
	minimum = 7
	maximum = 55
Network latency average = 19.8642
	minimum = 7
	maximum = 55
Slowest packet = 34018
Flit latency average = 19.8713
	minimum = 7
	maximum = 55
Slowest flit = 34018
Fragmentation average = 0
	minimum = 0
	maximum = 0
Injected packet rate average = 0.100333
	minimum = 0.0906667 (at node 7)
	maximum = 0.106 (at node 11)
Accepted packet rate average = 0.100187
	minimum = 0.0906667 (at node 6)
	maximum = 0.111 (at node 8)
Injected flit rate average = 0.100333
	minimum = 0.0906667 (at node 7)
	maximum = 0.106 (at node 11)
Accepted flit rate average= 0.100187
	minimum = 0.0906667 (at node 6)
	maximum = 0.111 (at node 8)
Injected packet length average = 1
Accepted packet length average = 1
Total in-flight flits = 36 (36 measured)
latency change    = 0.00550204
throughput change = 0.0102932
Class 0:
Packet latency average = 19.9098
	minimum = 7
	maximum = 55
Network latency average = 19.9097
	minimum = 7
	maximum = 55
Slowest packet = 34018
Flit latency average = 19.9147
	minimum = 7
	maximum = 55
Slowest flit = 34018
Fragmentation average = 0
	minimum = 0
	maximum = 0
Injected packet rate average = 0.100984
	minimum = 0.094 (at node 7)
	maximum = 0.10825 (at node 8)
Accepted packet rate average = 0.100953
	minimum = 0.09175 (at node 6)
	maximum = 0.11175 (at node 8)
Injected flit rate average = 0.100984
	minimum = 0.094 (at node 7)
	maximum = 0.10825 (at node 8)
Accepted flit rate average= 0.100953
	minimum = 0.09175 (at node 6)
	maximum = 0.11175 (at node 8)
Injected packet length average = 1
Accepted packet length average = 1
Total in-flight flits = 31 (31 measured)
latency change    = 0.00227982
throughput change = 0.00758397
Draining all recorded packets ...
Draining remaining packets ...
Time taken is 7056 cycles
Class 0:
Packet latency average = 19.8124
	minimum = 7
	maximum = 45
Network latency average = 19.8118
	minimum = 7
	maximum = 45
Slowest packet = 41102
Flit latency average = 19.8118
	minimum = 7
	maximum = 45
Slowest flit = 41102
Fragmentation average = 0
	minimum = 0
	maximum = 0
Injected packet rate average = 0.101813
	minimum = 0.081 (at node 11)
	maximum = 0.134 (at node 4)
Accepted packet rate average = 0.0999375
	minimum = 0.072 (at node 6)
	maximum = 0.125 (at node 10)
Injected flit rate average = 0.101813
	minimum = 0.081 (at node 11)
	maximum = 0.134 (at node 4)
Accepted flit rate average= 0.0999375
	minimum = 0.072 (at node 6)
	maximum = 0.125 (at node 10)
Injected packet length average = 1
Accepted packet length average = 1
Total in-flight flits = 30 (0 measured)
latency change    = 1
throughput change = 1
Class 0:
Packet latency average = 19.8465
	minimum = 7
	maximum = 57
Network latency average = 19.8462
	minimum = 7
	maximum = 57
Slowest packet = 43029
Flit latency average = 19.8462
	minimum = 7
	maximum = 57
Slowest flit = 43029
Fragmentation average = 0
	minimum = 0
	maximum = 0
Injected packet rate average = 0.100312
	minimum = 0.0865 (at node 11)
	maximum = 0.122 (at node 4)
Accepted packet rate average = 0.099375
	minimum = 0.082 (at node 0)
	maximum = 0.1115 (at node 10)
Injected flit rate average = 0.100312
	minimum = 0.0865 (at node 11)
	maximum = 0.122 (at node 4)
Accepted flit rate average= 0.099375
	minimum = 0.082 (at node 0)
	maximum = 0.1115 (at node 10)
Injected packet length average = 1
Accepted packet length average = 1
Total in-flight flits = 30 (0 measured)
latency change    = 0.00172111
throughput change = 0.00566038
Class 0:
Packet latency average = 19.6233
	minimum = 7
	maximum = 41
Network latency average = 19.6213
	minimum = 7
	maximum = 41
Slowest packet = 44168
Flit latency average = 19.6213
	minimum = 7
	maximum = 41
Slowest flit = 44168
Fragmentation average = 0
	minimum = 0
	maximum = 0
Injected packet rate average = 0.0988125
	minimum = 0.083 (at node 14)
	maximum = 0.112 (at node 10)
Accepted packet rate average = 0.098375
	minimum = 0.077 (at node 9)
	maximum = 0.115 (at node 4)
Injected flit rate average = 0.0988125
	minimum = 0.083 (at node 14)
	maximum = 0.112 (at node 10)
Accepted flit rate average= 0.098375
	minimum = 0.077 (at node 9)
	maximum = 0.115 (at node 4)
Injected packet length average = 1
Accepted packet length average = 1
Total in-flight flits = 37 (0 measured)
latency change    = 0.0113787
throughput change = 0.0101652
Warmed up ...Time used is 3000 cycles
Class 0:
Packet latency average = 20.1692
	minimum = 7
	maximum = 38
Network latency average = 20.1692
	minimum = 7
	maximum = 38
Slowest packet = 45350
Flit latency average = 20.3036
	minimum = 7
	maximum = 44
Slowest flit = 44953
Fragmentation average = 0
	minimum = 0
	maximum = 0
Injected packet rate average = 0.0988125
	minimum = 0.088 (at node 14)
	maximum = 0.116 (at node 15)
Accepted packet rate average = 0.0994375
	minimum = 0.082 (at node 8)
	maximum = 0.116 (at node 1)
Injected flit rate average = 0.0988125
	minimum = 0.088 (at node 14)
	maximum = 0.116 (at node 15)
Accepted flit rate average= 0.0994375
	minimum = 0.082 (at node 8)
	maximum = 0.116 (at node 1)
Injected packet length average = 1
Accepted packet length average = 1
Total in-flight flits = 27 (27 measured)
latency change    = 0.0270703
throughput change = 0.0106851
Class 0:
Packet latency average = 19.8894
	minimum = 7
	maximum = 42
Network latency average = 19.8891
	minimum = 7
	maximum = 42
Slowest packet = 46854
Flit latency average = 19.9591
	minimum = 7
	maximum = 44
Slowest flit = 44953
Fragmentation average = 0
	minimum = 0
	maximum = 0
Injected packet rate average = 0.0995937
	minimum = 0.094 (at node 2)
	maximum = 0.107 (at node 12)
Accepted packet rate average = 0.100031
	minimum = 0.091 (at node 8)
	maximum = 0.107 (at node 9)
Injected flit rate average = 0.0995937
	minimum = 0.094 (at node 2)
	maximum = 0.107 (at node 12)
Accepted flit rate average= 0.100031
	minimum = 0.091 (at node 8)
	maximum = 0.107 (at node 9)
Injected packet length average = 1
Accepted packet length average = 1
Total in-flight flits = 23 (23 measured)
latency change    = 0.0140708
throughput change = 0.00593565
Class 0:
Packet latency average = 19.8115
	minimum = 7
	maximum = 43
Network latency average = 19.8111
	minimum = 7
	maximum = 43
Slowest packet = 48502
Flit latency average = 19.8583
	minimum = 7
	maximum = 44
Slowest flit = 44953
Fragmentation average = 0
	minimum = 0
	maximum = 0
Injected packet rate average = 0.100146
	minimum = 0.0936667 (at node 2)
	maximum = 0.104333 (at node 12)
Accepted packet rate average = 0.10025
	minimum = 0.0953333 (at node 8)
	maximum = 0.105667 (at node 10)
Injected flit rate average = 0.100146
	minimum = 0.0936667 (at node 2)
	maximum = 0.104333 (at node 12)
Accepted flit rate average= 0.10025
	minimum = 0.0953333 (at node 8)
	maximum = 0.105667 (at node 10)
Injected packet length average = 1
Accepted packet length average = 1
Total in-flight flits = 32 (32 measured)
latency change    = 0.00393015
throughput change = 0.00218204
Draining all recorded packets ...
Draining remaining packets ...
Time taken is 6053 cycles
Class 0:
Packet latency average = 19.7756
	minimum = 7
	maximum = 42
Network latency average = 19.7756
	minimum = 7
	maximum = 42
Slowest packet = 50140
Flit latency average = 19.7756
	minimum = 7
	maximum = 42
Slowest flit = 50140
Fragmentation average = 0
	minimum = 0
	maximum = 0
Injected packet rate average = 0.0961875
	minimum = 0.081 (at node 11)
	maximum = 0.11 (at node 9)
Accepted packet rate average = 0.0946875
	minimum = 0.087 (at node 14)
	maximum = 0.118 (at node 9)
Injected flit rate average = 0.0961875
	minimum = 0.081 (at node 11)
	maximum = 0.11 (at node 9)
Accepted flit rate average= 0.0946875
	minimum = 0.087 (at node 14)
	maximum = 0.118 (at node 9)
Injected packet length average = 1
Accepted packet length average = 1
Total in-flight flits = 24 (0 measured)
latency change    = 1
throughput change = 1
Class 0:
Packet latency average = 19.703
	minimum = 7
	maximum = 42
Network latency average = 19.703
	minimum = 7
	maximum = 42
Slowest packet = 50140
Flit latency average = 19.703
	minimum = 7
	maximum = 42
Slowest flit = 50140
Fragmentation average = 0
	minimum = 0
	maximum = 0
Injected packet rate average = 0.100094
	minimum = 0.0865 (at node 3)
	maximum = 0.1125 (at node 12)
Accepted packet rate average = 0.099125
	minimum = 0.0895 (at node 3)
	maximum = 0.1095 (at node 1)
Injected flit rate average = 0.100094
	minimum = 0.0865 (at node 3)
	maximum = 0.1125 (at node 12)
Accepted flit rate average= 0.099125
	minimum = 0.0895 (at node 3)
	maximum = 0.1095 (at node 1)
Injected packet length average = 1
Accepted packet length average = 1
Total in-flight flits = 31 (0 measured)
latency change    = 0.00368223
throughput change = 0.0447667
Class 0:
Packet latency average = 19.8062
	minimum = 7
	maximum = 45
Network latency average = 19.8062
	minimum = 7
	maximum = 45
Slowest packet = 54395
Flit latency average = 19.8062
	minimum = 7
	maximum = 45
Slowest flit = 54395
Fragmentation average = 0
	minimum = 0
	maximum = 0
Injected packet rate average = 0.1005
	minimum = 0.084 (at node 8)
	maximum = 0.122 (at node 11)
Accepted packet rate average = 0.1
	minimum = 0.088 (at node 3)
	maximum = 0.118 (at node 6)
Injected flit rate average = 0.1005
	minimum = 0.084 (at node 8)
	maximum = 0.122 (at node 11)
Accepted flit rate average= 0.1
	minimum = 0.088 (at node 3)
	maximum = 0.118 (at node 6)
Injected packet length average = 1
Accepted packet length average = 1
Total in-flight flits = 39 (0 measured)
latency change    = 0.00521166
throughput change = 0.00875
Warmed up ...Time used is 3000 cycles
Class 0:
Packet latency average = 19.377
	minimum = 7
	maximum = 43
Network latency average = 19.3764
	minimum = 7
	maximum = 43
Slowest packet = 55148
Flit latency average = 19.4834
	minimum = 7
	maximum = 44
Slowest flit = 54687
Fragmentation average = 0
	minimum = 0
	maximum = 0
Injected packet rate average = 0.104938
	minimum = 0.084 (at node 3)
	maximum = 0.128 (at node 13)
Accepted packet rate average = 0.105375
	minimum = 0.09 (at node 2)
	maximum = 0.123 (at node 3)
Injected flit rate average = 0.104938
	minimum = 0.084 (at node 3)
	maximum = 0.128 (at node 13)
Accepted flit rate average= 0.105375
	minimum = 0.09 (at node 2)
	maximum = 0.123 (at node 3)
Injected packet length average = 1
Accepted packet length average = 1
Total in-flight flits = 32 (32 measured)
latency change    = 0.02215
throughput change = 0.0510083
Class 0:
Packet latency average = 19.5152
	minimum = 7
	maximum = 43
Network latency average = 19.5149
	minimum = 7
	maximum = 43
Slowest packet = 55148
Flit latency average = 19.5674
	minimum = 7
	maximum = 44
Slowest flit = 54687
Fragmentation average = 0
	minimum = 0
	maximum = 0
Injected packet rate average = 0.103969
	minimum = 0.0935 (at node 14)
	maximum = 0.1195 (at node 13)
Accepted packet rate average = 0.104156
	minimum = 0.0935 (at node 2)
	maximum = 0.114 (at node 3)
Injected flit rate average = 0.103969
	minimum = 0.0935 (at node 14)
	maximum = 0.1195 (at node 13)
Accepted flit rate average= 0.104156
	minimum = 0.0935 (at node 2)
	maximum = 0.114 (at node 3)
Injected packet length average = 1
Accepted packet length average = 1
Total in-flight flits = 33 (33 measured)
latency change    = 0.00707808
throughput change = 0.0117012
Class 0:
Packet latency average = 19.6078
	minimum = 7
	maximum = 47
Network latency average = 19.607
	minimum = 7
	maximum = 47
Slowest packet = 58318
Flit latency average = 19.6415
	minimum = 7
	maximum = 47
Slowest flit = 58318
Fragmentation average = 0
	minimum = 0
	maximum = 0
Injected packet rate average = 0.103167
	minimum = 0.0926667 (at node 6)
	maximum = 0.115 (at node 8)
Accepted packet rate average = 0.103438
	minimum = 0.092 (at node 2)
	maximum = 0.116333 (at node 0)
Injected flit rate average = 0.103167
	minimum = 0.0926667 (at node 6)
	maximum = 0.115 (at node 8)
Accepted flit rate average= 0.103438
	minimum = 0.092 (at node 2)
	maximum = 0.116333 (at node 0)
Injected packet length average = 1
Accepted packet length average = 1
Total in-flight flits = 26 (26 measured)
latency change    = 0.00472344
throughput change = 0.00694864
Class 0:
Packet latency average = 19.6299
	minimum = 7
	maximum = 47
Network latency average = 19.6292
	minimum = 7
	maximum = 47
Slowest packet = 58318
Flit latency average = 19.6553
	minimum = 7
	maximum = 47
Slowest flit = 58318
Fragmentation average = 0
	minimum = 0
	maximum = 0
Injected packet rate average = 0.102047
	minimum = 0.0925 (at node 1)
	maximum = 0.11275 (at node 8)
Accepted packet rate average = 0.102344
	minimum = 0.09175 (at node 2)
	maximum = 0.115 (at node 0)
Injected flit rate average = 0.102047
	minimum = 0.0925 (at node 1)
	maximum = 0.11275 (at node 8)
Accepted flit rate average= 0.102344
	minimum = 0.09175 (at node 2)
	maximum = 0.115 (at node 0)
Injected packet length average = 1
Accepted packet length average = 1
Total in-flight flits = 20 (20 measured)
latency change    = 0.00112389
throughput change = 0.010687
Draining all recorded packets ...
Draining remaining packets ...
Time taken is 7071 cycles
Class 0:
Packet latency average = 19.8025
	minimum = 7
	maximum = 45
Network latency average = 19.8018
	minimum = 7
	maximum = 45
Slowest packet = 62744
Flit latency average = 19.8018
	minimum = 7
	maximum = 45
Slowest flit = 62744
Fragmentation average = 0
	minimum = 0
	maximum = 0
Injected packet rate average = 0.0984375
	minimum = 0.086 (at node 2)
	maximum = 0.109 (at node 3)
Accepted packet rate average = 0.0968125
	minimum = 0.083 (at node 3)
	maximum = 0.115 (at node 1)
Injected flit rate average = 0.0984375
	minimum = 0.086 (at node 2)
	maximum = 0.109 (at node 3)
Accepted flit rate average= 0.0968125
	minimum = 0.083 (at node 3)
	maximum = 0.115 (at node 1)
Injected packet length average = 1
Accepted packet length average = 1
Total in-flight flits = 26 (0 measured)
latency change    = 1
throughput change = 1
Class 0:
Packet latency average = 20.0057
	minimum = 7
	maximum = 45
Network latency average = 20.0054
	minimum = 7
	maximum = 45
Slowest packet = 62744
Flit latency average = 20.0054
	minimum = 7
	maximum = 45
Slowest flit = 62744
Fragmentation average = 0
	minimum = 0
	maximum = 0
Injected packet rate average = 0.0995
	minimum = 0.0845 (at node 5)
	maximum = 0.111 (at node 3)
Accepted packet rate average = 0.098625
	minimum = 0.0875 (at node 2)
	maximum = 0.112 (at node 1)
Injected flit rate average = 0.0995
	minimum = 0.0845 (at node 5)
	maximum = 0.111 (at node 3)
Accepted flit rate average= 0.098625
	minimum = 0.0875 (at node 2)
	maximum = 0.112 (at node 1)
Injected packet length average = 1
Accepted packet length average = 1
Total in-flight flits = 28 (0 measured)
latency change    = 0.0101596
throughput change = 0.0183777
Class 0:
Packet latency average = 19.8381
	minimum = 7
	maximum = 45
Network latency average = 19.8375
	minimum = 7
	maximum = 45
Slowest packet = 65136
Flit latency average = 19.8375
	minimum = 7
	maximum = 45
Slowest flit = 65136
Fragmentation average = 0
	minimum = 0
	maximum = 0
Injected packet rate average = 0.100625
	minimum = 0.087 (at node 14)
	maximum = 0.115 (at node 12)
Accepted packet rate average = 0.100375
	minimum = 0.077 (at node 14)
	maximum = 0.118 (at node 4)
Injected flit rate average = 0.100625
	minimum = 0.087 (at node 14)
	maximum = 0.115 (at node 12)
Accepted flit rate average= 0.100375
	minimum = 0.077 (at node 14)
	maximum = 0.118 (at node 4)
Injected packet length average = 1
Accepted packet length average = 1
Total in-flight flits = 32 (0 measured)
latency change    = 0.0084482
throughput change = 0.0174346
Warmed up ...Time used is 3000 cycles
Class 0:
Packet latency average = 19.833
	minimum = 7
	maximum = 49
Network latency average = 19.833
	minimum = 7
	maximum = 49
Slowest packet = 66834
Flit latency average = 19.8818
	minimum = 7
	maximum = 49
Slowest flit = 66834
Fragmentation average = 0
	minimum = 0
	maximum = 0
Injected packet rate average = 0.104188
	minimum = 0.093 (at node 1)
	maximum = 0.122 (at node 15)
Accepted packet rate average = 0.104188
	minimum = 0.093 (at node 15)
	maximum = 0.118 (at node 5)
Injected flit rate average = 0.104188
	minimum = 0.093 (at node 1)
	maximum = 0.122 (at node 15)
Accepted flit rate average= 0.104188
	minimum = 0.093 (at node 15)
	maximum = 0.118 (at node 5)
Injected packet length average = 1
Accepted packet length average = 1
Total in-flight flits = 32 (32 measured)
latency change    = 0.000256117
throughput change = 0.0365927
Class 0:
Packet latency average = 19.654
	minimum = 7
	maximum = 49
Network latency average = 19.6537
	minimum = 7
	maximum = 49
Slowest packet = 66834
Flit latency average = 19.6808
	minimum = 7
	maximum = 49
Slowest flit = 66834
Fragmentation average = 0
	minimum = 0
	maximum = 0
Injected packet rate average = 0.100906
	minimum = 0.0915 (at node 12)
	maximum = 0.115 (at node 15)
Accepted packet rate average = 0.100531
	minimum = 0.093 (at node 2)
	maximum = 0.111 (at node 10)
Injected flit rate average = 0.100906
	minimum = 0.0915 (at node 12)
	maximum = 0.115 (at node 15)
Accepted flit rate average= 0.100531
	minimum = 0.093 (at node 2)
	maximum = 0.111 (at node 10)
Injected packet length average = 1
Accepted packet length average = 1
Total in-flight flits = 44 (44 measured)
latency change    = 0.0091088
throughput change = 0.0363693
Class 0:
Packet latency average = 19.7875
	minimum = 7
	maximum = 49
Network latency average = 19.7873
	minimum = 7
	maximum = 49
Slowest packet = 66834
Flit latency average = 19.8042
	minimum = 7
	maximum = 49
Slowest flit = 66834
Fragmentation average = 0
	minimum = 0
	maximum = 0
Injected packet rate average = 0.101813
	minimum = 0.0916667 (at node 13)
	maximum = 0.112667 (at node 7)
Accepted packet rate average = 0.101833
	minimum = 0.0926667 (at node 3)
	maximum = 0.113667 (at node 12)
Injected flit rate average = 0.101813
	minimum = 0.0916667 (at node 13)
	maximum = 0.112667 (at node 7)
Accepted flit rate average= 0.101833
	minimum = 0.0926667 (at node 3)
	maximum = 0.113667 (at node 12)
Injected packet length average = 1
Accepted packet length average = 1
Total in-flight flits = 31 (31 measured)
latency change    = 0.00674549
throughput change = 0.0127864
Draining all recorded packets ...
Draining remaining packets ...
Time taken is 6063 cycles
Class 0:
Packet latency average = 19.4631
	minimum = 7
	maximum = 40
Network latency average = 19.4631
	minimum = 7
	maximum = 40
Slowest packet = 71225
Flit latency average = 19.4631
	minimum = 7
	maximum = 40
Slowest flit = 71225
Fragmentation average = 0
	minimum = 0
	maximum = 0
Injected packet rate average = 0.0996875
	minimum = 0.082 (at node 10)
	maximum = 0.128 (at node 5)
Accepted packet rate average = 0.0973125
	minimum = 0.076 (at node 11)
	maximum = 0.11 (at node 1)
Injected flit rate average = 0.0996875
	minimum = 0.082 (at node 10)
	maximum = 0.128 (at node 5)
Accepted flit rate average= 0.0973125
	minimum = 0.076 (at node 11)
	maximum = 0.11 (at node 1)
Injected packet length average = 1
Accepted packet length average = 1
Total in-flight flits = 38 (0 measured)
latency change    = 1
throughput change = 1
Class 0:
Packet latency average = 19.7023
	minimum = 7
	maximum = 46
Network latency average = 19.7023
	minimum = 7
	maximum = 46
Slowest packet = 73063
Flit latency average = 19.7023
	minimum = 7
	maximum = 46
Slowest flit = 73063
Fragmentation average = 0
	minimum = 0
	maximum = 0
Injected packet rate average = 0.102375
	minimum = 0.0935 (at node 1)
	maximum = 0.116 (at node 5)
Accepted packet rate average = 0.101187
	minimum = 0.0925 (at node 0)
	maximum = 0.11 (at node 4)
Injected flit rate average = 0.102375
	minimum = 0.0935 (at node 1)
	maximum = 0.116 (at node 5)
Accepted flit rate average= 0.101187
	minimum = 0.0925 (at node 0)
	maximum = 0.11 (at node 4)
Injected packet length average = 1
Accepted packet length average = 1
Total in-flight flits = 38 (0 measured)
latency change    = 0.0121415
throughput change = 0.0382952
Class 0:
Packet latency average = 19.7201
	minimum = 7
	maximum = 50
Network latency average = 19.7201
	minimum = 7
	maximum = 50
Slowest packet = 75751
Flit latency average = 19.7201
	minimum = 7
	maximum = 50
Slowest flit = 75751
Fragmentation average = 0
	minimum = 0
	maximum = 0
Injected packet rate average = 0.100875
	minimum = 0.083 (at node 2)
	maximum = 0.112 (at node 11)
Accepted packet rate average = 0.101813
	minimum = 0.084 (at node 15)
	maximum = 0.123 (at node 10)
Injected flit rate average = 0.100875
	minimum = 0.083 (at node 2)
	maximum = 0.112 (at node 11)
Accepted flit rate average= 0.101813
	minimum = 0.084 (at node 15)
	maximum = 0.123 (at node 10)
Injected packet length average = 1
Accepted packet length average = 1
Total in-flight flits = 23 (0 measured)
latency change    = 0.00090204
throughput change = 0.00613874
Warmed up ...Time used is 3000 cycles
Class 0:
Packet latency average = 19.9068
	minimum = 7
	maximum = 48
Network latency average = 19.9049
	minimum = 7
	maximum = 48
Slowest packet = 76345
Flit latency average = 19.9306
	minimum = 7
	maximum = 48
Slowest flit = 76345
Fragmentation average = 0
	minimum = 0
	maximum = 0
Injected packet rate average = 0.0996875
	minimum = 0.086 (at node 13)
	maximum = 0.12 (at node 9)
Accepted packet rate average = 0.1
	minimum = 0.077 (at node 2)
	maximum = 0.119 (at node 15)
Injected flit rate average = 0.0996875
	minimum = 0.086 (at node 13)
	maximum = 0.12 (at node 9)
Accepted flit rate average= 0.1
	minimum = 0.077 (at node 2)
	maximum = 0.119 (at node 15)
Injected packet length average = 1
Accepted packet length average = 1
Total in-flight flits = 18 (18 measured)
latency change    = 0.00937928
throughput change = 0.018125
Class 0:
Packet latency average = 19.9681
	minimum = 7
	maximum = 48
Network latency average = 19.9672
	minimum = 7
	maximum = 48
Slowest packet = 76345
Flit latency average = 19.9796
	minimum = 7
	maximum = 48
Slowest flit = 76345
Fragmentation average = 0
	minimum = 0
	maximum = 0
Injected packet rate average = 0.0999375
	minimum = 0.0875 (at node 13)
	maximum = 0.111 (at node 7)
Accepted packet rate average = 0.09975
	minimum = 0.083 (at node 8)
	maximum = 0.111 (at node 15)
Injected flit rate average = 0.0999375
	minimum = 0.0875 (at node 13)
	maximum = 0.111 (at node 7)
Accepted flit rate average= 0.09975
	minimum = 0.083 (at node 8)
	maximum = 0.111 (at node 15)
Injected packet length average = 1
Accepted packet length average = 1
Total in-flight flits = 29 (29 measured)
latency change    = 0.00307208
throughput change = 0.00250627
Class 0:
Packet latency average = 19.967
	minimum = 7
	maximum = 54
Network latency average = 19.9664
	minimum = 7
	maximum = 54
Slowest packet = 80095
Flit latency average = 19.9747
	minimum = 7
	maximum = 54
Slowest flit = 80095
Fragmentation average = 0
	minimum = 0
	maximum = 0
Injected packet rate average = 0.0999792
	minimum = 0.0903333 (at node 11)
	maximum = 0.109333 (at node 7)
Accepted packet rate average = 0.0997083
	minimum = 0.0863333 (at node 8)
	maximum = 0.11 (at node 15)
Injected flit rate average = 0.0999792
	minimum = 0.0903333 (at node 11)
	maximum = 0.109333 (at node 7)
Accepted flit rate average= 0.0997083
	minimum = 0.0863333 (at node 8)
	maximum = 0.11 (at node 15)
Injected packet length average = 1
Accepted packet length average = 1
Total in-flight flits = 36 (36 measured)
latency change    = 5.46484e-05
throughput change = 0.000417885
Draining all recorded packets ...
Draining remaining packets ...
Time taken is 6049 cycles
Class 0:
Packet latency average = 19.9222
	minimum = 7
	maximum = 51
Network latency average = 19.921
	minimum = 7
	maximum = 51
Slowest packet = 81156
Flit latency average = 19.921
	minimum = 7
	maximum = 51
Slowest flit = 81156
Fragmentation average = 0
	minimum = 0
	maximum = 0
Injected packet rate average = 0.104438
	minimum = 0.077 (at node 4)
	maximum = 0.119 (at node 0)
Accepted packet rate average = 0.102813
	minimum = 0.084 (at node 9)
	maximum = 0.124 (at node 6)
Injected flit rate average = 0.104438
	minimum = 0.077 (at node 4)
	maximum = 0.119 (at node 0)
Accepted flit rate average= 0.102813
	minimum = 0.084 (at node 9)
	maximum = 0.124 (at node 6)
Injected packet length average = 1
Accepted packet length average = 1
Total in-flight flits = 26 (0 measured)
latency change    = 1
throughput change = 1
Class 0:
Packet latency average = 19.8562
	minimum = 7
	maximum = 51
Network latency average = 19.855
	minimum = 7
	maximum = 51
Slowest packet = 81156
Flit latency average = 19.855
	minimum = 7
	maximum = 51
Slowest flit = 81156
Fragmentation average = 0
	minimum = 0
	maximum = 0
Injected packet rate average = 0.101875
	minimum = 0.093 (at node 7)
	maximum = 0.114 (at node 3)
Accepted packet rate average = 0.100844
	minimum = 0.087 (at node 3)
	maximum = 0.111 (at node 6)
Injected flit rate average = 0.101875
	minimum = 0.093 (at node 7)
	maximum = 0.114 (at node 3)
Accepted flit rate average= 0.100844
	minimum = 0.087 (at node 3)
	maximum = 0.111 (at node 6)
Injected packet length average = 1
Accepted packet length average = 1
Total in-flight flits = 33 (0 measured)
latency change    = 0.00332265
throughput change = 0.0195228
Class 0:
Packet latency average = 19.9019
	minimum = 7
	maximum = 52
Network latency average = 19.8968
	minimum = 7
	maximum = 52
Slowest packet = 84970
Flit latency average = 19.8968
	minimum = 7
	maximum = 52
Slowest flit = 84970
Fragmentation average = 0
	minimum = 0
	maximum = 0
Injected packet rate average = 0.09675
	minimum = 0.076 (at node 0)
	maximum = 0.114 (at node 10)
Accepted packet rate average = 0.096875
	minimum = 0.085 (at node 10)
	maximum = 0.109 (at node 8)
Injected flit rate average = 0.09675
	minimum = 0.076 (at node 0)
	maximum = 0.114 (at node 10)
Accepted flit rate average= 0.096875
	minimum = 0.085 (at node 10)
	maximum = 0.109 (at node 8)
Injected packet length average = 1
Accepted packet length average = 1
Total in-flight flits = 31 (0 measured)
latency change    = 0.00229738
throughput change = 0.0409677
Warmed up ...Time used is 3000 cycles
Class 0:
Packet latency average = 19.6452
	minimum = 7
	maximum = 49
Network latency average = 19.6426
	minimum = 7
	maximum = 49
Slowest packet = 86659
Flit latency average = 19.6799
	minimum = 7
	maximum = 49
Slowest flit = 86659
Fragmentation average = 0
	minimum = 0
	maximum = 0
Injected packet rate average = 0.0990625
	minimum = 0.083 (at node 6)
	maximum = 0.11 (at node 11)
Accepted packet rate average = 0.0988125
	minimum = 0.085 (at node 8)
	maximum = 0.116 (at node 14)
Injected flit rate average = 0.0990625
	minimum = 0.083 (at node 6)
	maximum = 0.11 (at node 11)
Accepted flit rate average= 0.0988125
	minimum = 0.085 (at node 8)
	maximum = 0.116 (at node 14)
Injected packet length average = 1
Accepted packet length average = 1
Total in-flight flits = 35 (35 measured)
latency change    = 0.0130706
throughput change = 0.0196078
Class 0:
Packet latency average = 19.7103
	minimum = 7
	maximum = 49
Network latency average = 19.7091
	minimum = 7
	maximum = 49
Slowest packet = 86659
Flit latency average = 19.7272
	minimum = 7
	maximum = 49
Slowest flit = 86659
Fragmentation average = 0
	minimum = 0
	maximum = 0
Injected packet rate average = 0.098375
	minimum = 0.0905 (at node 1)
	maximum = 0.112 (at node 12)
Accepted packet rate average = 0.0985
	minimum = 0.09 (at node 15)
	maximum = 0.113 (at node 13)
Injected flit rate average = 0.098375
	minimum = 0.0905 (at node 1)
	maximum = 0.112 (at node 12)
Accepted flit rate average= 0.0985
	minimum = 0.09 (at node 15)
	maximum = 0.113 (at node 13)
Injected packet length average = 1
Accepted packet length average = 1
Total in-flight flits = 27 (27 measured)
latency change    = 0.0033073
throughput change = 0.00317259
Class 0:
Packet latency average = 19.6671
	minimum = 7
	maximum = 49
Network latency average = 19.6658
	minimum = 7
	maximum = 49
Slowest packet = 86659
Flit latency average = 19.6781
	minimum = 7
	maximum = 49
Slowest flit = 86659
Fragmentation average = 0
	minimum = 0
	maximum = 0
Injected packet rate average = 0.0985833
	minimum = 0.0873333 (at node 0)
	maximum = 0.108333 (at node 12)
Accepted packet rate average = 0.0985833
	minimum = 0.0916667 (at node 11)
	maximum = 0.109 (at node 13)
Injected flit rate average = 0.0985833
	minimum = 0.0873333 (at node 0)
	maximum = 0.108333 (at node 12)
Accepted flit rate average= 0.0985833
	minimum = 0.0916667 (at node 11)
	maximum = 0.109 (at node 13)
Injected packet length average = 1
Accepted packet length average = 1
Total in-flight flits = 31 (31 measured)
latency change    = 0.00219947
throughput change = 0.000845309
Draining all recorded packets ...
Draining remaining packets ...
Time taken is 6059 cycles
Class 0:
Packet latency average = 19.724
	minimum = 7
	maximum = 46
Network latency average = 19.7234
	minimum = 7
	maximum = 46
Slowest packet = 91504
Flit latency average = 19.7234
	minimum = 7
	maximum = 46
Slowest flit = 91504
Fragmentation average = 0
	minimum = 0
	maximum = 0
Injected packet rate average = 0.099125
	minimum = 0.076 (at node 12)
	maximum = 0.12 (at node 11)
Accepted packet rate average = 0.09625
	minimum = 0.082 (at node 3)
	maximum = 0.114 (at node 9)
Injected flit rate average = 0.099125
	minimum = 0.076 (at node 12)
	maximum = 0.12 (at node 11)
Accepted flit rate average= 0.09625
	minimum = 0.082 (at node 3)
	maximum = 0.114 (at node 9)
Injected packet length average = 1
Accepted packet length average = 1
Total in-flight flits = 46 (0 measured)
latency change    = 1
throughput change = 1
Class 0:
Packet latency average = 19.8276
	minimum = 7
	maximum = 52
Network latency average = 19.8273
	minimum = 7
	maximum = 52
Slowest packet = 91864
Flit latency average = 19.8273
	minimum = 7
	maximum = 52
Slowest flit = 91864
Fragmentation average = 0
	minimum = 0
	maximum = 0
Injected packet rate average = 0.0994063
	minimum = 0.083 (at node 12)
	maximum = 0.1125 (at node 11)
Accepted packet rate average = 0.0984375
	minimum = 0.0895 (at node 11)
	maximum = 0.11 (at node 12)
Injected flit rate average = 0.0994063
	minimum = 0.083 (at node 12)
	maximum = 0.1125 (at node 11)
Accepted flit rate average= 0.0984375
	minimum = 0.0895 (at node 11)
	maximum = 0.11 (at node 12)
Injected packet length average = 1
Accepted packet length average = 1
Total in-flight flits = 31 (0 measured)
latency change    = 0.00522469
throughput change = 0.0222222
Class 0:
Packet latency average = 19.9049
	minimum = 7
	maximum = 44
Network latency average = 19.9037
	minimum = 7
	maximum = 44
Slowest packet = 94754
Flit latency average = 19.9037
	minimum = 7
	maximum = 44
Slowest flit = 94754
Fragmentation average = 0
	minimum = 0
	maximum = 0
Injected packet rate average = 0.098625
	minimum = 0.087 (at node 10)
	maximum = 0.116 (at node 5)
Accepted packet rate average = 0.09925
	minimum = 0.091 (at node 9)
	maximum = 0.115 (at node 2)
Injected flit rate average = 0.098625
	minimum = 0.087 (at node 10)
	maximum = 0.116 (at node 5)
Accepted flit rate average= 0.09925
	minimum = 0.091 (at node 9)
	maximum = 0.115 (at node 2)
Injected packet length average = 1
Accepted packet length average = 1
Total in-flight flits = 21 (0 measured)
latency change    = 0.0038831
throughput change = 0.0081864
Warmed up ...Time used is 3000 cycles
Class 0:
Packet latency average = 19.6602
	minimum = 7
	maximum = 46
Network latency average = 19.6602
	minimum = 7
	maximum = 46
Slowest packet = 96204
Flit latency average = 19.6929
	minimum = 7
	maximum = 46
Slowest flit = 96204
Fragmentation average = 0
	minimum = 0
	maximum = 0
Injected packet rate average = 0.098375
	minimum = 0.085 (at node 1)
	maximum = 0.114 (at node 6)
Accepted packet rate average = 0.0976875
	minimum = 0.069 (at node 14)
	maximum = 0.115 (at node 11)
Injected flit rate average = 0.098375
	minimum = 0.085 (at node 1)
	maximum = 0.114 (at node 6)
Accepted flit rate average= 0.0976875
	minimum = 0.069 (at node 14)
	maximum = 0.115 (at node 11)
Injected packet length average = 1
Accepted packet length average = 1
Total in-flight flits = 32 (32 measured)
latency change    = 0.012448
throughput change = 0.0159949
Class 0:
Packet latency average = 19.9474
	minimum = 7
	maximum = 47
Network latency average = 19.9471
	minimum = 7
	maximum = 47
Slowest packet = 97862
Flit latency average = 19.9615
	minimum = 7
	maximum = 47
Slowest flit = 97862
Fragmentation average = 0
	minimum = 0
	maximum = 0
Injected packet rate average = 0.0975938
	minimum = 0.0845 (at node 14)
	maximum = 0.1205 (at node 6)
Accepted packet rate average = 0.0974688
	minimum = 0.08 (at node 14)
	maximum = 0.113 (at node 11)
Injected flit rate average = 0.0975938
	minimum = 0.0845 (at node 14)
	maximum = 0.1205 (at node 6)
Accepted flit rate average= 0.0974688
	minimum = 0.08 (at node 14)
	maximum = 0.113 (at node 11)
Injected packet length average = 1
Accepted packet length average = 1
Total in-flight flits = 25 (25 measured)
latency change    = 0.0143981
throughput change = 0.00224431
Class 0:
Packet latency average = 19.8741
	minimum = 7
	maximum = 48
Network latency average = 19.8739
	minimum = 7
	maximum = 48
Slowest packet = 98296
Flit latency average = 19.8838
	minimum = 7
	maximum = 48
Slowest flit = 98296
Fragmentation average = 0
	minimum = 0
	maximum = 0
Injected packet rate average = 0.098375
	minimum = 0.0846667 (at node 5)
	maximum = 0.115667 (at node 6)
Accepted packet rate average = 0.0982708
	minimum = 0.0923333 (at node 14)
	maximum = 0.108 (at node 11)
Injected flit rate average = 0.098375
	minimum = 0.0846667 (at node 5)
	maximum = 0.115667 (at node 6)
Accepted flit rate average= 0.0982708
	minimum = 0.0923333 (at node 14)
	maximum = 0.108 (at node 11)
Injected packet length average = 1
Accepted packet length average = 1
Total in-flight flits = 26 (26 measured)
latency change    = 0.00368505
throughput change = 0.00816197
Draining all recorded packets ...
Draining remaining packets ...
Time taken is 6054 cycles
Class 0:
Packet latency average = 19.5664
	minimum = 7
	maximum = 46
Network latency average = 19.5658
	minimum = 7
	maximum = 46
Slowest packet = 99989
Flit latency average = 19.5658
	minimum = 7
	maximum = 46
Slowest flit = 99989
Fragmentation average = 0
	minimum = 0
	maximum = 0
Injected packet rate average = 0.101375
	minimum = 0.09 (at node 1)
	maximum = 0.11 (at node 3)
Accepted packet rate average = 0.0993125
	minimum = 0.087 (at node 13)
	maximum = 0.114 (at node 10)
Injected flit rate average = 0.101375
	minimum = 0.09 (at node 1)
	maximum = 0.11 (at node 3)
Accepted flit rate average= 0.0993125
	minimum = 0.087 (at node 13)
	maximum = 0.114 (at node 10)
Injected packet length average = 1
Accepted packet length average = 1
Total in-flight flits = 33 (0 measured)
latency change    = 1
throughput change = 1
Class 0:
Packet latency average = 19.6544
	minimum = 7
	maximum = 46
Network latency average = 19.654
	minimum = 7
	maximum = 46
Slowest packet = 99989
Flit latency average = 19.654
	minimum = 7
	maximum = 46
Slowest flit = 99989
Fragmentation average = 0
	minimum = 0
	maximum = 0
Injected packet rate average = 0.101875
	minimum = 0.0915 (at node 5)
	maximum = 0.111 (at node 4)
Accepted packet rate average = 0.100719
	minimum = 0.0915 (at node 13)
	maximum = 0.113 (at node 10)
Injected flit rate average = 0.101875
	minimum = 0.0915 (at node 5)
	maximum = 0.111 (at node 4)
Accepted flit rate average= 0.100719
	minimum = 0.0915 (at node 13)
	maximum = 0.113 (at node 10)
Injected packet length average = 1
Accepted packet length average = 1
Total in-flight flits = 37 (0 measured)
latency change    = 0.00447561
throughput change = 0.0139621
Class 0:
Packet latency average = 20.1812
	minimum = 7
	maximum = 43
Network latency average = 20.1812
	minimum = 7
	maximum = 43
Slowest packet = 104300
Flit latency average = 20.1812
	minimum = 7
	maximum = 43
Slowest flit = 104300
Fragmentation average = 0
	minimum = 0
	maximum = 0
Injected packet rate average = 0.0999375
	minimum = 0.079 (at node 8)
	maximum = 0.114 (at node 3)
Accepted packet rate average = 0.100375
	minimum = 0.079 (at node 9)
	maximum = 0.133 (at node 10)
Injected flit rate average = 0.0999375
	minimum = 0.079 (at node 8)
	maximum = 0.114 (at node 3)
Accepted flit rate average= 0.100375
	minimum = 0.079 (at node 9)
	maximum = 0.133 (at node 10)
Injected packet length average = 1
Accepted packet length average = 1
Total in-flight flits = 30 (0 measured)
latency change    = 0.0261053
throughput change = 0.00342466
Warmed up ...Time used is 3000 cycles
Class 0:
Packet latency average = 19.7892
	minimum = 7
	maximum = 43
Network latency average = 19.7872
	minimum = 7
	maximum = 43
Slowest packet = 105413
Flit latency average = 19.8417
	minimum = 7
	maximum = 43
Slowest flit = 105413
Fragmentation average = 0
	minimum = 0
	maximum = 0
Injected packet rate average = 0.09725
	minimum = 0.079 (at node 3)
	maximum = 0.113 (at node 2)
Accepted packet rate average = 0.09675
	minimum = 0.076 (at node 7)
	maximum = 0.111 (at node 14)
Injected flit rate average = 0.09725
	minimum = 0.079 (at node 3)
	maximum = 0.113 (at node 2)
Accepted flit rate average= 0.09675
	minimum = 0.076 (at node 7)
	maximum = 0.111 (at node 14)
Injected packet length average = 1
Accepted packet length average = 1
Total in-flight flits = 38 (38 measured)
latency change    = 0.0198087
throughput change = 0.0374677
Class 0:
Packet latency average = 19.8105
	minimum = 7
	maximum = 51
Network latency average = 19.8096
	minimum = 7
	maximum = 51
Slowest packet = 107562
Flit latency average = 19.836
	minimum = 7
	maximum = 51
Slowest flit = 107562
Fragmentation average = 0
	minimum = 0
	maximum = 0
Injected packet rate average = 0.09875
	minimum = 0.09 (at node 10)
	maximum = 0.1095 (at node 6)
Accepted packet rate average = 0.0989063
	minimum = 0.0875 (at node 10)
	maximum = 0.1135 (at node 14)
Injected flit rate average = 0.09875
	minimum = 0.09 (at node 10)
	maximum = 0.1095 (at node 6)
Accepted flit rate average= 0.0989063
	minimum = 0.0875 (at node 10)
	maximum = 0.1135 (at node 14)
Injected packet length average = 1
Accepted packet length average = 1
Total in-flight flits = 25 (25 measured)
latency change    = 0.0010767
throughput change = 0.0218009
Class 0:
Packet latency average = 19.88
	minimum = 7
	maximum = 51
Network latency average = 19.8792
	minimum = 7
	maximum = 51
Slowest packet = 107562
Flit latency average = 19.8963
	minimum = 7
	maximum = 51
Slowest flit = 107562
Fragmentation average = 0
	minimum = 0
	maximum = 0
Injected packet rate average = 0.0989792
	minimum = 0.09 (at node 10)
	maximum = 0.105 (at node 9)
Accepted packet rate average = 0.0990625
	minimum = 0.0883333 (at node 10)
	maximum = 0.107667 (at node 3)
Injected flit rate average = 0.0989792
	minimum = 0.09 (at node 10)
	maximum = 0.105 (at node 9)
Accepted flit rate average= 0.0990625
	minimum = 0.0883333 (at node 10)
	maximum = 0.107667 (at node 3)
Injected packet length average = 1
Accepted packet length average = 1
Total in-flight flits = 26 (26 measured)
latency change    = 0.00349465
throughput change = 0.00157729
Draining all recorded packets ...
Draining remaining packets ...
Time taken is 6055 cycles
Class 0:
Packet latency average = 19.6236
	minimum = 7
	maximum = 44
Network latency average = 19.6236
	minimum = 7
	maximum = 44
Slowest packet = 110871
Flit latency average = 19.6236
	minimum = 7
	maximum = 44
Slowest flit = 110871
Fragmentation average = 0
	minimum = 0
	maximum = 0
Injected packet rate average = 0.0990625
	minimum = 0.085 (at node 2)
	maximum = 0.116 (at node 6)
Accepted packet rate average = 0.0973125
	minimum = 0.087 (at node 1)
	maximum = 0.112 (at node 0)
Injected flit rate average = 0.0990625
	minimum = 0.085 (at node 2)
	maximum = 0.116 (at node 6)
Accepted flit rate average= 0.0973125
	minimum = 0.087 (at node 1)
	maximum = 0.112 (at node 0)
Injected packet length average = 1
Accepted packet length average = 1
Total in-flight flits = 28 (0 measured)
latency change    = 1
throughput change = 1
Class 0:
Packet latency average = 19.5839
	minimum = 7
	maximum = 44
Network latency average = 19.5839
	minimum = 7
	maximum = 44
Slowest packet = 110871
Flit latency average = 19.5839
	minimum = 7
	maximum = 44
Slowest flit = 110871
Fragmentation average = 0
	minimum = 0
	maximum = 0
Injected packet rate average = 0.0996875
	minimum = 0.0925 (at node 8)
	maximum = 0.1105 (at node 7)
Accepted packet rate average = 0.09875
	minimum = 0.0885 (at node 14)
	maximum = 0.1085 (at node 11)
Injected flit rate average = 0.0996875
	minimum = 0.0925 (at node 8)
	maximum = 0.1105 (at node 7)
Accepted flit rate average= 0.09875
	minimum = 0.0885 (at node 14)
	maximum = 0.1085 (at node 11)
Injected packet length average = 1
Accepted packet length average = 1
Total in-flight flits = 30 (0 measured)
latency change    = 0.00203098
throughput change = 0.014557
Class 0:
Packet latency average = 20.3087
	minimum = 7
	maximum = 48
Network latency average = 20.3063
	minimum = 7
	maximum = 48
Slowest packet = 113068
Flit latency average = 20.3063
	minimum = 7
	maximum = 48
Slowest flit = 113068
Fragmentation average = 0
	minimum = 0
	maximum = 0
Injected packet rate average = 0.100937
	minimum = 0.083 (at node 5)
	maximum = 0.114 (at node 3)
Accepted packet rate average = 0.100812
	minimum = 0.09 (at node 9)
	maximum = 0.117 (at node 15)
Injected flit rate average = 0.100937
	minimum = 0.083 (at node 5)
	maximum = 0.114 (at node 3)
Accepted flit rate average= 0.100812
	minimum = 0.09 (at node 9)
	maximum = 0.117 (at node 15)
Injected packet length average = 1
Accepted packet length average = 1
Total in-flight flits = 32 (0 measured)
latency change    = 0.035693
throughput change = 0.0204588
Warmed up ...Time used is 3000 cycles
Class 0:
Packet latency average = 19.8902
	minimum = 7
	maximum = 46
Network latency average = 19.8877
	minimum = 7
	maximum = 46
Slowest packet = 114313
Flit latency average = 19.8905
	minimum = 7
	maximum = 46
Slowest flit = 114313
Fragmentation average = 0
	minimum = 0
	maximum = 0
Injected packet rate average = 0.100625
	minimum = 0.081 (at node 10)
	maximum = 0.119 (at node 9)
Accepted packet rate average = 0.101062
	minimum = 0.082 (at node 1)
	maximum = 0.119 (at node 2)
Injected flit rate average = 0.100625
	minimum = 0.081 (at node 10)
	maximum = 0.119 (at node 9)
Accepted flit rate average= 0.101062
	minimum = 0.082 (at node 1)
	maximum = 0.119 (at node 2)
Injected packet length average = 1
Accepted packet length average = 1
Total in-flight flits = 25 (25 measured)
latency change    = 0.0210415
throughput change = 0.00247372
Class 0:
Packet latency average = 19.9414
	minimum = 7
	maximum = 46
Network latency average = 19.9386
	minimum = 7
	maximum = 46
Slowest packet = 114313
Flit latency average = 19.9395
	minimum = 7
	maximum = 46
Slowest flit = 114313
Fragmentation average = 0
	minimum = 0
	maximum = 0
Injected packet rate average = 0.100812
	minimum = 0.0905 (at node 10)
	maximum = 0.113 (at node 4)
Accepted packet rate average = 0.100781
	minimum = 0.0865 (at node 5)
	maximum = 0.1115 (at node 13)
Injected flit rate average = 0.100812
	minimum = 0.0905 (at node 10)
	maximum = 0.113 (at node 4)
Accepted flit rate average= 0.100781
	minimum = 0.0865 (at node 5)
	maximum = 0.1115 (at node 13)
Injected packet length average = 1
Accepted packet length average = 1
Total in-flight flits = 33 (33 measured)
latency change    = 0.0025682
throughput change = 0.0027907
Class 0:
Packet latency average = 19.9472
	minimum = 7
	maximum = 46
Network latency average = 19.9453
	minimum = 7
	maximum = 46
Slowest packet = 114313
Flit latency average = 19.9459
	minimum = 7
	maximum = 46
Slowest flit = 114313
Fragmentation average = 0
	minimum = 0
	maximum = 0
Injected packet rate average = 0.100875
	minimum = 0.0926667 (at node 6)
	maximum = 0.108333 (at node 4)
Accepted packet rate average = 0.100833
	minimum = 0.092 (at node 1)
	maximum = 0.109 (at node 3)
Injected flit rate average = 0.100875
	minimum = 0.0926667 (at node 6)
	maximum = 0.108333 (at node 4)
Accepted flit rate average= 0.100833
	minimum = 0.092 (at node 1)
	maximum = 0.109 (at node 3)
Injected packet length average = 1
Accepted packet length average = 1
Total in-flight flits = 34 (34 measured)
latency change    = 0.000287609
throughput change = 0.000516529
Draining all recorded packets ...
Draining remaining packets ...
Time taken is 6068 cycles
Class 0:
Packet latency average = 19.9121
	minimum = 7
	maximum = 47
Network latency average = 19.9102
	minimum = 7
	maximum = 47
Slowest packet = 120267
Flit latency average = 19.9102
	minimum = 7
	maximum = 47
Slowest flit = 120267
Fragmentation average = 0
	minimum = 0
	maximum = 0
Injected packet rate average = 0.1005
	minimum = 0.086 (at node 9)
	maximum = 0.124 (at node 0)
Accepted packet rate average = 0.098125
	minimum = 0.081 (at node 7)
	maximum = 0.111 (at node 10)
Injected flit rate average = 0.1005
	minimum = 0.086 (at node 9)
	maximum = 0.124 (at node 0)
Accepted flit rate average= 0.098125
	minimum = 0.081 (at node 7)
	maximum = 0.111 (at node 10)
Injected packet length average = 1
Accepted packet length average = 1
Total in-flight flits = 38 (0 measured)
latency change    = 1
throughput change = 1
Class 0:
Packet latency average = 19.6934
	minimum = 7
	maximum = 47
Network latency average = 19.6924
	minimum = 7
	maximum = 47
Slowest packet = 120267
Flit latency average = 19.6924
	minimum = 7
	maximum = 47
Slowest flit = 120267
Fragmentation average = 0
	minimum = 0
	maximum = 0
Injected packet rate average = 0.0976562
	minimum = 0.088 (at node 13)
	maximum = 0.1165 (at node 0)
Accepted packet rate average = 0.0968125
	minimum = 0.091 (at node 1)
	maximum = 0.1065 (at node 5)
Injected flit rate average = 0.0976562
	minimum = 0.088 (at node 13)
	maximum = 0.1165 (at node 0)
Accepted flit rate average= 0.0968125
	minimum = 0.091 (at node 1)
	maximum = 0.1065 (at node 5)
Injected packet length average = 1
Accepted packet length average = 1
Total in-flight flits = 27 (0 measured)
latency change    = 0.0111079
throughput change = 0.0135571
Class 0:
Packet latency average = 19.7216
	minimum = 7
	maximum = 47
Network latency average = 19.7154
	minimum = 7
	maximum = 47
Slowest packet = 123291
Flit latency average = 19.7154
	minimum = 7
	maximum = 47
Slowest flit = 123291
Fragmentation average = 0
	minimum = 0
	maximum = 0
Injected packet rate average = 0.101062
	minimum = 0.081 (at node 3)
	maximum = 0.121 (at node 1)
Accepted packet rate average = 0.100125
	minimum = 0.084 (at node 1)
	maximum = 0.116 (at node 8)
Injected flit rate average = 0.101062
	minimum = 0.081 (at node 3)
	maximum = 0.121 (at node 1)
Accepted flit rate average= 0.100125
	minimum = 0.084 (at node 1)
	maximum = 0.116 (at node 8)
Injected packet length average = 1
Accepted packet length average = 1
Total in-flight flits = 42 (0 measured)
latency change    = 0.00143231
throughput change = 0.0330836
Warmed up ...Time used is 3000 cycles
Class 0:
Packet latency average = 19.757
	minimum = 7
	maximum = 43
Network latency average = 19.757
	minimum = 7
	maximum = 43
Slowest packet = 124305
Flit latency average = 19.8789
	minimum = 7
	maximum = 43
Slowest flit = 124305
Fragmentation average = 0
	minimum = 0
	maximum = 0
Injected packet rate average = 0.10625
	minimum = 0.093 (at node 3)
	maximum = 0.118 (at node 5)
Accepted packet rate average = 0.106813
	minimum = 0.089 (at node 10)
	maximum = 0.119 (at node 2)
Injected flit rate average = 0.10625
	minimum = 0.093 (at node 3)
	maximum = 0.118 (at node 5)
Accepted flit rate average= 0.106813
	minimum = 0.089 (at node 10)
	maximum = 0.119 (at node 2)
Injected packet length average = 1
Accepted packet length average = 1
Total in-flight flits = 33 (33 measured)
latency change    = 0.00179433
throughput change = 0.0626097
Class 0:
Packet latency average = 19.7812
	minimum = 7
	maximum = 43
Network latency average = 19.7803
	minimum = 7
	maximum = 43
Slowest packet = 124305
Flit latency average = 19.8436
	minimum = 7
	maximum = 43
Slowest flit = 124305
Fragmentation average = 0
	minimum = 0
	maximum = 0
Injected packet rate average = 0.102031
	minimum = 0.086 (at node 6)
	maximum = 0.111 (at node 0)
Accepted packet rate average = 0.102281
	minimum = 0.0835 (at node 5)
	maximum = 0.1125 (at node 2)
Injected flit rate average = 0.102031
	minimum = 0.086 (at node 6)
	maximum = 0.111 (at node 0)
Accepted flit rate average= 0.102281
	minimum = 0.0835 (at node 5)
	maximum = 0.1125 (at node 2)
Injected packet length average = 1
Accepted packet length average = 1
Total in-flight flits = 34 (34 measured)
latency change    = 0.00122003
throughput change = 0.0443019
Class 0:
Packet latency average = 19.8066
	minimum = 7
	maximum = 46
Network latency average = 19.806
	minimum = 7
	maximum = 46
Slowest packet = 127423
Flit latency average = 19.8477
	minimum = 7
	maximum = 46
Slowest flit = 127423
Fragmentation average = 0
	minimum = 0
	maximum = 0
Injected packet rate average = 0.102729
	minimum = 0.0893333 (at node 6)
	maximum = 0.112 (at node 14)
Accepted packet rate average = 0.103
	minimum = 0.0883333 (at node 5)
	maximum = 0.109667 (at node 7)
Injected flit rate average = 0.102729
	minimum = 0.0893333 (at node 6)
	maximum = 0.112 (at node 14)
Accepted flit rate average= 0.103
	minimum = 0.0883333 (at node 5)
	maximum = 0.109667 (at node 7)
Injected packet length average = 1
Accepted packet length average = 1
Total in-flight flits = 29 (29 measured)
latency change    = 0.00128378
throughput change = 0.00697816
Class 0:
Packet latency average = 19.8287
	minimum = 7
	maximum = 64
Network latency average = 19.8281
	minimum = 7
	maximum = 64
Slowest packet = 130079
Flit latency average = 19.8596
	minimum = 7
	maximum = 64
Slowest flit = 130079
Fragmentation average = 0
	minimum = 0
	maximum = 0
Injected packet rate average = 0.101672
	minimum = 0.09275 (at node 6)
	maximum = 0.1135 (at node 14)
Accepted packet rate average = 0.101797
	minimum = 0.09425 (at node 5)
	maximum = 0.11075 (at node 1)
Injected flit rate average = 0.101672
	minimum = 0.09275 (at node 6)
	maximum = 0.1135 (at node 14)
Accepted flit rate average= 0.101797
	minimum = 0.09425 (at node 5)
	maximum = 0.11075 (at node 1)
Injected packet length average = 1
Accepted packet length average = 1
Total in-flight flits = 34 (34 measured)
latency change    = 0.0011127
throughput change = 0.0118189
Draining all recorded packets ...
Draining remaining packets ...
Time taken is 7053 cycles
Class 0:
Packet latency average = 19.385
	minimum = 7
	maximum = 42
Network latency average = 19.385
	minimum = 7
	maximum = 42
Slowest packet = 131474
Flit latency average = 19.385
	minimum = 7
	maximum = 42
Slowest flit = 131474
Fragmentation average = 0
	minimum = 0
	maximum = 0
Injected packet rate average = 0.099875
	minimum = 0.082 (at node 14)
	maximum = 0.118 (at node 13)
Accepted packet rate average = 0.0980625
	minimum = 0.081 (at node 3)
	maximum = 0.115 (at node 1)
Injected flit rate average = 0.099875
	minimum = 0.082 (at node 14)
	maximum = 0.118 (at node 13)
Accepted flit rate average= 0.0980625
	minimum = 0.081 (at node 3)
	maximum = 0.115 (at node 1)
Injected packet length average = 1
Accepted packet length average = 1
Total in-flight flits = 29 (0 measured)
latency change    = 1
throughput change = 1
Class 0:
Packet latency average = 19.7062
	minimum = 7
	maximum = 45
Network latency average = 19.7062
	minimum = 7
	maximum = 45
Slowest packet = 133301
Flit latency average = 19.7062
	minimum = 7
	maximum = 45
Slowest flit = 133301
Fragmentation average = 0
	minimum = 0
	maximum = 0
Injected packet rate average = 0.100094
	minimum = 0.0885 (at node 0)
	maximum = 0.1115 (at node 11)
Accepted packet rate average = 0.0994375
	minimum = 0.087 (at node 7)
	maximum = 0.109 (at node 1)
Injected flit rate average = 0.100094
	minimum = 0.0885 (at node 0)
	maximum = 0.1115 (at node 11)
Accepted flit rate average= 0.0994375
	minimum = 0.087 (at node 7)
	maximum = 0.109 (at node 1)
Injected packet length average = 1
Accepted packet length average = 1
Total in-flight flits = 21 (0 measured)
latency change    = 0.0162995
throughput change = 0.0138278
Class 0:
Packet latency average = 19.9678
	minimum = 7
	maximum = 44
Network latency average = 19.9678
	minimum = 7
	maximum = 44
Slowest packet = 134418
Flit latency average = 19.9678
	minimum = 7
	maximum = 44
Slowest flit = 134418
Fragmentation average = 0
	minimum = 0
	maximum = 0
Injected packet rate average = 0.10375
	minimum = 0.089 (at node 14)
	maximum = 0.124 (at node 15)
Accepted packet rate average = 0.102813
	minimum = 0.085 (at node 11)
	maximum = 0.122 (at node 7)
Injected flit rate average = 0.10375
	minimum = 0.089 (at node 14)
	maximum = 0.124 (at node 15)
Accepted flit rate average= 0.102813
	minimum = 0.085 (at node 11)
	maximum = 0.122 (at node 7)
Injected packet length average = 1
Accepted packet length average = 1
Total in-flight flits = 36 (0 measured)
latency change    = 0.0131022
throughput change = 0.0328267
Warmed up ...Time used is 3000 cycles
Class 0:
Packet latency average = 20.0983
	minimum = 7
	maximum = 45
Network latency average = 20.0983
	minimum = 7
	maximum = 45
Slowest packet = 135459
Flit latency average = 20.1433
	minimum = 7
	maximum = 45
Slowest flit = 135459
Fragmentation average = 0
	minimum = 0
	maximum = 0
Injected packet rate average = 0.10225
	minimum = 0.083 (at node 15)
	maximum = 0.118 (at node 1)
Accepted packet rate average = 0.102063
	minimum = 0.086 (at node 12)
	maximum = 0.123 (at node 8)
Injected flit rate average = 0.10225
	minimum = 0.083 (at node 15)
	maximum = 0.118 (at node 1)
Accepted flit rate average= 0.102063
	minimum = 0.086 (at node 12)
	maximum = 0.123 (at node 8)
Injected packet length average = 1
Accepted packet length average = 1
Total in-flight flits = 39 (39 measured)
latency change    = 0.00649449
throughput change = 0.00734844
Class 0:
Packet latency average = 19.935
	minimum = 7
	maximum = 45
Network latency average = 19.935
	minimum = 7
	maximum = 45
Slowest packet = 135459
Flit latency average = 19.9596
	minimum = 7
	maximum = 45
Slowest flit = 135459
Fragmentation average = 0
	minimum = 0
	maximum = 0
Injected packet rate average = 0.100531
	minimum = 0.0875 (at node 8)
	maximum = 0.1215 (at node 6)
Accepted packet rate average = 0.100625
	minimum = 0.085 (at node 12)
	maximum = 0.114 (at node 13)
Injected flit rate average = 0.100531
	minimum = 0.0875 (at node 8)
	maximum = 0.1215 (at node 6)
Accepted flit rate average= 0.100625
	minimum = 0.085 (at node 12)
	maximum = 0.114 (at node 13)
Injected packet length average = 1
Accepted packet length average = 1
Total in-flight flits = 33 (33 measured)
latency change    = 0.00819273
throughput change = 0.0142857
Class 0:
Packet latency average = 19.8744
	minimum = 7
	maximum = 45
Network latency average = 19.8735
	minimum = 7
	maximum = 45
Slowest packet = 135459
Flit latency average = 19.8905
	minimum = 7
	maximum = 45
Slowest flit = 135459
Fragmentation average = 0
	minimum = 0
	maximum = 0
Injected packet rate average = 0.100083
	minimum = 0.0903333 (at node 8)
	maximum = 0.111333 (at node 6)
Accepted packet rate average = 0.10025
	minimum = 0.092 (at node 12)
	maximum = 0.111667 (at node 13)
Injected flit rate average = 0.100083
	minimum = 0.0903333 (at node 8)
	maximum = 0.111333 (at node 6)
Accepted flit rate average= 0.10025
	minimum = 0.092 (at node 12)
	maximum = 0.111667 (at node 13)
Injected packet length average = 1
Accepted packet length average = 1
Total in-flight flits = 28 (28 measured)
latency change    = 0.00304994
throughput change = 0.00374065
Draining all recorded packets ...
Draining remaining packets ...
Time taken is 6055 cycles
Class 0:
Packet latency average = 19.8683
	minimum = 7
	maximum = 51
Network latency average = 19.8658
	minimum = 7
	maximum = 51
Slowest packet = 141220
Flit latency average = 19.8658
	minimum = 7
	maximum = 51
Slowest flit = 141220
Fragmentation average = 0
	minimum = 0
	maximum = 0
Injected packet rate average = 0.102563
	minimum = 0.086 (at node 15)
	maximum = 0.12 (at node 13)
Accepted packet rate average = 0.101062
	minimum = 0.08 (at node 7)
	maximum = 0.116 (at node 10)
Injected flit rate average = 0.102563
	minimum = 0.086 (at node 15)
	maximum = 0.12 (at node 13)
Accepted flit rate average= 0.101062
	minimum = 0.08 (at node 7)
	maximum = 0.116 (at node 10)
Injected packet length average = 1
Accepted packet length average = 1
Total in-flight flits = 24 (0 measured)
latency change    = 1
throughput change = 1
Class 0:
Packet latency average = 19.8349
	minimum = 7
	maximum = 51
Network latency average = 19.8334
	minimum = 7
	maximum = 51
Slowest packet = 141220
Flit latency average = 19.8334
	minimum = 7
	maximum = 51
Slowest flit = 141220
Fragmentation average = 0
	minimum = 0
	maximum = 0
Injected packet rate average = 0.101688
	minimum = 0.092 (at node 0)
	maximum = 0.1155 (at node 3)
Accepted packet rate average = 0.100719
	minimum = 0.08 (at node 8)
	maximum = 0.1155 (at node 10)
Injected flit rate average = 0.101688
	minimum = 0.092 (at node 0)
	maximum = 0.1155 (at node 3)
Accepted flit rate average= 0.100719
	minimum = 0.08 (at node 8)
	maximum = 0.1155 (at node 10)
Injected packet length average = 1
Accepted packet length average = 1
Total in-flight flits = 31 (0 measured)
latency change    = 0.00168078
throughput change = 0.00341297
Class 0:
Packet latency average = 20.0783
	minimum = 7
	maximum = 42
Network latency average = 20.0783
	minimum = 7
	maximum = 42
Slowest packet = 143756
Flit latency average = 20.0783
	minimum = 7
	maximum = 42
Slowest flit = 143756
Fragmentation average = 0
	minimum = 0
	maximum = 0
Injected packet rate average = 0.09825
	minimum = 0.085 (at node 6)
	maximum = 0.112 (at node 12)
Accepted packet rate average = 0.0981875
	minimum = 0.082 (at node 6)
	maximum = 0.113 (at node 13)
Injected flit rate average = 0.09825
	minimum = 0.085 (at node 6)
	maximum = 0.112 (at node 12)
Accepted flit rate average= 0.0981875
	minimum = 0.082 (at node 6)
	maximum = 0.113 (at node 13)
Injected packet length average = 1
Accepted packet length average = 1
Total in-flight flits = 32 (0 measured)
latency change    = 0.0121204
throughput change = 0.0257798
Warmed up ...Time used is 3000 cycles
Class 0:
Packet latency average = 19.8526
	minimum = 7
	maximum = 44
Network latency average = 19.8526
	minimum = 7
	maximum = 44
Slowest packet = 145745
Flit latency average = 19.8851
	minimum = 7
	maximum = 44
Slowest flit = 145745
Fragmentation average = 0
	minimum = 0
	maximum = 0
Injected packet rate average = 0.100562
	minimum = 0.078 (at node 11)
	maximum = 0.124 (at node 5)
Accepted packet rate average = 0.101187
	minimum = 0.081 (at node 9)
	maximum = 0.114 (at node 12)
Injected flit rate average = 0.100562
	minimum = 0.078 (at node 11)
	maximum = 0.124 (at node 5)
Accepted flit rate average= 0.101187
	minimum = 0.081 (at node 9)
	maximum = 0.114 (at node 12)
Injected packet length average = 1
Accepted packet length average = 1
Total in-flight flits = 22 (22 measured)
latency change    = 0.0113709
throughput change = 0.0296479
Class 0:
Packet latency average = 19.8569
	minimum = 7
	maximum = 44
Network latency average = 19.8562
	minimum = 7
	maximum = 44
Slowest packet = 145745
Flit latency average = 19.8727
	minimum = 7
	maximum = 44
Slowest flit = 145745
Fragmentation average = 0
	minimum = 0
	maximum = 0
Injected packet rate average = 0.100187
	minimum = 0.0885 (at node 2)
	maximum = 0.111 (at node 5)
Accepted packet rate average = 0.100125
	minimum = 0.0855 (at node 9)
	maximum = 0.1115 (at node 12)
[...]
	minimum = 0.093 (at node 12)
	maximum = 0.121 (at node 3)
Accepted packet rate average = 0.102188
	minimum = 0.082 (at node 6)
	maximum = 0.114 (at node 10)
Injected flit rate average = 0.102188
	minimum = 0.093 (at node 12)
	maximum = 0.121 (at node 3)
Accepted flit rate average= 0.102188
	minimum = 0.082 (at node 6)
	maximum = 0.114 (at node 10)
Injected packet length average = 1
Accepted packet length average = 1
Total in-flight flits = 34 (0 measured)
latency change    = 0.00748554
throughput change = 0.0318043
Warmed up ...Time used is 3000 cycles
Class 0:
Packet latency average = 19.7488
	minimum = 7
	maximum = 46
Network latency average = 19.7475
	minimum = 7
	maximum = 46
Slowest packet = 947280
Flit latency average = 19.8144
	minimum = 7
	maximum = 46
Slowest flit = 947280
Fragmentation average = 0
	minimum = 0
	maximum = 0
Injected packet rate average = 0.102625
	minimum = 0.083 (at node 1)
	maximum = 0.125 (at node 3)
Accepted packet rate average = 0.103375
	minimum = 0.087 (at node 0)
	maximum = 0.128 (at node 6)
Injected flit rate average = 0.102625
	minimum = 0.083 (at node 1)
	maximum = 0.125 (at node 3)
Accepted flit rate average= 0.103375
	minimum = 0.087 (at node 0)
	maximum = 0.128 (at node 6)
Injected packet length average = 1
Accepted packet length average = 1
Total in-flight flits = 22 (22 measured)
latency change    = 0.0131241
throughput change = 0.0114873
Class 0:
Packet latency average = 19.7169
	minimum = 7
	maximum = 46
Network latency average = 19.7163
	minimum = 7
	maximum = 46
Slowest packet = 947280
Flit latency average = 19.7513
	minimum = 7
	maximum = 46
Slowest flit = 947280
Fragmentation average = 0
	minimum = 0
	maximum = 0
Injected packet rate average = 0.0996563
	minimum = 0.092 (at node 2)
	maximum = 0.1145 (at node 3)
Accepted packet rate average = 0.0995313
	minimum = 0.0875 (at node 11)
	maximum = 0.1095 (at node 9)
Injected flit rate average = 0.0996563
	minimum = 0.092 (at node 2)
	maximum = 0.1145 (at node 3)
Accepted flit rate average= 0.0995313
	minimum = 0.0875 (at node 11)
	maximum = 0.1095 (at node 9)
Injected packet length average = 1
Accepted packet length average = 1
Total in-flight flits = 38 (38 measured)
latency change    = 0.00161537
throughput change = 0.0386185
Class 0:
Packet latency average = 19.7336
	minimum = 7
	maximum = 46
Network latency average = 19.7332
	minimum = 7
	maximum = 46
Slowest packet = 947280
Flit latency average = 19.7565
	minimum = 7
	maximum = 46
Slowest flit = 947280
Fragmentation average = 0
	minimum = 0
	maximum = 0
Injected packet rate average = 0.099375
	minimum = 0.0903333 (at node 2)
	maximum = 0.107667 (at node 3)
Accepted packet rate average = 0.0993125
	minimum = 0.0946667 (at node 0)
	maximum = 0.104667 (at node 9)
Injected flit rate average = 0.099375
	minimum = 0.0903333 (at node 2)
	maximum = 0.107667 (at node 3)
Accepted flit rate average= 0.0993125
	minimum = 0.0946667 (at node 0)
	maximum = 0.104667 (at node 9)
Injected packet length average = 1
Accepted packet length average = 1
Total in-flight flits = 37 (37 measured)
latency change    = 0.000844121
throughput change = 0.00220264
Draining all recorded packets ...
Draining remaining packets ...
Time taken is 6071 cycles
Class 0:
Packet latency average = 19.678
	minimum = 7
	maximum = 44
Network latency average = 19.6754
	minimum = 7
	maximum = 44
Slowest packet = 952334
Flit latency average = 19.6754
	minimum = 7
	maximum = 44
Slowest flit = 952334
Fragmentation average = 0
	minimum = 0
	maximum = 0
Injected packet rate average = 0.09725
	minimum = 0.079 (at node 5)
	maximum = 0.118 (at node 15)
Accepted packet rate average = 0.0955
	minimum = 0.074 (at node 10)
	maximum = 0.113 (at node 7)
Injected flit rate average = 0.09725
	minimum = 0.079 (at node 5)
	maximum = 0.118 (at node 15)
Accepted flit rate average= 0.0955
	minimum = 0.074 (at node 10)
	maximum = 0.113 (at node 7)
Injected packet length average = 1
Accepted packet length average = 1
Total in-flight flits = 28 (0 measured)
latency change    = 1
throughput change = 1
Class 0:
Packet latency average = 19.7965
	minimum = 7
	maximum = 47
Network latency average = 19.7936
	minimum = 7
	maximum = 47
Slowest packet = 953095
Flit latency average = 19.7936
	minimum = 7
	maximum = 47
Slowest flit = 953095
Fragmentation average = 0
	minimum = 0
	maximum = 0
Injected packet rate average = 0.100031
	minimum = 0.0925 (at node 9)
	maximum = 0.1115 (at node 13)
Accepted packet rate average = 0.098875
	minimum = 0.089 (at node 10)
	maximum = 0.119 (at node 1)
Injected flit rate average = 0.100031
	minimum = 0.0925 (at node 9)
	maximum = 0.1115 (at node 13)
Accepted flit rate average= 0.098875
	minimum = 0.089 (at node 10)
	maximum = 0.119 (at node 1)
Injected packet length average = 1
Accepted packet length average = 1
Total in-flight flits = 37 (0 measured)
latency change    = 0.00598338
throughput change = 0.034134
Class 0:
Packet latency average = 20.0742
	minimum = 7
	maximum = 51
Network latency average = 20.073
	minimum = 7
	maximum = 51
Slowest packet = 955485
Flit latency average = 20.073
	minimum = 7
	maximum = 51
Slowest flit = 955485
Fragmentation average = 0
	minimum = 0
	maximum = 0
Injected packet rate average = 0.10025
	minimum = 0.086 (at node 13)
	maximum = 0.114 (at node 11)
Accepted packet rate average = 0.100187
	minimum = 0.087 (at node 4)
	maximum = 0.114 (at node 0)
Injected flit rate average = 0.10025
	minimum = 0.086 (at node 13)
	maximum = 0.114 (at node 11)
Accepted flit rate average= 0.100187
	minimum = 0.087 (at node 4)
	maximum = 0.114 (at node 0)
Injected packet length average = 1
Accepted packet length average = 1
Total in-flight flits = 38 (0 measured)
latency change    = 0.0138374
throughput change = 0.0131004
Warmed up ...Time used is 3000 cycles
Class 0:
Packet latency average = 19.5667
	minimum = 7
	maximum = 42
Network latency average = 19.5667
	minimum = 7
	maximum = 42
Slowest packet = 956850
Flit latency average = 19.6501
	minimum = 7
	maximum = 42
Slowest flit = 956850
Fragmentation average = 0
	minimum = 0
	maximum = 0
Injected packet rate average = 0.099125
	minimum = 0.083 (at node 2)
	maximum = 0.127 (at node 0)
Accepted packet rate average = 0.0993125
	minimum = 0.086 (at node 11)
	maximum = 0.12 (at node 4)
Injected flit rate average = 0.099125
	minimum = 0.083 (at node 2)
	maximum = 0.127 (at node 0)
Accepted flit rate average= 0.0993125
	minimum = 0.086 (at node 11)
	maximum = 0.12 (at node 4)
Injected packet length average = 1
Accepted packet length average = 1
Total in-flight flits = 35 (35 measured)
latency change    = 0.0259371
throughput change = 0.00881057
Class 0:
Packet latency average = 19.8308
	minimum = 7
	maximum = 49
Network latency average = 19.8305
	minimum = 7
	maximum = 49
Slowest packet = 957518
Flit latency average = 19.8683
	minimum = 7
	maximum = 49
Slowest flit = 957518
Fragmentation average = 0
	minimum = 0
	maximum = 0
Injected packet rate average = 0.101344
	minimum = 0.0905 (at node 2)
	maximum = 0.1185 (at node 0)
Accepted packet rate average = 0.101312
	minimum = 0.09 (at node 11)
	maximum = 0.1145 (at node 14)
Injected flit rate average = 0.101344
	minimum = 0.0905 (at node 2)
	maximum = 0.1185 (at node 0)
Accepted flit rate average= 0.101312
	minimum = 0.09 (at node 11)
	maximum = 0.1145 (at node 14)
Injected packet length average = 1
Accepted packet length average = 1
Total in-flight flits = 39 (39 measured)
latency change    = 0.0133179
throughput change = 0.0197409
Class 0:
Packet latency average = 19.7746
	minimum = 7
	maximum = 49
Network latency average = 19.7731
	minimum = 7
	maximum = 49
Slowest packet = 957518
Flit latency average = 19.799
	minimum = 7
	maximum = 49
Slowest flit = 957518
Fragmentation average = 0
	minimum = 0
	maximum = 0
Injected packet rate average = 0.100437
	minimum = 0.0906667 (at node 10)
	maximum = 0.113667 (at node 0)
Accepted packet rate average = 0.100521
	minimum = 0.0933333 (at node 11)
	maximum = 0.11 (at node 14)
Injected flit rate average = 0.100437
	minimum = 0.0906667 (at node 10)
	maximum = 0.113667 (at node 0)
Accepted flit rate average= 0.100521
	minimum = 0.0933333 (at node 11)
	maximum = 0.11 (at node 14)
Injected packet length average = 1
Accepted packet length average = 1
Total in-flight flits = 34 (34 measured)
latency change    = 0.00284398
throughput change = 0.00787565
Draining all recorded packets ...
Draining remaining packets ...
Time taken is 6060 cycles
Class 0:
Packet latency average = 19.8584
	minimum = 7
	maximum = 51
Network latency average = 19.8578
	minimum = 7
	maximum = 51
Slowest packet = 960845
Flit latency average = 19.8578
	minimum = 7
	maximum = 51
Slowest flit = 960845
Fragmentation average = 0
	minimum = 0
	maximum = 0
Injected packet rate average = 0.100125
	minimum = 0.085 (at node 3)
	maximum = 0.114 (at node 10)
Accepted packet rate average = 0.098
	minimum = 0.081 (at node 3)
	maximum = 0.121 (at node 13)
Injected flit rate average = 0.100125
	minimum = 0.085 (at node 3)
	maximum = 0.114 (at node 10)
Accepted flit rate average= 0.098
	minimum = 0.081 (at node 3)
	maximum = 0.121 (at node 13)
Injected packet length average = 1
Accepted packet length average = 1
Total in-flight flits = 34 (0 measured)
latency change    = 1
throughput change = 1
Class 0:
Packet latency average = 19.7326
	minimum = 7
	maximum = 51
Network latency average = 19.7323
	minimum = 7
	maximum = 51
Slowest packet = 960845
Flit latency average = 19.7323
	minimum = 7
	maximum = 51
Slowest flit = 960845
Fragmentation average = 0
	minimum = 0
	maximum = 0
Injected packet rate average = 0.0970312
	minimum = 0.084 (at node 3)
	maximum = 0.108 (at node 11)
Accepted packet rate average = 0.0960625
	minimum = 0.0765 (at node 1)
	maximum = 0.109 (at node 13)
Injected flit rate average = 0.0970312
	minimum = 0.084 (at node 3)
	maximum = 0.108 (at node 11)
Accepted flit rate average= 0.0960625
	minimum = 0.0765 (at node 1)
	maximum = 0.109 (at node 13)
Injected packet length average = 1
Accepted packet length average = 1
Total in-flight flits = 31 (0 measured)
latency change    = 0.00637637
throughput change = 0.0201692
Class 0:
Packet latency average = 19.6111
	minimum = 7
	maximum = 41
Network latency average = 19.6111
	minimum = 7
	maximum = 41
Slowest packet = 964532
Flit latency average = 19.6111
	minimum = 7
	maximum = 41
Slowest flit = 964532
Fragmentation average = 0
	minimum = 0
	maximum = 0
Injected packet rate average = 0.099375
	minimum = 0.089 (at node 0)
	maximum = 0.128 (at node 9)
Accepted packet rate average = 0.0993125
	minimum = 0.076 (at node 15)
	maximum = 0.113 (at node 8)
Injected flit rate average = 0.099375
	minimum = 0.089 (at node 0)
	maximum = 0.128 (at node 9)
Accepted flit rate average= 0.0993125
	minimum = 0.076 (at node 15)
	maximum = 0.113 (at node 8)
Injected packet length average = 1
Accepted packet length average = 1
Total in-flight flits = 32 (0 measured)
latency change    = 0.00619649
throughput change = 0.032725
Warmed up ...Time used is 3000 cycles
Class 0:
Packet latency average = 20.0841
	minimum = 7
	maximum = 58
Network latency average = 20.0835
	minimum = 7
	maximum = 58
Slowest packet = 965571
Flit latency average = 20.142
	minimum = 7
	maximum = 58
Slowest flit = 965571
Fragmentation average = 0
	minimum = 0
	maximum = 0
Injected packet rate average = 0.0986875
	minimum = 0.084 (at node 10)
	maximum = 0.115 (at node 3)
Accepted packet rate average = 0.0985625
	minimum = 0.084 (at node 8)
	maximum = 0.11 (at node 0)
Injected flit rate average = 0.0986875
	minimum = 0.084 (at node 10)
	maximum = 0.115 (at node 3)
Accepted flit rate average= 0.0985625
	minimum = 0.084 (at node 8)
	maximum = 0.11 (at node 0)
Injected packet length average = 1
Accepted packet length average = 1
Total in-flight flits = 34 (34 measured)
latency change    = 0.0235542
throughput change = 0.00760938
Class 0:
Packet latency average = 20.2613
	minimum = 7
	maximum = 58
Network latency average = 20.259
	minimum = 7
	maximum = 58
Slowest packet = 965571
Flit latency average = 20.2863
	minimum = 7
	maximum = 58
Slowest flit = 965571
Fragmentation average = 0
	minimum = 0
	maximum = 0
Injected packet rate average = 0.099375
	minimum = 0.0815 (at node 6)
	maximum = 0.1165 (at node 3)
Accepted packet rate average = 0.0995625
	minimum = 0.093 (at node 1)
	maximum = 0.1085 (at node 0)
Injected flit rate average = 0.099375
	minimum = 0.0815 (at node 6)
	maximum = 0.1165 (at node 3)
Accepted flit rate average= 0.0995625
	minimum = 0.093 (at node 1)
	maximum = 0.1085 (at node 0)
Injected packet length average = 1
Accepted packet length average = 1
Total in-flight flits = 26 (26 measured)
latency change    = 0.00874147
throughput change = 0.0100439
Class 0:
Packet latency average = 20.0169
	minimum = 7
	maximum = 58
Network latency average = 20.0154
	minimum = 7
	maximum = 58
Slowest packet = 965571
Flit latency average = 20.035
	minimum = 7
	maximum = 58
Slowest flit = 965571
Fragmentation average = 0
	minimum = 0
	maximum = 0
Injected packet rate average = 0.100604
	minimum = 0.09 (at node 6)
	maximum = 0.117333 (at node 3)
Accepted packet rate average = 0.100583
	minimum = 0.0936667 (at node 4)
	maximum = 0.109 (at node 5)
Injected flit rate average = 0.100604
	minimum = 0.09 (at node 6)
	maximum = 0.117333 (at node 3)
Accepted flit rate average= 0.100583
	minimum = 0.0936667 (at node 4)
	maximum = 0.109 (at node 5)
Injected packet length average = 1
Accepted packet length average = 1
Total in-flight flits = 33 (33 measured)
latency change    = 0.012208
throughput change = 0.0101491
Draining all recorded packets ...
Draining remaining packets ...
Time taken is 6061 cycles
Class 0:
Packet latency average = 19.566
	minimum = 7
	maximum = 40
Network latency average = 19.5647
	minimum = 7
	maximum = 40
Slowest packet = 970879
Flit latency average = 19.5647
	minimum = 7
	maximum = 40
Slowest flit = 970879
Fragmentation average = 0
	minimum = 0
	maximum = 0
Injected packet rate average = 0.0940625
	minimum = 0.08 (at node 11)
	maximum = 0.111 (at node 8)
Accepted packet rate average = 0.09275
	minimum = 0.081 (at node 0)
	maximum = 0.115 (at node 12)
Injected flit rate average = 0.0940625
	minimum = 0.08 (at node 11)
	maximum = 0.111 (at node 8)
Accepted flit rate average= 0.09275
	minimum = 0.081 (at node 0)
	maximum = 0.115 (at node 12)
Injected packet length average = 1
Accepted packet length average = 1
Total in-flight flits = 21 (0 measured)
latency change    = 1
throughput change = 1
Class 0:
Packet latency average = 19.6116
	minimum = 7
	maximum = 45
Network latency average = 19.6103
	minimum = 7
	maximum = 45
Slowest packet = 971962
Flit latency average = 19.6103
	minimum = 7
	maximum = 45
Slowest flit = 971962
Fragmentation average = 0
	minimum = 0
	maximum = 0
Injected packet rate average = 0.0957812
	minimum = 0.0885 (at node 11)
	maximum = 0.105 (at node 3)
Accepted packet rate average = 0.0947812
	minimum = 0.0755 (at node 9)
	maximum = 0.1145 (at node 12)
Injected flit rate average = 0.0957812
	minimum = 0.0885 (at node 11)
	maximum = 0.105 (at node 3)
Accepted flit rate average= 0.0947812
	minimum = 0.0755 (at node 9)
	maximum = 0.1145 (at node 12)
Injected packet length average = 1
Accepted packet length average = 1
Total in-flight flits = 32 (0 measured)
latency change    = 0.00232352
throughput change = 0.0214309
Class 0:
Packet latency average = 19.9096
	minimum = 7
	maximum = 46
Network latency average = 19.9096
	minimum = 7
	maximum = 46
Slowest packet = 974374
Flit latency average = 19.9096
	minimum = 7
	maximum = 46
Slowest flit = 974374
Fragmentation average = 0
	minimum = 0
	maximum = 0
Injected packet rate average = 0.100375
	minimum = 0.092 (at node 5)
	maximum = 0.114 (at node 2)
Accepted packet rate average = 0.10025
	minimum = 0.085 (at node 11)
	maximum = 0.119 (at node 14)
Injected flit rate average = 0.100375
	minimum = 0.092 (at node 5)
	maximum = 0.114 (at node 2)
Accepted flit rate average= 0.10025
	minimum = 0.085 (at node 11)
	maximum = 0.119 (at node 14)
Injected packet length average = 1
Accepted packet length average = 1
Total in-flight flits = 34 (0 measured)
latency change    = 0.0149674
throughput change = 0.0545511
Warmed up ...Time used is 3000 cycles
Class 0:
Packet latency average = 19.6172
	minimum = 7
	maximum = 49
Network latency average = 19.6172
	minimum = 7
	maximum = 49
Slowest packet = 975947
Flit latency average = 19.6827
	minimum = 7
	maximum = 49
Slowest flit = 975947
Fragmentation average = 0
	minimum = 0
	maximum = 0
Injected packet rate average = 0.100062
	minimum = 0.087 (at node 3)
	maximum = 0.112 (at node 14)
Accepted packet rate average = 0.10025
	minimum = 0.077 (at node 5)
	maximum = 0.119 (at node 14)
Injected flit rate average = 0.100062
	minimum = 0.087 (at node 3)
	maximum = 0.112 (at node 14)
Accepted flit rate average= 0.10025
	minimum = 0.077 (at node 5)
	maximum = 0.119 (at node 14)
Injected packet length average = 1
Accepted packet length average = 1
Total in-flight flits = 31 (31 measured)
latency change    = 0.0149055
throughput change = 0
Class 0:
Packet latency average = 19.6663
	minimum = 7
	maximum = 49
Network latency average = 19.6657
	minimum = 7
	maximum = 49
Slowest packet = 975947
Flit latency average = 19.6986
	minimum = 7
	maximum = 49
Slowest flit = 975947
Fragmentation average = 0
	minimum = 0
	maximum = 0
Injected packet rate average = 0.0980625
	minimum = 0.084 (at node 3)
	maximum = 0.114 (at node 4)
Accepted packet rate average = 0.0982813
	minimum = 0.078 (at node 5)
	maximum = 0.112 (at node 15)
Injected flit rate average = 0.0980625
	minimum = 0.084 (at node 3)
	maximum = 0.114 (at node 4)
Accepted flit rate average= 0.0982813
	minimum = 0.078 (at node 5)
	maximum = 0.112 (at node 15)
Injected packet length average = 1
Accepted packet length average = 1
Total in-flight flits = 27 (27 measured)
latency change    = 0.00249908
throughput change = 0.0200318
Class 0:
Packet latency average = 19.6731
	minimum = 7
	maximum = 49
Network latency average = 19.6727
	minimum = 7
	maximum = 49
Slowest packet = 975947
Flit latency average = 19.6944
	minimum = 7
	maximum = 49
Slowest flit = 975947
Fragmentation average = 0
	minimum = 0
	maximum = 0
Injected packet rate average = 0.0988958
	minimum = 0.0903333 (at node 11)
	maximum = 0.110333 (at node 4)
Accepted packet rate average = 0.0989792
	minimum = 0.087 (at node 5)
	maximum = 0.108 (at node 15)
Injected flit rate average = 0.0988958
	minimum = 0.0903333 (at node 11)
	maximum = 0.110333 (at node 4)
Accepted flit rate average= 0.0989792
	minimum = 0.087 (at node 5)
	maximum = 0.108 (at node 15)
Injected packet length average = 1
Accepted packet length average = 1
Total in-flight flits = 30 (30 measured)
latency change    = 0.000343214
throughput change = 0.00705115
Draining all recorded packets ...
Draining remaining packets ...
Time taken is 6067 cycles
====== Overall Traffic Statistics ======
====== Traffic class 0 ======
Packet latency average = 19.8402 (100 samples)
	minimum = 7 (100 samples)
	maximum = 49.36 (100 samples)
Network latency average = 19.8394 (100 samples)
	minimum = 7 (100 samples)
	maximum = 49.33 (100 samples)
Flit latency average = 19.8536 (100 samples)
	minimum = 7 (100 samples)
	maximum = 49.4 (100 samples)
Fragmentation average = 0 (100 samples)
	minimum = 0 (100 samples)
	maximum = 0 (100 samples)
Injected packet rate average = 0.100092 (100 samples)
	minimum = 0.09074 (100 samples)
	maximum = 0.11022 (100 samples)
Accepted packet rate average = 0.100126 (100 samples)
	minimum = 0.0907467 (100 samples)
	maximum = 0.110072 (100 samples)
Injected flit rate average = 0.100092 (100 samples)
	minimum = 0.09074 (100 samples)
	maximum = 0.11022 (100 samples)
Accepted flit rate average = 0.100126 (100 samples)
	minimum = 0.0907467 (100 samples)
	maximum = 0.110072 (100 samples)
Injected packet size average = 1 (100 samples)
Accepted packet size average = 1 (100 samples)
Hops average = 3.50498 (100 samples)
Total run time 11.2537
