BEGIN Configuration File: /tmp/bs_1137237_613664.cfg
topology = mesh;
k = 4;
n = 2;
routing_function = gnn_ppo_route_4x4;
num_vcs = 4;
vc_buf_size = 4;
wait_for_tail_credit = 1;
vc_allocator = islip;
sw_allocator = islip;
alloc_iters = 1;
credit_delay = 2;
routing_delay = 1;
vc_alloc_delay = 1;
sw_alloc_delay = 1;
input_speedup = 2;
output_speedup = 1;
internal_speedup = 1.0;
traffic = hotspot;
packet_size = 1;
sim_type = latency;
injection_rate = 0.01;
warmup_periods = 3;
sample_period = 1000;
sim_count = 100;
seed = 1;

END Configuration File: /tmp/bs_1137237_613664.cfg
Class 0:
Packet latency average = 19.6964
	minimum = 7
	maximum = 33
Network latency average = 19.6964
	minimum = 7
	maximum = 33
Slowest packet = 75
Flit latency average = 19.6964
	minimum = 7
	maximum = 33
Slowest flit = 75
Fragmentation average = 0
	minimum = 0
	maximum = 0
Injected packet rate average = 0.0108125
	minimum = 0.006 (at node 2)
	maximum = 0.019 (at node 7)
Accepted packet rate average = 0.0105
	minimum = 0 (at node 0)
	maximum = 0.168 (at node 11)
Injected flit rate average = 0.0108125
	minimum = 0.006 (at node 2)
	maximum = 0.019 (at node 7)
Accepted flit rate average= 0.0105
	minimum = 0 (at node 0)
	maximum = 0.168 (at node 11)
Injected packet length average = 1
Accepted packet length average = 1
Total in-flight flits = 5 (0 measured)
latency change    = 1
throughput change = 1
Class 0:
Packet latency average = 19.9943
	minimum = 7
	maximum = 33
Network latency average = 19.9943
	minimum = 7
	maximum = 33
Slowest packet = 75
Flit latency average = 19.9943
	minimum = 7
	maximum = 33
Slowest flit = 75
Fragmentation average = 0
	minimum = 0
	maximum = 0
Injected packet rate average = 0.0110312
	minimum = 0.0065 (at node 2)
	maximum = 0.014 (at node 7)
Accepted packet rate average = 0.010875
	minimum = 0 (at node 0)
	maximum = 0.174 (at node 11)
Injected flit rate average = 0.0110312
	minimum = 0.0065 (at node 2)
	maximum = 0.014 (at node 7)
Accepted flit rate average= 0.010875
	minimum = 0 (at node 0)
	maximum = 0.174 (at node 11)
Injected packet length average = 1
Accepted packet length average = 1
Total in-flight flits = 5 (0 measured)
latency change    = 0.0148955
throughput change = 0.0344828
Class 0:
Packet latency average = 19.9136
	minimum = 7
	maximum = 32
Network latency average = 19.9136
	minimum = 7
	maximum = 32
Slowest packet = 361
Flit latency average = 19.9136
	minimum = 7
	maximum = 32
Slowest flit = 361
Fragmentation average = 0
	minimum = 0
	maximum = 0
Injected packet rate average = 0.0100625
	minimum = 0.004 (at node 7)
	maximum = 0.018 (at node 14)
Accepted packet rate average = 0.010125
	minimum = 0 (at node 0)
	maximum = 0.162 (at node 11)
Injected flit rate average = 0.0100625
	minimum = 0.004 (at node 7)
	maximum = 0.018 (at node 14)
Accepted flit rate average= 0.010125
	minimum = 0 (at node 0)
	maximum = 0.162 (at node 11)
Injected packet length average = 1
Accepted packet length average = 1
Total in-flight flits = 4 (0 measured)
latency change    = 0.00405114
throughput change = 0.0740741
Warmed up ...Time used is 3000 cycles
Class 0:
Packet latency average = 19.2349
	minimum = 7
	maximum = 33
Network latency average = 19.2349
	minimum = 7
	maximum = 33
Slowest packet = 650
Flit latency average = 19.3399
	minimum = 7
	maximum = 33
Slowest flit = 650
Fragmentation average = 0
	minimum = 0
	maximum = 0
Injected packet rate average = 0.009375
	minimum = 0.006 (at node 0)
	maximum = 0.012 (at node 2)
Accepted packet rate average = 0.0095625
	minimum = 0 (at node 0)
	maximum = 0.153 (at node 11)
Injected flit rate average = 0.009375
	minimum = 0.006 (at node 0)
	maximum = 0.012 (at node 2)
Accepted flit rate average= 0.0095625
	minimum = 0 (at node 0)
	maximum = 0.153 (at node 11)
Injected packet length average = 1
Accepted packet length average = 1
Total in-flight flits = 1 (1 measured)
latency change    = 0.0352838
throughput change = 0.0588235
Class 0:
Packet latency average = 19.8667
	minimum = 7
	maximum = 33
Network latency average = 19.8667
	minimum = 7
	maximum = 33
Slowest packet = 650
Flit latency average = 19.9091
	minimum = 7
	maximum = 33
Slowest flit = 650
Fragmentation average = 0
	minimum = 0
	maximum = 0
Injected packet rate average = 0.00996875
	minimum = 0.007 (at node 10)
	maximum = 0.013 (at node 1)
Accepted packet rate average = 0.00996875
	minimum = 0 (at node 0)
	maximum = 0.1595 (at node 11)
Injected flit rate average = 0.00996875
	minimum = 0.007 (at node 10)
	maximum = 0.013 (at node 1)
Accepted flit rate average= 0.00996875
	minimum = 0 (at node 0)
	maximum = 0.1595 (at node 11)
Injected packet length average = 1
Accepted packet length average = 1
Total in-flight flits = 4 (4 measured)
latency change    = 0.0318004
throughput change = 0.0407524
Class 0:
Packet latency average = 19.8293
	minimum = 7
	maximum = 33
Network latency average = 19.8293
	minimum = 7
	maximum = 33
Slowest packet = 650
Flit latency average = 19.8593
	minimum = 7
	maximum = 33
Slowest flit = 650
Fragmentation average = 0
	minimum = 0
	maximum = 0
Injected packet rate average = 0.0095625
	minimum = 0.006 (at node 13)
	maximum = 0.0123333 (at node 2)
Accepted packet rate average = 0.00947917
	minimum = 0 (at node 0)
	maximum = 0.151667 (at node 11)
Injected flit rate average = 0.0095625
	minimum = 0.006 (at node 13)
	maximum = 0.0123333 (at node 2)
Accepted flit rate average= 0.00947917
	minimum = 0 (at node 0)
	maximum = 0.151667 (at node 11)
Injected packet length average = 1
Accepted packet length average = 1
Total in-flight flits = 8 (8 measured)
latency change    = 0.00188602
throughput change = 0.0516484
Class 0:
Packet latency average = 19.452
	minimum = 7
	maximum = 33
Network latency average = 19.452
	minimum = 7
	maximum = 33
Slowest packet = 650
Flit latency average = 19.477
	minimum = 7
	maximum = 33
Slowest flit = 650
Fragmentation average = 0
	minimum = 0
	maximum = 0
Injected packet rate average = 0.00948437
	minimum = 0.00725 (at node 13)
	maximum = 0.01175 (at node 2)
Accepted packet rate average = 0.0095
	minimum = 0 (at node 0)
	maximum = 0.152 (at node 11)
Injected flit rate average = 0.00948437
	minimum = 0.00725 (at node 13)
	maximum = 0.01175 (at node 2)
Accepted flit rate average= 0.0095
	minimum = 0 (at node 0)
	maximum = 0.152 (at node 11)
Injected packet length average = 1
Accepted packet length average = 1
Total in-flight flits = 3 (3 measured)
latency change    = 0.0193955
throughput change = 0.00219298
Class 0:
Packet latency average = 19.5899
	minimum = 7
	maximum = 35
Network latency average = 19.5899
	minimum = 7
	maximum = 35
Slowest packet = 1215
Flit latency average = 19.6088
	minimum = 7
	maximum = 35
Slowest flit = 1215
Fragmentation average = 0
	minimum = 0
	maximum = 0
Injected packet rate average = 0.0097
	minimum = 0.0084 (at node 1)
	maximum = 0.0118 (at node 4)
Accepted packet rate average = 0.0097125
	minimum = 0 (at node 0)
	maximum = 0.1554 (at node 11)
Injected flit rate average = 0.0097
	minimum = 0.0084 (at node 1)
	maximum = 0.0118 (at node 4)
Accepted flit rate average= 0.0097125
	minimum = 0 (at node 0)
	maximum = 0.1554 (at node 11)
Injected packet length average = 1
Accepted packet length average = 1
Total in-flight flits = 3 (3 measured)
latency change    = 0.0070405
throughput change = 0.021879
Class 0:
Packet latency average = 19.5325
	minimum = 7
	maximum = 36
Network latency average = 19.5325
	minimum = 7
	maximum = 36
Slowest packet = 1361
Flit latency average = 19.5483
	minimum = 7
	maximum = 36
Slowest flit = 1361
Fragmentation average = 0
	minimum = 0
	maximum = 0
Injected packet rate average = 0.00978125
	minimum = 0.00833333 (at node 1)
	maximum = 0.0116667 (at node 4)
Accepted packet rate average = 0.00982292
	minimum = 0 (at node 0)
	maximum = 0.157167 (at node 11)
Injected flit rate average = 0.00978125
	minimum = 0.00833333 (at node 1)
	maximum = 0.0116667 (at node 4)
Accepted flit rate average= 0.00982292
	minimum = 0 (at node 0)
	maximum = 0.157167 (at node 11)
Injected packet length average = 1
Accepted packet length average = 1
Total in-flight flits = 0 (0 measured)
latency change    = 0.00294013
throughput change = 0.0112407
Draining all recorded packets ...
Draining remaining packets ...
Time taken is 9032 cycles
Class 0:
Packet latency average = 20.2595
	minimum = 7
	maximum = 32
Network latency average = 20.2595
	minimum = 7
	maximum = 32
Slowest packet = 1465
Flit latency average = 20.2595
	minimum = 7
	maximum = 32
Slowest flit = 1465
Fragmentation average = 0
	minimum = 0
	maximum = 0
Injected packet rate average = 0.01025
	minimum = 0.007 (at node 4)
	maximum = 0.017 (at node 14)
Accepted packet rate average = 0.009875
	minimum = 0 (at node 0)
	maximum = 0.158 (at node 11)
Injected flit rate average = 0.01025
	minimum = 0.007 (at node 4)
	maximum = 0.017 (at node 14)
Accepted flit rate average= 0.009875
	minimum = 0 (at node 0)
	maximum = 0.158 (at node 11)
Injected packet length average = 1
Accepted packet length average = 1
Total in-flight flits = 6 (0 measured)
latency change    = 1
throughput change = 1
Class 0:
Packet latency average = 19.5949
	minimum = 7
	maximum = 33
Network latency average = 19.5949
	minimum = 7
	maximum = 33
Slowest packet = 1626
Flit latency average = 19.5949
	minimum = 7
	maximum = 33
Slowest flit = 1626
Fragmentation average = 0
	minimum = 0
	maximum = 0
Injected packet rate average = 0.00990625
	minimum = 0.0055 (at node 8)
	maximum = 0.0145 (at node 14)
Accepted packet rate average = 0.009875
	minimum = 0 (at node 0)
	maximum = 0.158 (at node 11)
Injected flit rate average = 0.00990625
	minimum = 0.0055 (at node 8)
	maximum = 0.0145 (at node 14)
Accepted flit rate average= 0.009875
	minimum = 0 (at node 0)
	maximum = 0.158 (at node 11)
Injected packet length average = 1
Accepted packet length average = 1
Total in-flight flits = 1 (0 measured)
latency change    = 0.0339147
throughput change = 0
Class 0:
Packet latency average = 19.7559
	minimum = 7
	maximum = 34
Network latency average = 19.7559
	minimum = 7
	maximum = 34
Slowest packet = 1839
Flit latency average = 19.7559
	minimum = 7
	maximum = 34
Slowest flit = 1839
Fragmentation average = 0
	minimum = 0
	maximum = 0
Injected packet rate average = 0.0083125
	minimum = 0.005 (at node 3)
	maximum = 0.017 (at node 9)
Accepted packet rate average = 0.0079375
	minimum = 0 (at node 0)
	maximum = 0.127 (at node 11)
Injected flit rate average = 0.0083125
	minimum = 0.005 (at node 3)
	maximum = 0.017 (at node 9)
Accepted flit rate average= 0.0079375
	minimum = 0 (at node 0)
	maximum = 0.127 (at node 11)
Injected packet length average = 1
Accepted packet length average = 1
Total in-flight flits = 7 (0 measured)
latency change    = 0.00814788
throughput change = 0.244094
Warmed up ...Time used is 3000 cycles
Class 0:
Packet latency average = 19.1961
	minimum = 7
	maximum = 32
Network latency average = 19.1961
	minimum = 7
	maximum = 32
Slowest packet = 1983
Flit latency average = 19.425
	minimum = 7
	maximum = 32
Slowest flit = 1983
Fragmentation average = 0
	minimum = 0
	maximum = 0
Injected packet rate average = 0.01
	minimum = 0.004 (at node 0)
	maximum = 0.015 (at node 8)
Accepted packet rate average = 0.01
	minimum = 0 (at node 0)
	maximum = 0.16 (at node 11)
Injected flit rate average = 0.01
	minimum = 0.004 (at node 0)
	maximum = 0.015 (at node 8)
Accepted flit rate average= 0.01
	minimum = 0 (at node 0)
	maximum = 0.16 (at node 11)
Injected packet length average = 1
Accepted packet length average = 1
Total in-flight flits = 7 (7 measured)
latency change    = 0.0291636
throughput change = 0.20625
Class 0:
Packet latency average = 19.5017
	minimum = 7
	maximum = 34
Network latency average = 19.5017
	minimum = 7
	maximum = 34
Slowest packet = 2187
Flit latency average = 19.6174
	minimum = 7
	maximum = 34
Slowest flit = 2187
Fragmentation average = 0
	minimum = 0
	maximum = 0
Injected packet rate average = 0.00915625
	minimum = 0.006 (at node 0)
	maximum = 0.011 (at node 8)
Accepted packet rate average = 0.0093125
	minimum = 0 (at node 0)
	maximum = 0.149 (at node 11)
Injected flit rate average = 0.00915625
	minimum = 0.006 (at node 0)
	maximum = 0.011 (at node 8)
Accepted flit rate average= 0.0093125
	minimum = 0 (at node 0)
	maximum = 0.149 (at node 11)
Injected packet length average = 1
Accepted packet length average = 1
Total in-flight flits = 2 (2 measured)
latency change    = 0.0156725
throughput change = 0.0738255
Class 0:
Packet latency average = 19.5498
	minimum = 7
	maximum = 34
Network latency average = 19.5498
	minimum = 7
	maximum = 34
Slowest packet = 2187
Flit latency average = 19.6258
	minimum = 7
	maximum = 34
Slowest flit = 2187
Fragmentation average = 0
	minimum = 0
	maximum = 0
Injected packet rate average = 0.00933333
	minimum = 0.00733333 (at node 0)
	maximum = 0.012 (at node 8)
Accepted packet rate average = 0.00935417
	minimum = 0 (at node 0)
	maximum = 0.149667 (at node 11)
Injected flit rate average = 0.00933333
	minimum = 0.00733333 (at node 0)
	maximum = 0.012 (at node 8)
Accepted flit rate average= 0.00935417
	minimum = 0 (at node 0)
	maximum = 0.149667 (at node 11)
Injected packet length average = 1
Accepted packet length average = 1
Total in-flight flits = 6 (6 measured)
latency change    = 0.00245811
throughput change = 0.00445434
Class 0:
Packet latency average = 19.6265
	minimum = 7
	maximum = 34
Network latency average = 19.6265
	minimum = 7
	maximum = 34
Slowest packet = 2187
Flit latency average = 19.6821
	minimum = 7
	maximum = 34
Slowest flit = 2187
Fragmentation average = 0
	minimum = 0
	maximum = 0
Injected packet rate average = 0.00935937
	minimum = 0.00775 (at node 2)
	maximum = 0.01125 (at node 8)
Accepted packet rate average = 0.0094375
	minimum = 0 (at node 0)
	maximum = 0.151 (at node 11)
Injected flit rate average = 0.00935937
	minimum = 0.00775 (at node 2)
	maximum = 0.01125 (at node 8)
Accepted flit rate average= 0.0094375
	minimum = 0 (at node 0)
	maximum = 0.151 (at node 11)
Injected packet length average = 1
Accepted packet length average = 1
Total in-flight flits = 2 (2 measured)
latency change    = 0.00390758
throughput change = 0.00883002
Class 0:
Packet latency average = 19.4597
	minimum = 7
	maximum = 34
Network latency average = 19.4597
	minimum = 7
	maximum = 34
Slowest packet = 2187
Flit latency average = 19.5052
	minimum = 7
	maximum = 34
Slowest flit = 2187
Fragmentation average = 0
	minimum = 0
	maximum = 0
Injected packet rate average = 0.00955
	minimum = 0.0076 (at node 0)
	maximum = 0.0116 (at node 15)
Accepted packet rate average = 0.00955
	minimum = 0 (at node 0)
	maximum = 0.1528 (at node 11)
Injected flit rate average = 0.00955
	minimum = 0.0076 (at node 0)
	maximum = 0.0116 (at node 15)
Accepted flit rate average= 0.00955
	minimum = 0 (at node 0)
	maximum = 0.1528 (at node 11)
Injected packet length average = 1
Accepted packet length average = 1
Total in-flight flits = 7 (7 measured)
latency change    = 0.00856931
throughput change = 0.0117801
Draining all recorded packets ...
Draining remaining packets ...
Time taken is 8036 cycles
Class 0:
Packet latency average = 18.9806
	minimum = 7
	maximum = 33
Network latency average = 18.9806
	minimum = 7
	maximum = 33
Slowest packet = 2687
Flit latency average = 18.9806
	minimum = 7
	maximum = 33
Slowest flit = 2687
Fragmentation average = 0
	minimum = 0
	maximum = 0
Injected packet rate average = 0.0098125
	minimum = 0.006 (at node 3)
	maximum = 0.017 (at node 10)
Accepted packet rate average = 0.0096875
	minimum = 0 (at node 0)
	maximum = 0.155 (at node 11)
Injected flit rate average = 0.0098125
	minimum = 0.006 (at node 3)
	maximum = 0.017 (at node 10)
Accepted flit rate average= 0.0096875
	minimum = 0 (at node 0)
	maximum = 0.155 (at node 11)
Injected packet length average = 1
Accepted packet length average = 1
Total in-flight flits = 2 (0 measured)
latency change    = 1
throughput change = 1
Class 0:
Packet latency average = 19.2112
	minimum = 7
	maximum = 33
Network latency average = 19.2112
	minimum = 7
	maximum = 33
Slowest packet = 2687
Flit latency average = 19.2112
	minimum = 7
	maximum = 33
Slowest flit = 2687
Fragmentation average = 0
	minimum = 0
	maximum = 0
Injected packet rate average = 0.0101563
	minimum = 0.0065 (at node 1)
	maximum = 0.0135 (at node 14)
Accepted packet rate average = 0.0100625
	minimum = 0 (at node 0)
	maximum = 0.161 (at node 11)
Injected flit rate average = 0.0101563
	minimum = 0.0065 (at node 1)
	maximum = 0.0135 (at node 14)
Accepted flit rate average= 0.0100625
	minimum = 0 (at node 0)
	maximum = 0.161 (at node 11)
Injected packet length average = 1
Accepted packet length average = 1
Total in-flight flits = 3 (0 measured)
latency change    = 0.012
throughput change = 0.0372671
Class 0:
Packet latency average = 19.0663
	minimum = 7
	maximum = 33
Network latency average = 19.0663
	minimum = 7
	maximum = 33
Slowest packet = 3041
Flit latency average = 19.0663
	minimum = 7
	maximum = 33
Slowest flit = 3041
Fragmentation average = 0
	minimum = 0
	maximum = 0
Injected packet rate average = 0.0104375
	minimum = 0.003 (at node 3)
	maximum = 0.017 (at node 4)
Accepted packet rate average = 0.010375
	minimum = 0 (at node 0)
	maximum = 0.166 (at node 11)
Injected flit rate average = 0.0104375
	minimum = 0.003 (at node 3)
	maximum = 0.017 (at node 4)
Accepted flit rate average= 0.010375
	minimum = 0 (at node 0)
	maximum = 0.166 (at node 11)
Injected packet length average = 1
Accepted packet length average = 1
Total in-flight flits = 4 (0 measured)
latency change    = 0.0076006
throughput change = 0.0301205
Warmed up ...Time used is 3000 cycles
Class 0:
Packet latency average = 18.6525
	minimum = 7
	maximum = 32
Network latency average = 18.6525
	minimum = 7
	maximum = 32
Slowest packet = 3271
Flit latency average = 18.7793
	minimum = 7
	maximum = 32
Slowest flit = 3271
Fragmentation average = 0
	minimum = 0
	maximum = 0
Injected packet rate average = 0.009125
	minimum = 0.003 (at node 0)
	maximum = 0.013 (at node 11)
Accepted packet rate average = 0.0090625
	minimum = 0 (at node 0)
	maximum = 0.145 (at node 11)
Injected flit rate average = 0.009125
	minimum = 0.003 (at node 0)
	maximum = 0.013 (at node 11)
Accepted flit rate average= 0.0090625
	minimum = 0 (at node 0)
	maximum = 0.145 (at node 11)
Injected packet length average = 1
Accepted packet length average = 1
Total in-flight flits = 5 (5 measured)
latency change    = 0.0221838
throughput change = 0.144828
Class 0:
Packet latency average = 19.5455
	minimum = 7
	maximum = 34
Network latency average = 19.5455
	minimum = 7
	maximum = 34
Slowest packet = 3409
Flit latency average = 19.5913
	minimum = 7
	maximum = 34
Slowest flit = 3409
Fragmentation average = 0
	minimum = 0
	maximum = 0
Injected packet rate average = 0.0100625
	minimum = 0.005 (at node 0)
	maximum = 0.015 (at node 13)
Accepted packet rate average = 0.0100938
	minimum = 0 (at node 0)
	maximum = 0.1615 (at node 11)
Injected flit rate average = 0.0100625
	minimum = 0.005 (at node 0)
	maximum = 0.015 (at node 13)
Accepted flit rate average= 0.0100938
	minimum = 0 (at node 0)
	maximum = 0.1615 (at node 11)
Injected packet length average = 1
Accepted packet length average = 1
Total in-flight flits = 3 (3 measured)
latency change    = 0.045687
throughput change = 0.102167
Class 0:
Packet latency average = 19.6004
	minimum = 7
	maximum = 34
Network latency average = 19.6004
	minimum = 7
	maximum = 34
Slowest packet = 3409
Flit latency average = 19.6307
	minimum = 7
	maximum = 34
Slowest flit = 3409
Fragmentation average = 0
	minimum = 0
	maximum = 0
Injected packet rate average = 0.00995833
	minimum = 0.00533333 (at node 14)
	maximum = 0.0123333 (at node 13)
Accepted packet rate average = 0.0100417
	minimum = 0 (at node 0)
	maximum = 0.160667 (at node 11)
Injected flit rate average = 0.00995833
	minimum = 0.00533333 (at node 14)
	maximum = 0.0123333 (at node 13)
Accepted flit rate average= 0.0100417
	minimum = 0 (at node 0)
	maximum = 0.160667 (at node 11)
Injected packet length average = 1
Accepted packet length average = 1
Total in-flight flits = 0 (0 measured)
latency change    = 0.00280422
throughput change = 0.00518672
Class 0:
Packet latency average = 19.5841
	minimum = 7
	maximum = 34
Network latency average = 19.5841
	minimum = 7
	maximum = 34
Slowest packet = 3409
Flit latency average = 19.6068
	minimum = 7
	maximum = 34
Slowest flit = 3409
Fragmentation average = 0
	minimum = 0
	maximum = 0
Injected packet rate average = 0.0100469
	minimum = 0.007 (at node 14)
	maximum = 0.0125 (at node 13)
Accepted packet rate average = 0.0100938
	minimum = 0 (at node 0)
	maximum = 0.1615 (at node 11)
Injected flit rate average = 0.0100469
	minimum = 0.007 (at node 14)
	maximum = 0.0125 (at node 13)
Accepted flit rate average= 0.0100938
	minimum = 0 (at node 0)
	maximum = 0.1615 (at node 11)
Injected packet length average = 1
Accepted packet length average = 1
Total in-flight flits = 1 (1 measured)
latency change    = 0.000832627
throughput change = 0.00515996
Class 0:
Packet latency average = 19.6489
	minimum = 7
	maximum = 36
Network latency average = 19.6489
	minimum = 7
	maximum = 36
Slowest packet = 3947
Flit latency average = 19.6671
	minimum = 7
	maximum = 36
Slowest flit = 3947
Fragmentation average = 0
	minimum = 0
	maximum = 0
Injected packet rate average = 0.0099125
	minimum = 0.0076 (at node 0)
	maximum = 0.0118 (at node 13)
Accepted packet rate average = 0.0099125
	minimum = 0 (at node 0)
	maximum = 0.1586 (at node 11)
Injected flit rate average = 0.0099125
	minimum = 0.0076 (at node 0)
	maximum = 0.0118 (at node 13)
Accepted flit rate average= 0.0099125
	minimum = 0 (at node 0)
	maximum = 0.1586 (at node 11)
Injected packet length average = 1
Accepted packet length average = 1
Total in-flight flits = 4 (4 measured)
latency change    = 0.00329843
throughput change = 0.018285
Draining all recorded packets ...
Draining remaining packets ...
Time taken is 8034 cycles
Class 0:
Packet latency average = 18.7698
	minimum = 7
	maximum = 32
Network latency average = 18.7698
	minimum = 7
	maximum = 32
Slowest packet = 3963
Flit latency average = 18.7698
	minimum = 7
	maximum = 32
Slowest flit = 3963
Fragmentation average = 0
	minimum = 0
	maximum = 0
Injected packet rate average = 0.0090625
	minimum = 0.005 (at node 2)
	maximum = 0.018 (at node 10)
Accepted packet rate average = 0.0086875
	minimum = 0 (at node 0)
	maximum = 0.139 (at node 11)
Injected flit rate average = 0.0090625
	minimum = 0.005 (at node 2)
	maximum = 0.018 (at node 10)
Accepted flit rate average= 0.0086875
	minimum = 0 (at node 0)
	maximum = 0.139 (at node 11)
Injected packet length average = 1
Accepted packet length average = 1
Total in-flight flits = 6 (0 measured)
latency change    = 1
throughput change = 1
Class 0:
Packet latency average = 18.9848
	minimum = 7
	maximum = 34
Network latency average = 18.9848
	minimum = 7
	maximum = 34
Slowest packet = 4148
Flit latency average = 18.9848
	minimum = 7
	maximum = 34
Slowest flit = 4148
Fragmentation average = 0
	minimum = 0
	maximum = 0
Injected packet rate average = 0.0102813
	minimum = 0.006 (at node 15)
	maximum = 0.017 (at node 7)
Accepted packet rate average = 0.01025
	minimum = 0 (at node 0)
	maximum = 0.164 (at node 11)
Injected flit rate average = 0.0102813
	minimum = 0.006 (at node 15)
	maximum = 0.017 (at node 7)
Accepted flit rate average= 0.01025
	minimum = 0 (at node 0)
	maximum = 0.164 (at node 11)
Injected packet length average = 1
Accepted packet length average = 1
Total in-flight flits = 1 (0 measured)
latency change    = 0.0113234
throughput change = 0.152439
Class 0:
Packet latency average = 18.8418
	minimum = 7
	maximum = 33
Network latency average = 18.8418
	minimum = 7
	maximum = 33
Slowest packet = 4343
Flit latency average = 18.8418
	minimum = 7
	maximum = 33
Slowest flit = 4343
Fragmentation average = 0
	minimum = 0
	maximum = 0
Injected packet rate average = 0.0111875
	minimum = 0.007 (at node 0)
	maximum = 0.017 (at node 13)
Accepted packet rate average = 0.0110625
	minimum = 0 (at node 0)
	maximum = 0.177 (at node 11)
Injected flit rate average = 0.0111875
	minimum = 0.007 (at node 0)
	maximum = 0.017 (at node 13)
Accepted flit rate average= 0.0110625
	minimum = 0 (at node 0)
	maximum = 0.177 (at node 11)
Injected packet length average = 1
Accepted packet length average = 1
Total in-flight flits = 3 (0 measured)
latency change    = 0.00758676
throughput change = 0.0734463
Warmed up ...Time used is 3000 cycles
Class 0:
Packet latency average = 19.3113
	minimum = 7
	maximum = 33
Network latency average = 19.3113
	minimum = 7
	maximum = 33
Slowest packet = 4565
Flit latency average = 19.3961
	minimum = 7
	maximum = 33
Slowest flit = 4565
Fragmentation average = 0
	minimum = 0
	maximum = 0
Injected packet rate average = 0.0095
	minimum = 0.003 (at node 5)
	maximum = 0.015 (at node 9)
Accepted packet rate average = 0.009625
	minimum = 0 (at node 0)
	maximum = 0.154 (at node 11)
Injected flit rate average = 0.0095
	minimum = 0.003 (at node 5)
	maximum = 0.015 (at node 9)
Accepted flit rate average= 0.009625
	minimum = 0 (at node 0)
	maximum = 0.154 (at node 11)
Injected packet length average = 1
Accepted packet length average = 1
Total in-flight flits = 1 (1 measured)
latency change    = 0.0243097
throughput change = 0.149351
Class 0:
Packet latency average = 19.3834
	minimum = 7
	maximum = 34
Network latency average = 19.3834
	minimum = 7
	maximum = 34
Slowest packet = 4745
Flit latency average = 19.4241
	minimum = 7
	maximum = 34
Slowest flit = 4745
Fragmentation average = 0
	minimum = 0
	maximum = 0
Injected packet rate average = 0.009875
	minimum = 0.0045 (at node 5)
	maximum = 0.014 (at node 14)
Accepted packet rate average = 0.009875
	minimum = 0 (at node 0)
	maximum = 0.158 (at node 11)
Injected flit rate average = 0.009875
	minimum = 0.0045 (at node 5)
	maximum = 0.014 (at node 14)
Accepted flit rate average= 0.009875
	minimum = 0 (at node 0)
	maximum = 0.158 (at node 11)
Injected packet length average = 1
Accepted packet length average = 1
Total in-flight flits = 3 (3 measured)
latency change    = 0.00372114
throughput change = 0.0253165
Class 0:
Packet latency average = 19.4545
	minimum = 7
	maximum = 34
Network latency average = 19.4545
	minimum = 7
	maximum = 34
Slowest packet = 4745
Flit latency average = 19.4788
	minimum = 7
	maximum = 34
Slowest flit = 4745
Fragmentation average = 0
	minimum = 0
	maximum = 0
Injected packet rate average = 0.0108333
	minimum = 0.00666667 (at node 5)
	maximum = 0.014 (at node 14)
Accepted packet rate average = 0.0108333
	minimum = 0 (at node 0)
	maximum = 0.173333 (at node 11)
Injected flit rate average = 0.0108333
	minimum = 0.00666667 (at node 5)
	maximum = 0.014 (at node 14)
Accepted flit rate average= 0.0108333
	minimum = 0 (at node 0)
	maximum = 0.173333 (at node 11)
Injected packet length average = 1
Accepted packet length average = 1
Total in-flight flits = 3 (3 measured)
latency change    = 0.0036577
throughput change = 0.0884615
Class 0:
Packet latency average = 19.373
	minimum = 7
	maximum = 36
Network latency average = 19.373
	minimum = 7
	maximum = 36
Slowest packet = 5142
Flit latency average = 19.3916
	minimum = 7
	maximum = 36
Slowest flit = 5142
Fragmentation average = 0
	minimum = 0
	maximum = 0
Injected packet rate average = 0.0107969
	minimum = 0.007 (at node 5)
	maximum = 0.01275 (at node 8)
Accepted packet rate average = 0.0108125
	minimum = 0 (at node 0)
	maximum = 0.173 (at node 11)
Injected flit rate average = 0.0107969
	minimum = 0.007 (at node 5)
	maximum = 0.01275 (at node 8)
Accepted flit rate average= 0.0108125
	minimum = 0 (at node 0)
	maximum = 0.173 (at node 11)
Injected packet length average = 1
Accepted packet length average = 1
Total in-flight flits = 2 (2 measured)
latency change    = 0.00420901
throughput change = 0.00192678
Class 0:
Packet latency average = 19.322
	minimum = 7
	maximum = 36
Network latency average = 19.322
	minimum = 7
	maximum = 36
Slowest packet = 5142
Flit latency average = 19.3372
	minimum = 7
	maximum = 36
Slowest flit = 5142
Fragmentation average = 0
	minimum = 0
	maximum = 0
Injected packet rate average = 0.0107
	minimum = 0.007 (at node 5)
	maximum = 0.0124 (at node 8)
Accepted packet rate average = 0.0107125
	minimum = 0 (at node 0)
	maximum = 0.1714 (at node 11)
Injected flit rate average = 0.0107
	minimum = 0.007 (at node 5)
	maximum = 0.0124 (at node 8)
Accepted flit rate average= 0.0107125
	minimum = 0 (at node 0)
	maximum = 0.1714 (at node 11)
Injected packet length average = 1
Accepted packet length average = 1
Total in-flight flits = 2 (2 measured)
latency change    = 0.00263897
throughput change = 0.00933489
Class 0:
Packet latency average = 19.4756
	minimum = 7
	maximum = 36
Network latency average = 19.4756
	minimum = 7
	maximum = 36
Slowest packet = 5142
Flit latency average = 19.4879
	minimum = 7
	maximum = 36
Slowest flit = 5142
Fragmentation average = 0
	minimum = 0
	maximum = 0
Injected packet rate average = 0.0107396
	minimum = 0.008 (at node 5)
	maximum = 0.0123333 (at node 8)
Accepted packet rate average = 0.0107188
	minimum = 0 (at node 0)
	maximum = 0.1715 (at node 11)
Injected flit rate average = 0.0107396
	minimum = 0.008 (at node 5)
	maximum = 0.0123333 (at node 8)
Accepted flit rate average= 0.0107188
	minimum = 0 (at node 0)
	maximum = 0.1715 (at node 11)
Injected packet length average = 1
Accepted packet length average = 1
Total in-flight flits = 5 (5 measured)
latency change    = 0.00788778
throughput change = 0.00058309
Draining all recorded packets ...
Draining remaining packets ...
Time taken is 9048 cycles
Class 0:
Packet latency average = 19.4516
	minimum = 7
	maximum = 32
Network latency average = 19.4516
	minimum = 7
	maximum = 32
Slowest packet = 5518
Flit latency average = 19.4516
	minimum = 7
	maximum = 32
Slowest flit = 5518
Fragmentation average = 0
	minimum = 0
	maximum = 0
Injected packet rate average = 0.010125
	minimum = 0.005 (at node 10)
	maximum = 0.014 (at node 7)
Accepted packet rate average = 0.0096875
	minimum = 0 (at node 0)
	maximum = 0.155 (at node 11)
Injected flit rate average = 0.010125
	minimum = 0.005 (at node 10)
	maximum = 0.014 (at node 7)
Accepted flit rate average= 0.0096875
	minimum = 0 (at node 0)
	maximum = 0.155 (at node 11)
Injected packet length average = 1
Accepted packet length average = 1
Total in-flight flits = 7 (0 measured)
latency change    = 1
throughput change = 1
Class 0:
Packet latency average = 19.4794
	minimum = 7
	maximum = 33
Network latency average = 19.4794
	minimum = 7
	maximum = 33
Slowest packet = 5736
Flit latency average = 19.4794
	minimum = 7
	maximum = 33
Slowest flit = 5736
Fragmentation average = 0
	minimum = 0
	maximum = 0
Injected packet rate average = 0.01
	minimum = 0.006 (at node 15)
	maximum = 0.0145 (at node 7)
Accepted packet rate average = 0.00984375
	minimum = 0 (at node 0)
	maximum = 0.1575 (at node 11)
Injected flit rate average = 0.01
	minimum = 0.006 (at node 15)
	maximum = 0.0145 (at node 7)
Accepted flit rate average= 0.00984375
	minimum = 0 (at node 0)
	maximum = 0.1575 (at node 11)
Injected packet length average = 1
Accepted packet length average = 1
Total in-flight flits = 5 (0 measured)
latency change    = 0.0014247
throughput change = 0.015873
Class 0:
Packet latency average = 19.1925
	minimum = 7
	maximum = 32
Network latency average = 19.1925
	minimum = 7
	maximum = 32
Slowest packet = 5815
Flit latency average = 19.1925
	minimum = 7
	maximum = 32
Slowest flit = 5815
Fragmentation average = 0
	minimum = 0
	maximum = 0
Injected packet rate average = 0.00975
	minimum = 0.004 (at node 6)
	maximum = 0.016 (at node 14)
Accepted packet rate average = 0.0100625
	minimum = 0 (at node 0)
	maximum = 0.161 (at node 11)
Injected flit rate average = 0.00975
	minimum = 0.004 (at node 6)
	maximum = 0.016 (at node 14)
Accepted flit rate average= 0.0100625
	minimum = 0 (at node 0)
	maximum = 0.161 (at node 11)
Injected packet length average = 1
Accepted packet length average = 1
Total in-flight flits = 0 (0 measured)
latency change    = 0.0149443
throughput change = 0.0217391
Warmed up ...Time used is 3000 cycles
Class 0:
Packet latency average = 19.4681
	minimum = 7
	maximum = 33
Network latency average = 19.4681
	minimum = 7
	maximum = 33
Slowest packet = 5980
Flit latency average = 19.4681
	minimum = 7
	maximum = 33
Slowest flit = 5980
Fragmentation average = 0
	minimum = 0
	maximum = 0
Injected packet rate average = 0.0090625
	minimum = 0.004 (at node 4)
	maximum = 0.016 (at node 1)
Accepted packet rate average = 0.0088125
	minimum = 0 (at node 0)
	maximum = 0.141 (at node 11)
Injected flit rate average = 0.0090625
	minimum = 0.004 (at node 4)
	maximum = 0.016 (at node 1)
Accepted flit rate average= 0.0088125
	minimum = 0 (at node 0)
	maximum = 0.141 (at node 11)
Injected packet length average = 1
Accepted packet length average = 1
Total in-flight flits = 4 (4 measured)
latency change    = 0.0141533
throughput change = 0.141844
Class 0:
Packet latency average = 19.3922
	minimum = 7
	maximum = 33
Network latency average = 19.3922
	minimum = 7
	maximum = 33
Slowest packet = 5980
Flit latency average = 19.3922
	minimum = 7
	maximum = 33
Slowest flit = 5980
Fragmentation average = 0
	minimum = 0
	maximum = 0
Injected packet rate average = 0.009625
	minimum = 0.007 (at node 4)
	maximum = 0.0125 (at node 0)
Accepted packet rate average = 0.0095625
	minimum = 0 (at node 0)
	maximum = 0.153 (at node 11)
Injected flit rate average = 0.009625
	minimum = 0.007 (at node 4)
	maximum = 0.0125 (at node 0)
Accepted flit rate average= 0.0095625
	minimum = 0 (at node 0)
	maximum = 0.153 (at node 11)
Injected packet length average = 1
Accepted packet length average = 1
Total in-flight flits = 2 (2 measured)
latency change    = 0.00391541
throughput change = 0.0784314
Class 0:
Packet latency average = 19.4701
	minimum = 7
	maximum = 33
Network latency average = 19.4701
	minimum = 7
	maximum = 33
Slowest packet = 5980
Flit latency average = 19.4701
	minimum = 7
	maximum = 33
Slowest flit = 5980
Fragmentation average = 0
	minimum = 0
	maximum = 0
Injected packet rate average = 0.00945833
	minimum = 0.00666667 (at node 13)
	maximum = 0.012 (at node 0)
Accepted packet rate average = 0.00939583
	minimum = 0 (at node 0)
	maximum = 0.150333 (at node 11)
Injected flit rate average = 0.00945833
	minimum = 0.00666667 (at node 13)
	maximum = 0.012 (at node 0)
Accepted flit rate average= 0.00939583
	minimum = 0 (at node 0)
	maximum = 0.150333 (at node 11)
Injected packet length average = 1
Accepted packet length average = 1
Total in-flight flits = 3 (3 measured)
latency change    = 0.00400151
throughput change = 0.0177384
Class 0:
Packet latency average = 19.6817
	minimum = 7
	maximum = 33
Network latency average = 19.6817
	minimum = 7
	maximum = 33
Slowest packet = 5980
Flit latency average = 19.6817
	minimum = 7
	maximum = 33
Slowest flit = 5980
Fragmentation average = 0
	minimum = 0
	maximum = 0
Injected packet rate average = 0.0094375
	minimum = 0.00725 (at node 13)
	maximum = 0.0125 (at node 1)
Accepted packet rate average = 0.009375
	minimum = 0 (at node 0)
	maximum = 0.15 (at node 11)
Injected flit rate average = 0.0094375
	minimum = 0.00725 (at node 13)
	maximum = 0.0125 (at node 1)
Accepted flit rate average= 0.009375
	minimum = 0 (at node 0)
	maximum = 0.15 (at node 11)
Injected packet length average = 1
Accepted packet length average = 1
Total in-flight flits = 4 (4 measured)
latency change    = 0.0107511
throughput change = 0.00222222
Class 0:
Packet latency average = 19.7263
	minimum = 7
	maximum = 33
Network latency average = 19.7263
	minimum = 7
	maximum = 33
Slowest packet = 5980
Flit latency average = 19.7263
	minimum = 7
	maximum = 33
Slowest flit = 5980
Fragmentation average = 0
	minimum = 0
	maximum = 0
Injected packet rate average = 0.0097125
	minimum = 0.0074 (at node 13)
	maximum = 0.0126 (at node 0)
Accepted packet rate average = 0.0096375
	minimum = 0 (at node 0)
	maximum = 0.1542 (at node 11)
Injected flit rate average = 0.0097125
	minimum = 0.0074 (at node 13)
	maximum = 0.0126 (at node 0)
Accepted flit rate average= 0.0096375
	minimum = 0 (at node 0)
	maximum = 0.1542 (at node 11)
Injected packet length average = 1
Accepted packet length average = 1
Total in-flight flits = 6 (6 measured)
latency change    = 0.00226412
throughput change = 0.0272374
Draining all recorded packets ...
Draining remaining packets ...
Time taken is 8048 cycles
Class 0:
Packet latency average = 18.8354
	minimum = 7
	maximum = 32
Network latency average = 18.8354
	minimum = 7
	maximum = 32
Slowest packet = 6785
Flit latency average = 18.8354
	minimum = 7
	maximum = 32
Slowest flit = 6785
Fragmentation average = 0
	minimum = 0
	maximum = 0
Injected packet rate average = 0.010125
	minimum = 0.004 (at node 0)
	maximum = 0.017 (at node 8)
Accepted packet rate average = 0.009875
	minimum = 0 (at node 0)
	maximum = 0.158 (at node 11)
Injected flit rate average = 0.010125
	minimum = 0.004 (at node 0)
	maximum = 0.017 (at node 8)
Accepted flit rate average= 0.009875
	minimum = 0 (at node 0)
	maximum = 0.158 (at node 11)
Injected packet length average = 1
Accepted packet length average = 1
Total in-flight flits = 4 (0 measured)
latency change    = 1
throughput change = 1
Class 0:
Packet latency average = 19.0871
	minimum = 7
	maximum = 33
Network latency average = 19.0871
	minimum = 7
	maximum = 33
Slowest packet = 6953
Flit latency average = 19.0871
	minimum = 7
	maximum = 33
Slowest flit = 6953
Fragmentation average = 0
	minimum = 0
	maximum = 0
Injected packet rate average = 0.0104688
	minimum = 0.0065 (at node 0)
	maximum = 0.016 (at node 8)
Accepted packet rate average = 0.0104063
	minimum = 0 (at node 0)
	maximum = 0.1665 (at node 11)
Injected flit rate average = 0.0104688
	minimum = 0.0065 (at node 0)
	maximum = 0.016 (at node 8)
Accepted flit rate average= 0.0104063
	minimum = 0 (at node 0)
	maximum = 0.1665 (at node 11)
Injected packet length average = 1
Accepted packet length average = 1
Total in-flight flits = 2 (0 measured)
latency change    = 0.013184
throughput change = 0.0510511
Class 0:
Packet latency average = 20.0144
	minimum = 7
	maximum = 34
Network latency average = 20.0144
	minimum = 7
	maximum = 34
Slowest packet = 7130
Flit latency average = 20.0144
	minimum = 7
	maximum = 34
Slowest flit = 7130
Fragmentation average = 0
	minimum = 0
	maximum = 0
Injected packet rate average = 0.00875
	minimum = 0.004 (at node 8)
	maximum = 0.015 (at node 4)
Accepted packet rate average = 0.0086875
	minimum = 0 (at node 0)
	maximum = 0.139 (at node 11)
Injected flit rate average = 0.00875
	minimum = 0.004 (at node 8)
	maximum = 0.015 (at node 4)
Accepted flit rate average= 0.0086875
	minimum = 0 (at node 0)
	maximum = 0.139 (at node 11)
Injected packet length average = 1
Accepted packet length average = 1
Total in-flight flits = 3 (0 measured)
latency change    = 0.0463317
throughput change = 0.197842
Warmed up ...Time used is 3000 cycles
Class 0:
Packet latency average = 20.7468
	minimum = 7
	maximum = 32
Network latency average = 20.7468
	minimum = 7
	maximum = 32
Slowest packet = 7242
Flit latency average = 20.6752
	minimum = 7
	maximum = 32
Slowest flit = 7242
Fragmentation average = 0
	minimum = 0
	maximum = 0
Injected packet rate average = 0.0098125
	minimum = 0.005 (at node 7)
	maximum = 0.015 (at node 13)
Accepted packet rate average = 0.0098125
	minimum = 0 (at node 0)
	maximum = 0.157 (at node 11)
Injected flit rate average = 0.0098125
	minimum = 0.005 (at node 7)
	maximum = 0.015 (at node 13)
Accepted flit rate average= 0.0098125
	minimum = 0 (at node 0)
	maximum = 0.157 (at node 11)
Injected packet length average = 1
Accepted packet length average = 1
Total in-flight flits = 3 (3 measured)
latency change    = 0.0353002
throughput change = 0.11465
Class 0:
Packet latency average = 20.3257
	minimum = 7
	maximum = 33
Network latency average = 20.3257
	minimum = 7
	maximum = 33
Slowest packet = 7473
Flit latency average = 20.2932
	minimum = 7
	maximum = 33
Slowest flit = 7473
Fragmentation average = 0
	minimum = 0
	maximum = 0
Injected packet rate average = 0.009625
	minimum = 0.0065 (at node 11)
	maximum = 0.0125 (at node 13)
Accepted packet rate average = 0.00959375
	minimum = 0 (at node 0)
	maximum = 0.1535 (at node 11)
Injected flit rate average = 0.009625
	minimum = 0.0065 (at node 11)
	maximum = 0.0125 (at node 13)
Accepted flit rate average= 0.00959375
	minimum = 0 (at node 0)
	maximum = 0.1535 (at node 11)
Injected packet length average = 1
Accepted packet length average = 1
Total in-flight flits = 4 (4 measured)
latency change    = 0.0207174
throughput change = 0.0228013
Class 0:
Packet latency average = 20.1475
	minimum = 7
	maximum = 33
Network latency average = 20.1475
	minimum = 7
	maximum = 33
Slowest packet = 7473
Flit latency average = 20.1283
	minimum = 7
	maximum = 33
Slowest flit = 7473
Fragmentation average = 0
	minimum = 0
	maximum = 0
Injected packet rate average = 0.0102083
	minimum = 0.007 (at node 11)
	maximum = 0.0133333 (at node 12)
Accepted packet rate average = 0.0102292
	minimum = 0 (at node 0)
	maximum = 0.163667 (at node 11)
Injected flit rate average = 0.0102083
	minimum = 0.007 (at node 11)
	maximum = 0.0133333 (at node 12)
Accepted flit rate average= 0.0102292
	minimum = 0 (at node 0)
	maximum = 0.163667 (at node 11)
Injected packet length average = 1
Accepted packet length average = 1
Total in-flight flits = 2 (2 measured)
latency change    = 0.00884063
throughput change = 0.0621181
Class 0:
Packet latency average = 20.0095
	minimum = 7
	maximum = 33
Network latency average = 20.0095
	minimum = 7
	maximum = 33
Slowest packet = 7473
Flit latency average = 19.9953
	minimum = 7
	maximum = 33
Slowest flit = 7473
Fragmentation average = 0
	minimum = 0
	maximum = 0
Injected packet rate average = 0.00990625
	minimum = 0.00725 (at node 8)
	maximum = 0.0125 (at node 12)
Accepted packet rate average = 0.00992188
	minimum = 0 (at node 0)
	maximum = 0.15875 (at node 11)
Injected flit rate average = 0.00990625
	minimum = 0.00725 (at node 8)
	maximum = 0.0125 (at node 12)
Accepted flit rate average= 0.00992188
	minimum = 0 (at node 0)
	maximum = 0.15875 (at node 11)
Injected packet length average = 1
Accepted packet length average = 1
Total in-flight flits = 2 (2 measured)
latency change    = 0.00689909
throughput change = 0.0309711
Class 0:
Packet latency average = 19.8966
	minimum = 7
	maximum = 33
Network latency average = 19.8966
	minimum = 7
	maximum = 33
Slowest packet = 7473
Flit latency average = 19.8859
	minimum = 7
	maximum = 33
Slowest flit = 7473
Fragmentation average = 0
	minimum = 0
	maximum = 0
Injected packet rate average = 0.010075
	minimum = 0.0074 (at node 8)
	maximum = 0.0126 (at node 4)
Accepted packet rate average = 0.010075
	minimum = 0 (at node 0)
	maximum = 0.1612 (at node 11)
Injected flit rate average = 0.010075
	minimum = 0.0074 (at node 8)
	maximum = 0.0126 (at node 4)
Accepted flit rate average= 0.010075
	minimum = 0 (at node 0)
	maximum = 0.1612 (at node 11)
Injected packet length average = 1
Accepted packet length average = 1
Total in-flight flits = 3 (3 measured)
latency change    = 0.00567212
throughput change = 0.0151985
Class 0:
Packet latency average = 19.8111
	minimum = 7
	maximum = 37
Network latency average = 19.8111
	minimum = 7
	maximum = 37
Slowest packet = 8053
Flit latency average = 19.8025
	minimum = 7
	maximum = 37
Slowest flit = 8053
Fragmentation average = 0
	minimum = 0
	maximum = 0
Injected packet rate average = 0.0101354
	minimum = 0.0075 (at node 8)
	maximum = 0.0131667 (at node 4)
Accepted packet rate average = 0.010125
	minimum = 0 (at node 0)
	maximum = 0.162 (at node 11)
Injected flit rate average = 0.0101354
	minimum = 0.0075 (at node 8)
	maximum = 0.0131667 (at node 4)
Accepted flit rate average= 0.010125
	minimum = 0 (at node 0)
	maximum = 0.162 (at node 11)
Injected packet length average = 1
Accepted packet length average = 1
Total in-flight flits = 4 (4 measured)
latency change    = 0.00431535
throughput change = 0.00493827
Draining all recorded packets ...
Draining remaining packets ...
Time taken is 9036 cycles
Class 0:
Packet latency average = 19.8255
	minimum = 7
	maximum = 32
Network latency average = 19.8255
	minimum = 7
	maximum = 32
Slowest packet = 8211
Flit latency average = 19.8255
	minimum = 7
	maximum = 32
Slowest flit = 8211
Fragmentation average = 0
	minimum = 0
	maximum = 0
Injected packet rate average = 0.0095
	minimum = 0.003 (at node 11)
	maximum = 0.015 (at node 4)
Accepted packet rate average = 0.0093125
	minimum = 0 (at node 0)
	maximum = 0.149 (at node 11)
Injected flit rate average = 0.0095
	minimum = 0.003 (at node 11)
	maximum = 0.015 (at node 4)
Accepted flit rate average= 0.0093125
	minimum = 0 (at node 0)
	maximum = 0.149 (at node 11)
Injected packet length average = 1
Accepted packet length average = 1
Total in-flight flits = 3 (0 measured)
latency change    = 1
throughput change = 1
Class 0:
Packet latency average = 19.9276
	minimum = 7
	maximum = 33
Network latency average = 19.9276
	minimum = 7
	maximum = 33
Slowest packet = 8386
Flit latency average = 19.9276
	minimum = 7
	maximum = 33
Slowest flit = 8386
Fragmentation average = 0
	minimum = 0
	maximum = 0
Injected packet rate average = 0.009625
	minimum = 0.005 (at node 11)
	maximum = 0.013 (at node 8)
Accepted packet rate average = 0.0095
	minimum = 0 (at node 0)
	maximum = 0.152 (at node 11)
Injected flit rate average = 0.009625
	minimum = 0.005 (at node 11)
	maximum = 0.013 (at node 8)
Accepted flit rate average= 0.0095
	minimum = 0 (at node 0)
	maximum = 0.152 (at node 11)
Injected packet length average = 1
Accepted packet length average = 1
Total in-flight flits = 4 (0 measured)
latency change    = 0.00512496
throughput change = 0.0197368
Class 0:
Packet latency average = 20.4733
	minimum = 7
	maximum = 34
Network latency average = 20.4733
	minimum = 7
	maximum = 34
Slowest packet = 8516
Flit latency average = 20.4733
	minimum = 7
	maximum = 34
Slowest flit = 8516
Fragmentation average = 0
	minimum = 0
	maximum = 0
Injected packet rate average = 0.0093125
	minimum = 0.003 (at node 10)
	maximum = 0.02 (at node 12)
Accepted packet rate average = 0.009375
	minimum = 0 (at node 0)
	maximum = 0.15 (at node 11)
Injected flit rate average = 0.0093125
	minimum = 0.003 (at node 10)
	maximum = 0.02 (at node 12)
Accepted flit rate average= 0.009375
	minimum = 0 (at node 0)
	maximum = 0.15 (at node 11)
Injected packet length average = 1
Accepted packet length average = 1
Total in-flight flits = 3 (0 measured)
latency change    = 0.0266543
throughput change = 0.0133333
Warmed up ...Time used is 3000 cycles
Class 0:
Packet latency average = 20.156
	minimum = 7
	maximum = 32
Network latency average = 20.156
	minimum = 7
	maximum = 32
Slowest packet = 8664
Flit latency average = 20.2014
	minimum = 7
	maximum = 32
Slowest flit = 8664
Fragmentation average = 0
	minimum = 0
	maximum = 0
Injected packet rate average = 0.0090625
	minimum = 0.005 (at node 1)
	maximum = 0.013 (at node 0)
Accepted packet rate average = 0.009
	minimum = 0 (at node 0)
	maximum = 0.144 (at node 11)
Injected flit rate average = 0.0090625
	minimum = 0.005 (at node 1)
	maximum = 0.013 (at node 0)
Accepted flit rate average= 0.009
	minimum = 0 (at node 0)
	maximum = 0.144 (at node 11)
Injected packet length average = 1
Accepted packet length average = 1
Total in-flight flits = 4 (4 measured)
latency change    = 0.0157424
throughput change = 0.0416667
Class 0:
Packet latency average = 20.0812
	minimum = 7
	maximum = 32
Network latency average = 20.0812
	minimum = 7
	maximum = 32
Slowest packet = 8664
Flit latency average = 20.1029
	minimum = 7
	maximum = 32
Slowest flit = 8664
Fragmentation average = 0
	minimum = 0
	maximum = 0
Injected packet rate average = 0.00978125
	minimum = 0.007 (at node 15)
	maximum = 0.014 (at node 13)
Accepted packet rate average = 0.00971875
	minimum = 0 (at node 0)
	maximum = 0.1555 (at node 11)
Injected flit rate average = 0.00978125
	minimum = 0.007 (at node 15)
	maximum = 0.014 (at node 13)
Accepted flit rate average= 0.00971875
	minimum = 0 (at node 0)
	maximum = 0.1555 (at node 11)
Injected packet length average = 1
Accepted packet length average = 1
Total in-flight flits = 5 (5 measured)
latency change    = 0.00372785
throughput change = 0.073955
Class 0:
Packet latency average = 19.7415
	minimum = 7
	maximum = 33
Network latency average = 19.7415
	minimum = 7
	maximum = 33
Slowest packet = 9037
Flit latency average = 19.758
	minimum = 7
	maximum = 33
Slowest flit = 9037
Fragmentation average = 0
	minimum = 0
	maximum = 0
Injected packet rate average = 0.0098125
	minimum = 0.00666667 (at node 1)
	maximum = 0.015 (at node 13)
Accepted packet rate average = 0.0098125
	minimum = 0 (at node 0)
	maximum = 0.157 (at node 11)
Injected flit rate average = 0.0098125
	minimum = 0.00666667 (at node 1)
	maximum = 0.015 (at node 13)
Accepted flit rate average= 0.0098125
	minimum = 0 (at node 0)
	maximum = 0.157 (at node 11)
Injected packet length average = 1
Accepted packet length average = 1
Total in-flight flits = 3 (3 measured)
latency change    = 0.0172082
throughput change = 0.00955414
Class 0:
Packet latency average = 19.5203
	minimum = 7
	maximum = 33
Network latency average = 19.5203
	minimum = 7
	maximum = 33
Slowest packet = 9037
Flit latency average = 19.5334
	minimum = 7
	maximum = 33
Slowest flit = 9037
Fragmentation average = 0
	minimum = 0
	maximum = 0
Injected packet rate average = 0.0100625
	minimum = 0.0075 (at node 1)
	maximum = 0.01325 (at node 13)
Accepted packet rate average = 0.0100469
	minimum = 0 (at node 0)
	maximum = 0.16075 (at node 11)
Injected flit rate average = 0.0100625
	minimum = 0.0075 (at node 1)
	maximum = 0.01325 (at node 13)
Accepted flit rate average= 0.0100469
	minimum = 0 (at node 0)
	maximum = 0.16075 (at node 11)
Injected packet length average = 1
Accepted packet length average = 1
Total in-flight flits = 4 (4 measured)
latency change    = 0.0113287
throughput change = 0.0233281
Class 0:
Packet latency average = 19.4962
	minimum = 7
	maximum = 33
Network latency average = 19.4962
	minimum = 7
	maximum = 33
Slowest packet = 9037
Flit latency average = 19.507
	minimum = 7
	maximum = 33
Slowest flit = 9037
Fragmentation average = 0
	minimum = 0
	maximum = 0
Injected packet rate average = 0.009875
	minimum = 0.007 (at node 1)
	maximum = 0.013 (at node 13)
Accepted packet rate average = 0.0098625
	minimum = 0 (at node 0)
	maximum = 0.1578 (at node 11)
Injected flit rate average = 0.009875
	minimum = 0.007 (at node 1)
	maximum = 0.013 (at node 13)
Accepted flit rate average= 0.0098625
	minimum = 0 (at node 0)
	maximum = 0.1578 (at node 11)
Injected packet length average = 1
Accepted packet length average = 1
Total in-flight flits = 4 (4 measured)
latency change    = 0.00123764
throughput change = 0.0186946
Draining all recorded packets ...
Draining remaining packets ...
Time taken is 8035 cycles
Class 0:
Packet latency average = 19.4371
	minimum = 7
	maximum = 33
Network latency average = 19.4371
	minimum = 7
	maximum = 33
Slowest packet = 9548
Flit latency average = 19.4371
	minimum = 7
	maximum = 33
Slowest flit = 9548
Fragmentation average = 0
	minimum = 0
	maximum = 0
Injected packet rate average = 0.009625
	minimum = 0.003 (at node 10)
	maximum = 0.014 (at node 1)
Accepted packet rate average = 0.0094375
	minimum = 0 (at node 0)
	maximum = 0.151 (at node 11)
Injected flit rate average = 0.009625
	minimum = 0.003 (at node 10)
	maximum = 0.014 (at node 1)
Accepted flit rate average= 0.0094375
	minimum = 0 (at node 0)
	maximum = 0.151 (at node 11)
Injected packet length average = 1
Accepted packet length average = 1
Total in-flight flits = 3 (0 measured)
latency change    = 1
throughput change = 1
Class 0:
Packet latency average = 19.429
	minimum = 7
	maximum = 33
Network latency average = 19.429
	minimum = 7
	maximum = 33
Slowest packet = 9548
Flit latency average = 19.429
	minimum = 7
	maximum = 33
Slowest flit = 9548
Fragmentation average = 0
	minimum = 0
	maximum = 0
Injected packet rate average = 0.0101875
	minimum = 0.007 (at node 13)
	maximum = 0.0145 (at node 9)
Accepted packet rate average = 0.00990625
	minimum = 0 (at node 0)
	maximum = 0.1585 (at node 11)
Injected flit rate average = 0.0101875
	minimum = 0.007 (at node 13)
	maximum = 0.0145 (at node 9)
Accepted flit rate average= 0.00990625
	minimum = 0 (at node 0)
	maximum = 0.1585 (at node 11)
Injected packet length average = 1
Accepted packet length average = 1
Total in-flight flits = 9 (0 measured)
latency change    = 0.00041505
throughput change = 0.0473186
Class 0:
Packet latency average = 20.3867
	minimum = 7
	maximum = 33
Network latency average = 20.3867
	minimum = 7
	maximum = 33
Slowest packet = 9827
Flit latency average = 20.3867
	minimum = 7
	maximum = 33
Slowest flit = 9827
Fragmentation average = 0
	minimum = 0
	maximum = 0
Injected packet rate average = 0.009125
	minimum = 0.006 (at node 6)
	maximum = 0.013 (at node 0)
Accepted packet rate average = 0.009375
	minimum = 0 (at node 0)
	maximum = 0.15 (at node 11)
Injected flit rate average = 0.009125
	minimum = 0.006 (at node 6)
	maximum = 0.013 (at node 0)
Accepted flit rate average= 0.009375
	minimum = 0 (at node 0)
	maximum = 0.15 (at node 11)
Injected packet length average = 1
Accepted packet length average = 1
Total in-flight flits = 5 (0 measured)
latency change    = 0.0469741
throughput change = 0.0566667
Warmed up ...Time used is 3000 cycles
Class 0:
Packet latency average = 19.6042
	minimum = 7
	maximum = 32
Network latency average = 19.6042
	minimum = 7
	maximum = 32
Slowest packet = 9951
Flit latency average = 19.6577
	minimum = 7
	maximum = 32
Slowest flit = 9951
Fragmentation average = 0
	minimum = 0
	maximum = 0
Injected packet rate average = 0.0091875
	minimum = 0.006 (at node 0)
	maximum = 0.013 (at node 2)
Accepted packet rate average = 0.0093125
	minimum = 0 (at node 0)
	maximum = 0.149 (at node 11)
Injected flit rate average = 0.0091875
	minimum = 0.006 (at node 0)
	maximum = 0.013 (at node 2)
Accepted flit rate average= 0.0093125
	minimum = 0 (at node 0)
	maximum = 0.149 (at node 11)
Injected packet length average = 1
Accepted packet length average = 1
Total in-flight flits = 3 (3 measured)
latency change    = 0.039915
throughput change = 0.00671141
Class 0:
Packet latency average = 19.3801
	minimum = 7
	maximum = 32
Network latency average = 19.3801
	minimum = 7
	maximum = 32
Slowest packet = 9951
Flit latency average = 19.4108
	minimum = 7
	maximum = 32
Slowest flit = 9951
Fragmentation average = 0
	minimum = 0
	maximum = 0
Injected packet rate average = 0.00928125
	minimum = 0.0055 (at node 0)
	maximum = 0.0135 (at node 4)
Accepted packet rate average = 0.00928125
	minimum = 0 (at node 0)
	maximum = 0.1485 (at node 11)
Injected flit rate average = 0.00928125
	minimum = 0.0055 (at node 0)
	maximum = 0.0135 (at node 4)
Accepted flit rate average= 0.00928125
	minimum = 0 (at node 0)
	maximum = 0.1485 (at node 11)
Injected packet length average = 1
Accepted packet length average = 1
Total in-flight flits = 5 (5 measured)
latency change    = 0.0115598
throughput change = 0.003367
Class 0:
Packet latency average = 19.3753
	minimum = 7
	maximum = 33
Network latency average = 19.3753
	minimum = 7
	maximum = 33
Slowest packet = 10262
Flit latency average = 19.3952
	minimum = 7
	maximum = 33
Slowest flit = 10262
Fragmentation average = 0
	minimum = 0
	maximum = 0
Injected packet rate average = 0.0095
	minimum = 0.006 (at node 15)
	maximum = 0.014 (at node 4)
Accepted packet rate average = 0.00954167
	minimum = 0 (at node 0)
	maximum = 0.152667 (at node 11)
Injected flit rate average = 0.0095
	minimum = 0.006 (at node 15)
	maximum = 0.014 (at node 4)
Accepted flit rate average= 0.00954167
	minimum = 0 (at node 0)
	maximum = 0.152667 (at node 11)
Injected packet length average = 1
Accepted packet length average = 1
Total in-flight flits = 3 (3 measured)
latency change    = 0.000250889
throughput change = 0.0272926
Draining all recorded packets ...
Draining remaining packets ...
Time taken is 6026 cycles
Class 0:
Packet latency average = 19.1243
	minimum = 7
	maximum = 34
Network latency average = 19.1243
	minimum = 7
	maximum = 34
Slowest packet = 10463
Flit latency average = 19.1243
	minimum = 7
	maximum = 34
Slowest flit = 10463
Fragmentation average = 0
	minimum = 0
	maximum = 0
Injected packet rate average = 0.011125
	minimum = 0.005 (at node 2)
	maximum = 0.018 (at node 9)
Accepted packet rate average = 0.0110625
	minimum = 0 (at node 0)
	maximum = 0.177 (at node 11)
Injected flit rate average = 0.011125
	minimum = 0.005 (at node 2)
	maximum = 0.018 (at node 9)
Accepted flit rate average= 0.0110625
	minimum = 0 (at node 0)
	maximum = 0.177 (at node 11)
Injected packet length average = 1
Accepted packet length average = 1
Total in-flight flits = 1 (0 measured)
latency change    = 1
throughput change = 1
Class 0:
Packet latency average = 19.2381
	minimum = 7
	maximum = 34
Network latency average = 19.2381
	minimum = 7
	maximum = 34
Slowest packet = 10463
Flit latency average = 19.2381
	minimum = 7
	maximum = 34
Slowest flit = 10463
Fragmentation average = 0
	minimum = 0
	maximum = 0
Injected packet rate average = 0.0105625
	minimum = 0.0035 (at node 2)
	maximum = 0.0135 (at node 9)
Accepted packet rate average = 0.0105
	minimum = 0 (at node 0)
	maximum = 0.168 (at node 11)
Injected flit rate average = 0.0105625
	minimum = 0.0035 (at node 2)
	maximum = 0.0135 (at node 9)
Accepted flit rate average= 0.0105
	minimum = 0 (at node 0)
	maximum = 0.168 (at node 11)
Injected packet length average = 1
Accepted packet length average = 1
Total in-flight flits = 2 (0 measured)
latency change    = 0.00591542
throughput change = 0.0535714
Class 0:
Packet latency average = 20.2281
	minimum = 7
	maximum = 39
Network latency average = 20.2281
	minimum = 7
	maximum = 39
Slowest packet = 10837
Flit latency average = 20.2281
	minimum = 7
	maximum = 39
Slowest flit = 10837
Fragmentation average = 0
	minimum = 0
	maximum = 0
Injected packet rate average = 0.0108125
	minimum = 0.004 (at node 10)
	maximum = 0.019 (at node 8)
Accepted packet rate average = 0.0106875
	minimum = 0 (at node 0)
	maximum = 0.171 (at node 11)
Injected flit rate average = 0.0108125
	minimum = 0.004 (at node 10)
	maximum = 0.019 (at node 8)
Accepted flit rate average= 0.0106875
	minimum = 0 (at node 0)
	maximum = 0.171 (at node 11)
Injected packet length average = 1
Accepted packet length average = 1
Total in-flight flits = 4 (0 measured)
latency change    = 0.0489407
throughput change = 0.0175439
Warmed up ...Time used is 3000 cycles
Class 0:
Packet latency average = 18.7108
	minimum = 7
	maximum = 33
Network latency average = 18.7108
	minimum = 7
	maximum = 33
Slowest packet = 11031
Flit latency average = 18.8235
	minimum = 7
	maximum = 33
Slowest flit = 11031
Fragmentation average = 0
	minimum = 0
	maximum = 0
Injected packet rate average = 0.0105625
	minimum = 0.005 (at node 0)
	maximum = 0.017 (at node 11)
Accepted packet rate average = 0.010625
	minimum = 0 (at node 0)
	maximum = 0.17 (at node 11)
Injected flit rate average = 0.0105625
	minimum = 0.005 (at node 0)
	maximum = 0.017 (at node 11)
Accepted flit rate average= 0.010625
	minimum = 0 (at node 0)
	maximum = 0.17 (at node 11)
Injected packet length average = 1
Accepted packet length average = 1
Total in-flight flits = 3 (3 measured)
latency change    = 0.0810881
throughput change = 0.00588235
Class 0:
Packet latency average = 19.3149
	minimum = 7
	maximum = 33
Network latency average = 19.3149
	minimum = 7
	maximum = 33
Slowest packet = 11031
Flit latency average = 19.3631
	minimum = 7
	maximum = 33
Slowest flit = 11031
Fragmentation average = 0
	minimum = 0
	maximum = 0
Injected packet rate average = 0.0108125
	minimum = 0.007 (at node 9)
	maximum = 0.0165 (at node 4)
Accepted packet rate average = 0.0108437
	minimum = 0 (at node 0)
	maximum = 0.1735 (at node 11)
Injected flit rate average = 0.0108125
	minimum = 0.007 (at node 9)
	maximum = 0.0165 (at node 4)
Accepted flit rate average= 0.0108437
	minimum = 0 (at node 0)
	maximum = 0.1735 (at node 11)
Injected packet length average = 1
Accepted packet length average = 1
Total in-flight flits = 3 (3 measured)
latency change    = 0.0312726
throughput change = 0.0201729
Class 0:
Packet latency average = 19.41
	minimum = 7
	maximum = 35
Network latency average = 19.41
	minimum = 7
	maximum = 35
Slowest packet = 11331
Flit latency average = 19.4425
	minimum = 7
	maximum = 35
Slowest flit = 11331
Fragmentation average = 0
	minimum = 0
	maximum = 0
Injected packet rate average = 0.0104792
	minimum = 0.00666667 (at node 5)
	maximum = 0.0146667 (at node 4)
Accepted packet rate average = 0.0105
	minimum = 0 (at node 0)
	maximum = 0.168 (at node 11)
Injected flit rate average = 0.0104792
	minimum = 0.00666667 (at node 5)
	maximum = 0.0146667 (at node 4)
Accepted flit rate average= 0.0105
	minimum = 0 (at node 0)
	maximum = 0.168 (at node 11)
Injected packet length average = 1
Accepted packet length average = 1
Total in-flight flits = 3 (3 measured)
latency change    = 0.00490114
throughput change = 0.0327381
Class 0:
Packet latency average = 19.5276
	minimum = 7
	maximum = 35
Network latency average = 19.5276
	minimum = 7
	maximum = 35
Slowest packet = 11331
Flit latency average = 19.5524
	minimum = 7
	maximum = 35
Slowest flit = 11331
Fragmentation average = 0
	minimum = 0
	maximum = 0
Injected packet rate average = 0.00995313
	minimum = 0.00625 (at node 5)
	maximum = 0.013 (at node 3)
Accepted packet rate average = 0.00998438
	minimum = 0 (at node 0)
	maximum = 0.15975 (at node 11)
Injected flit rate average = 0.00995313
	minimum = 0.00625 (at node 5)
	maximum = 0.013 (at node 3)
Accepted flit rate average= 0.00998438
	minimum = 0 (at node 0)
	maximum = 0.15975 (at node 11)
Injected packet length average = 1
Accepted packet length average = 1
Total in-flight flits = 2 (2 measured)
latency change    = 0.00602016
throughput change = 0.0516432
Class 0:
Packet latency average = 19.5925
	minimum = 7
	maximum = 35
Network latency average = 19.5925
	minimum = 7
	maximum = 35
Slowest packet = 11331
Flit latency average = 19.6119
	minimum = 7
	maximum = 35
Slowest flit = 11331
Fragmentation average = 0
	minimum = 0
	maximum = 0
Injected packet rate average = 0.010075
	minimum = 0.0078 (at node 5)
	maximum = 0.0124 (at node 3)
Accepted packet rate average = 0.01005
	minimum = 0 (at node 0)
	maximum = 0.1608 (at node 11)
Injected flit rate average = 0.010075
	minimum = 0.0078 (at node 5)
	maximum = 0.0124 (at node 3)
Accepted flit rate average= 0.01005
	minimum = 0 (at node 0)
	maximum = 0.1608 (at node 11)
Injected packet length average = 1
Accepted packet length average = 1
Total in-flight flits = 6 (6 measured)
latency change    = 0.00331458
throughput change = 0.00652985
Class 0:
Packet latency average = 19.5386
	minimum = 7
	maximum = 35
Network latency average = 19.5386
	minimum = 7
	maximum = 35
Slowest packet = 11331
Flit latency average = 19.5551
	minimum = 7
	maximum = 35
Slowest flit = 11331
Fragmentation average = 0
	minimum = 0
	maximum = 0
Injected packet rate average = 0.0100417
	minimum = 0.0075 (at node 5)
	maximum = 0.012 (at node 3)
Accepted packet rate average = 0.0100208
	minimum = 0 (at node 0)
	maximum = 0.160333 (at node 11)
Injected flit rate average = 0.0100417
	minimum = 0.0075 (at node 5)
	maximum = 0.012 (at node 3)
Accepted flit rate average= 0.0100208
	minimum = 0 (at node 0)
	maximum = 0.160333 (at node 11)
Injected packet length average = 1
Accepted packet length average = 1
Total in-flight flits = 6 (6 measured)
latency change    = 0.00275751
throughput change = 0.0029106
Class 0:
Packet latency average = 19.6332
	minimum = 7
	maximum = 35
Network latency average = 19.6332
	minimum = 7
	maximum = 35
Slowest packet = 11331
Flit latency average = 19.6467
	minimum = 7
	maximum = 35
Slowest flit = 11331
Fragmentation average = 0
	minimum = 0
	maximum = 0
Injected packet rate average = 0.0101429
	minimum = 0.00814286 (at node 5)
	maximum = 0.0121429 (at node 4)
Accepted packet rate average = 0.0101607
	minimum = 0 (at node 0)
	maximum = 0.162571 (at node 11)
Injected flit rate average = 0.0101429
	minimum = 0.00814286 (at node 5)
	maximum = 0.0121429 (at node 4)
Accepted flit rate average= 0.0101607
	minimum = 0 (at node 0)
	maximum = 0.162571 (at node 11)
Injected packet length average = 1
Accepted packet length average = 1
Total in-flight flits = 2 (2 measured)
latency change    = 0.00481506
throughput change = 0.0137668
Draining all recorded packets ...
Draining remaining packets ...
Time taken is 10033 cycles
Class 0:
Packet latency average = 19.4198
	minimum = 7
	maximum = 32
Network latency average = 19.4198
	minimum = 7
	maximum = 32
Slowest packet = 12041
Flit latency average = 19.4198
	minimum = 7
	maximum = 32
Slowest flit = 12041
Fragmentation average = 0
	minimum = 0
	maximum = 0
Injected packet rate average = 0.010375
	minimum = 0.004 (at node 6)
	maximum = 0.017 (at node 1)
Accepted packet rate average = 0.010125
	minimum = 0 (at node 0)
	maximum = 0.162 (at node 11)
Injected flit rate average = 0.010375
	minimum = 0.004 (at node 6)
	maximum = 0.017 (at node 1)
Accepted flit rate average= 0.010125
	minimum = 0 (at node 0)
	maximum = 0.162 (at node 11)
Injected packet length average = 1
Accepted packet length average = 1
Total in-flight flits = 4 (0 measured)
latency change    = 1
throughput change = 1
Class 0:
Packet latency average = 19.5545
	minimum = 7
	maximum = 33
Network latency average = 19.5545
	minimum = 7
	maximum = 33
Slowest packet = 12197
Flit latency average = 19.5545
	minimum = 7
	maximum = 33
Slowest flit = 12197
Fragmentation average = 0
	minimum = 0
	maximum = 0
Injected packet rate average = 0.010125
	minimum = 0.007 (at node 6)
	maximum = 0.0145 (at node 7)
Accepted packet rate average = 0.0100313
	minimum = 0 (at node 0)
	maximum = 0.1605 (at node 11)
Injected flit rate average = 0.010125
	minimum = 0.007 (at node 6)
	maximum = 0.0145 (at node 7)
Accepted flit rate average= 0.0100313
	minimum = 0 (at node 0)
	maximum = 0.1605 (at node 11)
Injected packet length average = 1
Accepted packet length average = 1
Total in-flight flits = 3 (0 measured)
latency change    = 0.00689171
throughput change = 0.00934579
Class 0:
Packet latency average = 19.7628
	minimum = 7
	maximum = 34
Network latency average = 19.7628
	minimum = 7
	maximum = 34
Slowest packet = 12459
Flit latency average = 19.7628
	minimum = 7
	maximum = 34
Slowest flit = 12459
Fragmentation average = 0
	minimum = 0
	maximum = 0
Injected packet rate average = 0.0098125
	minimum = 0.003 (at node 6)
	maximum = 0.016 (at node 0)
Accepted packet rate average = 0.00975
	minimum = 0 (at node 0)
	maximum = 0.156 (at node 11)
Injected flit rate average = 0.0098125
	minimum = 0.003 (at node 6)
	maximum = 0.016 (at node 0)
Accepted flit rate average= 0.00975
	minimum = 0 (at node 0)
	maximum = 0.156 (at node 11)
Injected packet length average = 1
Accepted packet length average = 1
Total in-flight flits = 4 (0 measured)
latency change    = 0.0105402
throughput change = 0.0288462
Warmed up ...Time used is 3000 cycles
Class 0:
Packet latency average = 20.1776
	minimum = 7
	maximum = 32
Network latency average = 20.1776
	minimum = 7
	maximum = 32
Slowest packet = 12531
Flit latency average = 20.2308
	minimum = 7
	maximum = 32
Slowest flit = 12510
Fragmentation average = 0
	minimum = 0
	maximum = 0
Injected packet rate average = 0.0096875
	minimum = 0.004 (at node 3)
	maximum = 0.015 (at node 8)
Accepted packet rate average = 0.00975
	minimum = 0 (at node 0)
	maximum = 0.156 (at node 11)
Injected flit rate average = 0.0096875
	minimum = 0.004 (at node 3)
	maximum = 0.015 (at node 8)
Accepted flit rate average= 0.00975
	minimum = 0 (at node 0)
	maximum = 0.156 (at node 11)
Injected packet length average = 1
Accepted packet length average = 1
Total in-flight flits = 3 (3 measured)
latency change    = 0.020558
throughput change = 0
Class 0:
Packet latency average = 20.0391
	minimum = 7
	maximum = 35
Network latency average = 20.0391
	minimum = 7
	maximum = 35
Slowest packet = 12667
Flit latency average = 20.0675
	minimum = 7
	maximum = 35
Slowest flit = 12667
Fragmentation average = 0
	minimum = 0
	maximum = 0
Injected packet rate average = 0.0096875
	minimum = 0.006 (at node 3)
	maximum = 0.014 (at node 8)
Accepted packet rate average = 0.00971875
	minimum = 0 (at node 0)
	maximum = 0.1555 (at node 11)
Injected flit rate average = 0.0096875
	minimum = 0.006 (at node 3)
	maximum = 0.014 (at node 8)
Accepted flit rate average= 0.00971875
	minimum = 0 (at node 0)
	maximum = 0.1555 (at node 11)
Injected packet length average = 1
Accepted packet length average = 1
Total in-flight flits = 3 (3 measured)
latency change    = 0.00691367
throughput change = 0.00321543
Class 0:
Packet latency average = 20.3497
	minimum = 7
	maximum = 35
Network latency average = 20.3497
	minimum = 7
	maximum = 35
Slowest packet = 12667
Flit latency average = 20.3658
	minimum = 7
	maximum = 35
Slowest flit = 12667
Fragmentation average = 0
	minimum = 0
	maximum = 0
Injected packet rate average = 0.00983333
	minimum = 0.00633333 (at node 3)
	maximum = 0.0143333 (at node 8)
Accepted packet rate average = 0.00985417
	minimum = 0 (at node 0)
	maximum = 0.157667 (at node 11)
Injected flit rate average = 0.00983333
	minimum = 0.00633333 (at node 3)
	maximum = 0.0143333 (at node 8)
Accepted flit rate average= 0.00985417
	minimum = 0 (at node 0)
	maximum = 0.157667 (at node 11)
Injected packet length average = 1
Accepted packet length average = 1
Total in-flight flits = 3 (3 measured)
latency change    = 0.0152628
throughput change = 0.0137421
Draining all recorded packets ...
Draining remaining packets ...
Time taken is 6029 cycles
Class 0:
Packet latency average = 20.2119
	minimum = 7
	maximum = 32
Network latency average = 20.2119
	minimum = 7
	maximum = 32
Slowest packet = 12998
Flit latency average = 20.2119
	minimum = 7
	maximum = 32
Slowest flit = 12998
Fragmentation average = 0
	minimum = 0
	maximum = 0
Injected packet rate average = 0.009625
	minimum = 0.003 (at node 12)
	maximum = 0.016 (at node 13)
Accepted packet rate average = 0.0094375
	minimum = 0 (at node 0)
	maximum = 0.151 (at node 11)
Injected flit rate average = 0.009625
	minimum = 0.003 (at node 12)
	maximum = 0.016 (at node 13)
Accepted flit rate average= 0.0094375
	minimum = 0 (at node 0)
	maximum = 0.151 (at node 11)
Injected packet length average = 1
Accepted packet length average = 1
Total in-flight flits = 3 (0 measured)
latency change    = 1
throughput change = 1
Class 0:
Packet latency average = 19.9112
	minimum = 7
	maximum = 33
Network latency average = 19.9112
	minimum = 7
	maximum = 33
Slowest packet = 13160
Flit latency average = 19.9112
	minimum = 7
	maximum = 33
Slowest flit = 13160
Fragmentation average = 0
	minimum = 0
	maximum = 0
Injected packet rate average = 0.00953125
	minimum = 0.006 (at node 7)
	maximum = 0.013 (at node 1)
Accepted packet rate average = 0.0095
	minimum = 0 (at node 0)
	maximum = 0.152 (at node 11)
Injected flit rate average = 0.00953125
	minimum = 0.006 (at node 7)
	maximum = 0.013 (at node 1)
Accepted flit rate average= 0.0095
	minimum = 0 (at node 0)
	maximum = 0.152 (at node 11)
Injected packet length average = 1
Accepted packet length average = 1
Total in-flight flits = 1 (0 measured)
latency change    = 0.0151039
throughput change = 0.00657895
Class 0:
Packet latency average = 19.5799
	minimum = 7
	maximum = 32
Network latency average = 19.5799
	minimum = 7
	maximum = 32
Slowest packet = 13294
Flit latency average = 19.5799
	minimum = 7
	maximum = 32
Slowest flit = 13294
Fragmentation average = 0
	minimum = 0
	maximum = 0
Injected packet rate average = 0.0109375
	minimum = 0.005 (at node 2)
	maximum = 0.018 (at node 4)
Accepted packet rate average = 0.0105625
	minimum = 0 (at node 0)
	maximum = 0.169 (at node 11)
Injected flit rate average = 0.0109375
	minimum = 0.005 (at node 2)
	maximum = 0.018 (at node 4)
Accepted flit rate average= 0.0105625
	minimum = 0 (at node 0)
	maximum = 0.169 (at node 11)
Injected packet length average = 1
Accepted packet length average = 1
Total in-flight flits = 7 (0 measured)
latency change    = 0.0169206
throughput change = 0.100592
Warmed up ...Time used is 3000 cycles
Class 0:
Packet latency average = 19.5886
	minimum = 7
	maximum = 33
Network latency average = 19.5886
	minimum = 7
	maximum = 33
Slowest packet = 13525
Flit latency average = 19.6606
	minimum = 7
	maximum = 33
Slowest flit = 13525
Fragmentation average = 0
	minimum = 0
	maximum = 0
Injected packet rate average = 0.0100625
	minimum = 0.004 (at node 2)
	maximum = 0.018 (at node 5)
Accepted packet rate average = 0.0103125
	minimum = 0 (at node 0)
	maximum = 0.165 (at node 11)
Injected flit rate average = 0.0100625
	minimum = 0.004 (at node 2)
	maximum = 0.018 (at node 5)
Accepted flit rate average= 0.0103125
	minimum = 0 (at node 0)
	maximum = 0.165 (at node 11)
Injected packet length average = 1
Accepted packet length average = 1
Total in-flight flits = 3 (3 measured)
latency change    = 0.00044546
throughput change = 0.0242424
Class 0:
Packet latency average = 19.6851
	minimum = 7
	maximum = 33
Network latency average = 19.6851
	minimum = 7
	maximum = 33
Slowest packet = 13525
Flit latency average = 19.7206
	minimum = 7
	maximum = 33
Slowest flit = 13525
Fragmentation average = 0
	minimum = 0
	maximum = 0
Injected packet rate average = 0.0096875
	minimum = 0.0065 (at node 2)
	maximum = 0.016 (at node 5)
Accepted packet rate average = 0.00984375
	minimum = 0 (at node 0)
	maximum = 0.1575 (at node 11)
Injected flit rate average = 0.0096875
	minimum = 0.0065 (at node 2)
	maximum = 0.016 (at node 5)
Accepted flit rate average= 0.00984375
	minimum = 0 (at node 0)
	maximum = 0.1575 (at node 11)
Injected packet length average = 1
Accepted packet length average = 1
Total in-flight flits = 2 (2 measured)
latency change    = 0.00490003
throughput change = 0.047619
Class 0:
Packet latency average = 19.9216
	minimum = 7
	maximum = 33
Network latency average = 19.9216
	minimum = 7
	maximum = 33
Slowest packet = 13525
Flit latency average = 19.9415
	minimum = 7
	maximum = 33
Slowest flit = 13525
Fragmentation average = 0
	minimum = 0
	maximum = 0
Injected packet rate average = 0.00983333
	minimum = 0.00633333 (at node 2)
	maximum = 0.0133333 (at node 5)
Accepted packet rate average = 0.00997917
	minimum = 0 (at node 0)
	maximum = 0.159667 (at node 11)
Injected flit rate average = 0.00983333
	minimum = 0.00633333 (at node 2)
	maximum = 0.0133333 (at node 5)
Accepted flit rate average= 0.00997917
	minimum = 0 (at node 0)
	maximum = 0.159667 (at node 11)
Injected packet length average = 1
Accepted packet length average = 1
Total in-flight flits = 0 (0 measured)
latency change    = 0.0118738
throughput change = 0.0135699
Draining all recorded packets ...
Draining remaining packets ...
Time taken is 6001 cycles
Class 0:
Packet latency average = 19.5441
	minimum = 7
	maximum = 32
Network latency average = 19.5441
	minimum = 7
	maximum = 32
Slowest packet = 13939
Flit latency average = 19.5441
	minimum = 7
	maximum = 32
Slowest flit = 13939
Fragmentation average = 0
	minimum = 0
	maximum = 0
Injected packet rate average = 0.0086875
	minimum = 0.004 (at node 8)
	maximum = 0.016 (at node 13)
Accepted packet rate average = 0.0085
	minimum = 0 (at node 0)
	maximum = 0.136 (at node 11)
Injected flit rate average = 0.0086875
	minimum = 0.004 (at node 8)
	maximum = 0.016 (at node 13)
Accepted flit rate average= 0.0085
	minimum = 0 (at node 0)
	maximum = 0.136 (at node 11)
Injected packet length average = 1
Accepted packet length average = 1
Total in-flight flits = 3 (0 measured)
latency change    = 1
throughput change = 1
Class 0:
Packet latency average = 19.9527
	minimum = 7
	maximum = 32
Network latency average = 19.9527
	minimum = 7
	maximum = 32
Slowest packet = 13939
Flit latency average = 19.9527
	minimum = 7
	maximum = 32
Slowest flit = 13939
Fragmentation average = 0
	minimum = 0
	maximum = 0
Injected packet rate average = 0.00875
	minimum = 0.0065 (at node 5)
	maximum = 0.013 (at node 13)
Accepted packet rate average = 0.00859375
	minimum = 0 (at node 0)
	maximum = 0.1375 (at node 11)
Injected flit rate average = 0.00875
	minimum = 0.0065 (at node 5)
	maximum = 0.013 (at node 13)
Accepted flit rate average= 0.00859375
	minimum = 0 (at node 0)
	maximum = 0.1375 (at node 11)
Injected packet length average = 1
Accepted packet length average = 1
Total in-flight flits = 5 (0 measured)
latency change    = 0.0204789
throughput change = 0.0109091
Class 0:
Packet latency average = 19.1731
	minimum = 7
	maximum = 33
Network latency average = 19.1731
	minimum = 7
	maximum = 33
Slowest packet = 14235
Flit latency average = 19.1731
	minimum = 7
	maximum = 33
Slowest flit = 14235
Fragmentation average = 0
	minimum = 0
	maximum = 0
Injected packet rate average = 0.0096875
	minimum = 0.004 (at node 1)
	maximum = 0.015 (at node 8)
Accepted packet rate average = 0.00975
	minimum = 0 (at node 0)
	maximum = 0.156 (at node 11)
Injected flit rate average = 0.0096875
	minimum = 0.004 (at node 1)
	maximum = 0.015 (at node 8)
Accepted flit rate average= 0.00975
	minimum = 0 (at node 0)
	maximum = 0.156 (at node 11)
Injected packet length average = 1
Accepted packet length average = 1
Total in-flight flits = 4 (0 measured)
latency change    = 0.0406638
throughput change = 0.11859
Warmed up ...Time used is 3000 cycles
Class 0:
Packet latency average = 19.5724
	minimum = 7
	maximum = 32
Network latency average = 19.5724
	minimum = 7
	maximum = 32
Slowest packet = 14372
Flit latency average = 19.5772
	minimum = 7
	maximum = 32
Slowest flit = 14372
Fragmentation average = 0
	minimum = 0
	maximum = 0
Injected packet rate average = 0.0090625
	minimum = 0.005 (at node 12)
	maximum = 0.015 (at node 6)
Accepted packet rate average = 0.0093125
	minimum = 0 (at node 0)
	maximum = 0.149 (at node 11)
Injected flit rate average = 0.0090625
	minimum = 0.005 (at node 12)
	maximum = 0.015 (at node 6)
Accepted flit rate average= 0.0093125
	minimum = 0 (at node 0)
	maximum = 0.149 (at node 11)
Injected packet length average = 1
Accepted packet length average = 1
Total in-flight flits = 0 (0 measured)
latency change    = 0.020403
throughput change = 0.0469799
Class 0:
Packet latency average = 18.8188
	minimum = 7
	maximum = 34
Network latency average = 18.8188
	minimum = 7
	maximum = 34
Slowest packet = 14557
Flit latency average = 18.8316
	minimum = 7
	maximum = 34
Slowest flit = 14557
Fragmentation average = 0
	minimum = 0
	maximum = 0
Injected packet rate average = 0.00903125
	minimum = 0.005 (at node 4)
	maximum = 0.0115 (at node 2)
Accepted packet rate average = 0.00909375
	minimum = 0 (at node 0)
	maximum = 0.1455 (at node 11)
Injected flit rate average = 0.00903125
	minimum = 0.005 (at node 4)
	maximum = 0.0115 (at node 2)
Accepted flit rate average= 0.00909375
	minimum = 0 (at node 0)
	maximum = 0.1455 (at node 11)
Injected packet length average = 1
Accepted packet length average = 1
Total in-flight flits = 2 (2 measured)
latency change    = 0.0400449
throughput change = 0.024055
Class 0:
Packet latency average = 18.9909
	minimum = 7
	maximum = 34
Network latency average = 18.9909
	minimum = 7
	maximum = 34
Slowest packet = 14557
Flit latency average = 18.9978
	minimum = 7
	maximum = 34
Slowest flit = 14557
Fragmentation average = 0
	minimum = 0
	maximum = 0
Injected packet rate average = 0.00927083
	minimum = 0.00566667 (at node 4)
	maximum = 0.013 (at node 6)
Accepted packet rate average = 0.00927083
	minimum = 0 (at node 0)
	maximum = 0.148333 (at node 11)
Injected flit rate average = 0.00927083
	minimum = 0.00566667 (at node 4)
	maximum = 0.013 (at node 6)
Accepted flit rate average= 0.00927083
	minimum = 0 (at node 0)
	maximum = 0.148333 (at node 11)
Injected packet length average = 1
Accepted packet length average = 1
Total in-flight flits = 4 (4 measured)
latency change    = 0.00906298
[...]
Time taken is 6005 cycles
Class 0:
Packet latency average = 20.1812
	minimum = 7
	maximum = 36
Network latency average = 20.1812
	minimum = 7
	maximum = 36
Slowest packet = 113945
Flit latency average = 20.1812
	minimum = 7
	maximum = 36
Slowest flit = 113945
Fragmentation average = 0
	minimum = 0
	maximum = 0
Injected packet rate average = 0.010125
	minimum = 0.006 (at node 11)
	maximum = 0.016 (at node 15)
Accepted packet rate average = 0.01
	minimum = 0 (at node 0)
	maximum = 0.16 (at node 11)
Injected flit rate average = 0.010125
	minimum = 0.006 (at node 11)
	maximum = 0.016 (at node 15)
Accepted flit rate average= 0.01
	minimum = 0 (at node 0)
	maximum = 0.16 (at node 11)
Injected packet length average = 1
Accepted packet length average = 1
Total in-flight flits = 2 (0 measured)
latency change    = 1
throughput change = 1
Class 0:
Packet latency average = 19.8132
	minimum = 7
	maximum = 36
Network latency average = 19.8132
	minimum = 7
	maximum = 36
Slowest packet = 113945
Flit latency average = 19.8132
	minimum = 7
	maximum = 36
Slowest flit = 113945
Fragmentation average = 0
	minimum = 0
	maximum = 0
Injected packet rate average = 0.011
	minimum = 0.007 (at node 5)
	maximum = 0.016 (at node 12)
Accepted packet rate average = 0.010875
	minimum = 0 (at node 0)
	maximum = 0.174 (at node 11)
Injected flit rate average = 0.011
	minimum = 0.007 (at node 5)
	maximum = 0.016 (at node 12)
Accepted flit rate average= 0.010875
	minimum = 0 (at node 0)
	maximum = 0.174 (at node 11)
Injected packet length average = 1
Accepted packet length average = 1
Total in-flight flits = 4 (0 measured)
latency change    = 0.0185751
throughput change = 0.0804598
Class 0:
Packet latency average = 20.1026
	minimum = 7
	maximum = 33
Network latency average = 20.1026
	minimum = 7
	maximum = 33
Slowest packet = 114201
Flit latency average = 20.1026
	minimum = 7
	maximum = 33
Slowest flit = 114201
Fragmentation average = 0
	minimum = 0
	maximum = 0
Injected packet rate average = 0.009625
	minimum = 0.003 (at node 9)
	maximum = 0.016 (at node 15)
Accepted packet rate average = 0.00975
	minimum = 0 (at node 0)
	maximum = 0.156 (at node 11)
Injected flit rate average = 0.009625
	minimum = 0.003 (at node 9)
	maximum = 0.016 (at node 15)
Accepted flit rate average= 0.00975
	minimum = 0 (at node 0)
	maximum = 0.156 (at node 11)
Injected packet length average = 1
Accepted packet length average = 1
Total in-flight flits = 2 (0 measured)
latency change    = 0.0143935
throughput change = 0.115385
Warmed up ...Time used is 3000 cycles
Class 0:
Packet latency average = 19.4534
	minimum = 7
	maximum = 36
Network latency average = 19.4534
	minimum = 7
	maximum = 36
Slowest packet = 114323
Flit latency average = 19.4233
	minimum = 7
	maximum = 36
Slowest flit = 114323
Fragmentation average = 0
	minimum = 0
	maximum = 0
Injected packet rate average = 0.0105
	minimum = 0.007 (at node 4)
	maximum = 0.019 (at node 5)
Accepted packet rate average = 0.0101875
	minimum = 0 (at node 0)
	maximum = 0.163 (at node 11)
Injected flit rate average = 0.0105
	minimum = 0.007 (at node 4)
	maximum = 0.019 (at node 5)
Accepted flit rate average= 0.0101875
	minimum = 0 (at node 0)
	maximum = 0.163 (at node 11)
Injected packet length average = 1
Accepted packet length average = 1
Total in-flight flits = 7 (7 measured)
latency change    = 0.0333694
throughput change = 0.0429448
Class 0:
Packet latency average = 19.3386
	minimum = 7
	maximum = 36
Network latency average = 19.3386
	minimum = 7
	maximum = 36
Slowest packet = 114323
Flit latency average = 19.324
	minimum = 7
	maximum = 36
Slowest flit = 114323
Fragmentation average = 0
	minimum = 0
	maximum = 0
Injected packet rate average = 0.0100625
	minimum = 0.008 (at node 9)
	maximum = 0.015 (at node 5)
Accepted packet rate average = 0.0100313
	minimum = 0 (at node 0)
	maximum = 0.1605 (at node 11)
Injected flit rate average = 0.0100625
	minimum = 0.008 (at node 9)
	maximum = 0.015 (at node 5)
Accepted flit rate average= 0.0100313
	minimum = 0 (at node 0)
	maximum = 0.1605 (at node 11)
Injected packet length average = 1
Accepted packet length average = 1
Total in-flight flits = 3 (3 measured)
latency change    = 0.00593933
throughput change = 0.0155763
Class 0:
Packet latency average = 19.1863
	minimum = 7
	maximum = 36
Network latency average = 19.1863
	minimum = 7
	maximum = 36
Slowest packet = 114323
Flit latency average = 19.1773
	minimum = 7
	maximum = 36
Slowest flit = 114323
Fragmentation average = 0
	minimum = 0
	maximum = 0
Injected packet rate average = 0.0101042
	minimum = 0.008 (at node 13)
	maximum = 0.0136667 (at node 5)
Accepted packet rate average = 0.0101042
	minimum = 0 (at node 0)
	maximum = 0.161667 (at node 11)
Injected flit rate average = 0.0101042
	minimum = 0.008 (at node 13)
	maximum = 0.0136667 (at node 5)
Accepted flit rate average= 0.0101042
	minimum = 0 (at node 0)
	maximum = 0.161667 (at node 11)
Injected packet length average = 1
Accepted packet length average = 1
Total in-flight flits = 2 (2 measured)
latency change    = 0.00793391
throughput change = 0.00721649
Draining all recorded packets ...
Draining remaining packets ...
Time taken is 6036 cycles
Class 0:
Packet latency average = 19.5802
	minimum = 7
	maximum = 32
Network latency average = 19.5802
	minimum = 7
	maximum = 32
Slowest packet = 114821
Flit latency average = 19.5802
	minimum = 7
	maximum = 32
Slowest flit = 114821
Fragmentation average = 0
	minimum = 0
	maximum = 0
Injected packet rate average = 0.010375
	minimum = 0.006 (at node 2)
	maximum = 0.014 (at node 9)
Accepted packet rate average = 0.010125
	minimum = 0 (at node 0)
	maximum = 0.162 (at node 11)
Injected flit rate average = 0.010375
	minimum = 0.006 (at node 2)
	maximum = 0.014 (at node 9)
Accepted flit rate average= 0.010125
	minimum = 0 (at node 0)
	maximum = 0.162 (at node 11)
Injected packet length average = 1
Accepted packet length average = 1
Total in-flight flits = 4 (0 measured)
latency change    = 1
throughput change = 1
Class 0:
Packet latency average = 19.4892
	minimum = 7
	maximum = 33
Network latency average = 19.4892
	minimum = 7
	maximum = 33
Slowest packet = 115053
Flit latency average = 19.4892
	minimum = 7
	maximum = 33
Slowest flit = 115053
Fragmentation average = 0
	minimum = 0
	maximum = 0
Injected packet rate average = 0.0101875
	minimum = 0.007 (at node 6)
	maximum = 0.015 (at node 0)
Accepted packet rate average = 0.0100938
	minimum = 0 (at node 0)
	maximum = 0.1615 (at node 11)
Injected flit rate average = 0.0101875
	minimum = 0.007 (at node 6)
	maximum = 0.015 (at node 0)
Accepted flit rate average= 0.0100938
	minimum = 0 (at node 0)
	maximum = 0.1615 (at node 11)
Injected packet length average = 1
Accepted packet length average = 1
Total in-flight flits = 3 (0 measured)
latency change    = 0.00467351
throughput change = 0.00309598
Class 0:
Packet latency average = 19.1274
	minimum = 7
	maximum = 33
Network latency average = 19.1274
	minimum = 7
	maximum = 33
Slowest packet = 115143
Flit latency average = 19.1274
	minimum = 7
	maximum = 33
Slowest flit = 115143
Fragmentation average = 0
	minimum = 0
	maximum = 0
Injected packet rate average = 0.0098125
	minimum = 0.003 (at node 4)
	maximum = 0.02 (at node 6)
Accepted packet rate average = 0.0098125
	minimum = 0 (at node 0)
	maximum = 0.157 (at node 11)
Injected flit rate average = 0.0098125
	minimum = 0.003 (at node 4)
	maximum = 0.02 (at node 6)
Accepted flit rate average= 0.0098125
	minimum = 0 (at node 0)
	maximum = 0.157 (at node 11)
Injected packet length average = 1
Accepted packet length average = 1
Total in-flight flits = 3 (0 measured)
latency change    = 0.018914
throughput change = 0.0286624
Warmed up ...Time used is 3000 cycles
Class 0:
Packet latency average = 19.9029
	minimum = 7
	maximum = 33
Network latency average = 19.9029
	minimum = 7
	maximum = 33
Slowest packet = 115313
Flit latency average = 19.882
	minimum = 7
	maximum = 33
Slowest flit = 115313
Fragmentation average = 0
	minimum = 0
	maximum = 0
Injected packet rate average = 0.0113125
	minimum = 0.007 (at node 6)
	maximum = 0.017 (at node 3)
Accepted packet rate average = 0.011125
	minimum = 0 (at node 0)
	maximum = 0.178 (at node 11)
Injected flit rate average = 0.0113125
	minimum = 0.007 (at node 6)
	maximum = 0.017 (at node 3)
Accepted flit rate average= 0.011125
	minimum = 0 (at node 0)
	maximum = 0.178 (at node 11)
Injected packet length average = 1
Accepted packet length average = 1
Total in-flight flits = 6 (6 measured)
latency change    = 0.0389627
throughput change = 0.117978
Class 0:
Packet latency average = 19.8165
	minimum = 7
	maximum = 38
Network latency average = 19.8165
	minimum = 7
	maximum = 38
Slowest packet = 115592
Flit latency average = 19.8061
	minimum = 7
	maximum = 38
Slowest flit = 115592
Fragmentation average = 0
	minimum = 0
	maximum = 0
Injected packet rate average = 0.010375
	minimum = 0.0075 (at node 8)
	maximum = 0.0155 (at node 3)
Accepted packet rate average = 0.0103125
	minimum = 0 (at node 0)
	maximum = 0.165 (at node 11)
Injected flit rate average = 0.010375
	minimum = 0.0075 (at node 8)
	maximum = 0.0155 (at node 3)
Accepted flit rate average= 0.0103125
	minimum = 0 (at node 0)
	maximum = 0.165 (at node 11)
Injected packet length average = 1
Accepted packet length average = 1
Total in-flight flits = 5 (5 measured)
latency change    = 0.00435714
throughput change = 0.0787879
Class 0:
Packet latency average = 19.6883
	minimum = 7
	maximum = 38
Network latency average = 19.6883
	minimum = 7
	maximum = 38
Slowest packet = 115592
Flit latency average = 19.6821
	minimum = 7
	maximum = 38
Slowest flit = 115592
Fragmentation average = 0
	minimum = 0
	maximum = 0
Injected packet rate average = 0.010375
	minimum = 0.008 (at node 8)
	maximum = 0.0136667 (at node 3)
Accepted packet rate average = 0.0103542
	minimum = 0 (at node 0)
	maximum = 0.165667 (at node 11)
Injected flit rate average = 0.010375
	minimum = 0.008 (at node 8)
	maximum = 0.0136667 (at node 3)
Accepted flit rate average= 0.0103542
	minimum = 0 (at node 0)
	maximum = 0.165667 (at node 11)
Injected packet length average = 1
Accepted packet length average = 1
Total in-flight flits = 4 (4 measured)
latency change    = 0.00651427
throughput change = 0.00402414
Class 0:
Packet latency average = 19.7727
	minimum = 7
	maximum = 38
Network latency average = 19.7727
	minimum = 7
	maximum = 38
Slowest packet = 115592
Flit latency average = 19.7678
	minimum = 7
	maximum = 38
Slowest flit = 115592
Fragmentation average = 0
	minimum = 0
	maximum = 0
Injected packet rate average = 0.0105781
	minimum = 0.009 (at node 7)
	maximum = 0.0125 (at node 3)
Accepted packet rate average = 0.0105625
	minimum = 0 (at node 0)
	maximum = 0.169 (at node 11)
Injected flit rate average = 0.0105781
	minimum = 0.009 (at node 7)
	maximum = 0.0125 (at node 3)
Accepted flit rate average= 0.0105625
	minimum = 0 (at node 0)
	maximum = 0.169 (at node 11)
Injected packet length average = 1
Accepted packet length average = 1
Total in-flight flits = 4 (4 measured)
latency change    = 0.00426855
throughput change = 0.0197239
Class 0:
Packet latency average = 19.8807
	minimum = 7
	maximum = 38
Network latency average = 19.8807
	minimum = 7
	maximum = 38
Slowest packet = 115592
Flit latency average = 19.8763
	minimum = 7
	maximum = 38
Slowest flit = 115592
Fragmentation average = 0
	minimum = 0
	maximum = 0
Injected packet rate average = 0.0105
	minimum = 0.0084 (at node 9)
	maximum = 0.0124 (at node 3)
Accepted packet rate average = 0.0105125
	minimum = 0 (at node 0)
	maximum = 0.1682 (at node 11)
Injected flit rate average = 0.0105
	minimum = 0.0084 (at node 9)
	maximum = 0.0124 (at node 3)
Accepted flit rate average= 0.0105125
	minimum = 0 (at node 0)
	maximum = 0.1682 (at node 11)
Injected packet length average = 1
Accepted packet length average = 1
Total in-flight flits = 2 (2 measured)
latency change    = 0.00543284
throughput change = 0.00475624
Draining all recorded packets ...
Draining remaining packets ...
Time taken is 8047 cycles
Class 0:
Packet latency average = 19.0366
	minimum = 7
	maximum = 34
Network latency average = 19.0366
	minimum = 7
	maximum = 34
Slowest packet = 116170
Flit latency average = 19.0366
	minimum = 7
	maximum = 34
Slowest flit = 116170
Fragmentation average = 0
	minimum = 0
	maximum = 0
Injected packet rate average = 0.010625
	minimum = 0.006 (at node 2)
	maximum = 0.016 (at node 6)
Accepted packet rate average = 0.01025
	minimum = 0 (at node 0)
	maximum = 0.164 (at node 11)
Injected flit rate average = 0.010625
	minimum = 0.006 (at node 2)
	maximum = 0.016 (at node 6)
Accepted flit rate average= 0.01025
	minimum = 0 (at node 0)
	maximum = 0.164 (at node 11)
Injected packet length average = 1
Accepted packet length average = 1
Total in-flight flits = 6 (0 measured)
latency change    = 1
throughput change = 1
Class 0:
Packet latency average = 19.0287
	minimum = 7
	maximum = 34
Network latency average = 19.0287
	minimum = 7
	maximum = 34
Slowest packet = 116170
Flit latency average = 19.0287
	minimum = 7
	maximum = 34
Slowest flit = 116170
Fragmentation average = 0
	minimum = 0
	maximum = 0
Injected packet rate average = 0.009875
	minimum = 0.0065 (at node 2)
	maximum = 0.0145 (at node 6)
Accepted packet rate average = 0.0098125
	minimum = 0 (at node 0)
	maximum = 0.157 (at node 11)
Injected flit rate average = 0.009875
	minimum = 0.0065 (at node 2)
	maximum = 0.0145 (at node 6)
Accepted flit rate average= 0.0098125
	minimum = 0 (at node 0)
	maximum = 0.157 (at node 11)
Injected packet length average = 1
Accepted packet length average = 1
Total in-flight flits = 2 (0 measured)
latency change    = 0.000416369
throughput change = 0.044586
Class 0:
Packet latency average = 20.0482
	minimum = 7
	maximum = 32
Network latency average = 20.0482
	minimum = 7
	maximum = 32
Slowest packet = 116436
Flit latency average = 20.0482
	minimum = 7
	maximum = 32
Slowest flit = 116436
Fragmentation average = 0
	minimum = 0
	maximum = 0
Injected packet rate average = 0.0103125
	minimum = 0.002 (at node 4)
	maximum = 0.018 (at node 2)
Accepted packet rate average = 0.010375
	minimum = 0 (at node 0)
	maximum = 0.166 (at node 11)
Injected flit rate average = 0.0103125
	minimum = 0.002 (at node 4)
	maximum = 0.018 (at node 2)
Accepted flit rate average= 0.010375
	minimum = 0 (at node 0)
	maximum = 0.166 (at node 11)
Injected packet length average = 1
Accepted packet length average = 1
Total in-flight flits = 1 (0 measured)
latency change    = 0.050854
throughput change = 0.0542169
Warmed up ...Time used is 3000 cycles
Class 0:
Packet latency average = 20.1164
	minimum = 7
	maximum = 34
Network latency average = 20.1164
	minimum = 7
	maximum = 34
Slowest packet = 116627
Flit latency average = 20.0612
	minimum = 7
	maximum = 34
Slowest flit = 116627
Fragmentation average = 0
	minimum = 0
	maximum = 0
Injected packet rate average = 0.0093125
	minimum = 0.005 (at node 2)
	maximum = 0.014 (at node 13)
Accepted packet rate average = 0.0091875
	minimum = 0 (at node 0)
	maximum = 0.147 (at node 11)
Injected flit rate average = 0.0093125
	minimum = 0.005 (at node 2)
	maximum = 0.014 (at node 13)
Accepted flit rate average= 0.0091875
	minimum = 0 (at node 0)
	maximum = 0.147 (at node 11)
Injected packet length average = 1
Accepted packet length average = 1
Total in-flight flits = 3 (3 measured)
latency change    = 0.00339253
throughput change = 0.129252
Class 0:
Packet latency average = 19.2461
	minimum = 7
	maximum = 34
Network latency average = 19.2461
	minimum = 7
	maximum = 34
Slowest packet = 116627
Flit latency average = 19.2233
	minimum = 7
	maximum = 34
Slowest flit = 116627
Fragmentation average = 0
	minimum = 0
	maximum = 0
Injected packet rate average = 0.00996875
	minimum = 0.006 (at node 8)
	maximum = 0.0135 (at node 9)
Accepted packet rate average = 0.0099375
	minimum = 0 (at node 0)
	maximum = 0.159 (at node 11)
Injected flit rate average = 0.00996875
	minimum = 0.006 (at node 8)
	maximum = 0.0135 (at node 9)
Accepted flit rate average= 0.0099375
	minimum = 0 (at node 0)
	maximum = 0.159 (at node 11)
Injected packet length average = 1
Accepted packet length average = 1
Total in-flight flits = 2 (2 measured)
latency change    = 0.0452239
throughput change = 0.0754717
Class 0:
Packet latency average = 19.6035
	minimum = 7
	maximum = 34
Network latency average = 19.6035
	minimum = 7
	maximum = 34
Slowest packet = 116627
Flit latency average = 19.5868
	minimum = 7
	maximum = 34
Slowest flit = 116627
Fragmentation average = 0
	minimum = 0
	maximum = 0
Injected packet rate average = 0.00954167
	minimum = 0.007 (at node 2)
	maximum = 0.013 (at node 9)
Accepted packet rate average = 0.00947917
	minimum = 0 (at node 0)
	maximum = 0.151667 (at node 11)
Injected flit rate average = 0.00954167
	minimum = 0.007 (at node 2)
	maximum = 0.013 (at node 9)
Accepted flit rate average= 0.00947917
	minimum = 0 (at node 0)
	maximum = 0.151667 (at node 11)
Injected packet length average = 1
Accepted packet length average = 1
Total in-flight flits = 4 (4 measured)
latency change    = 0.0182349
throughput change = 0.0483516
Class 0:
Packet latency average = 19.7169
	minimum = 7
	maximum = 34
Network latency average = 19.7169
	minimum = 7
	maximum = 34
Slowest packet = 116627
Flit latency average = 19.7042
	minimum = 7
	maximum = 34
Slowest flit = 116627
Fragmentation average = 0
	minimum = 0
	maximum = 0
Injected packet rate average = 0.0095625
	minimum = 0.00775 (at node 3)
	maximum = 0.011 (at node 5)
Accepted packet rate average = 0.0095625
	minimum = 0 (at node 0)
	maximum = 0.153 (at node 11)
Injected flit rate average = 0.0095625
	minimum = 0.00775 (at node 3)
	maximum = 0.011 (at node 5)
Accepted flit rate average= 0.0095625
	minimum = 0 (at node 0)
	maximum = 0.153 (at node 11)
Injected packet length average = 1
Accepted packet length average = 1
Total in-flight flits = 1 (1 measured)
latency change    = 0.00574804
throughput change = 0.0087146
Class 0:
Packet latency average = 19.5607
	minimum = 7
	maximum = 34
Network latency average = 19.5607
	minimum = 7
	maximum = 34
Slowest packet = 116627
Flit latency average = 19.5507
	minimum = 7
	maximum = 34
Slowest flit = 116627
Fragmentation average = 0
	minimum = 0
	maximum = 0
Injected packet rate average = 0.0095375
	minimum = 0.0082 (at node 2)
	maximum = 0.012 (at node 11)
Accepted packet rate average = 0.0094875
	minimum = 0 (at node 0)
	maximum = 0.1518 (at node 11)
Injected flit rate average = 0.0095375
	minimum = 0.0082 (at node 2)
	maximum = 0.012 (at node 11)
Accepted flit rate average= 0.0094875
	minimum = 0 (at node 0)
	maximum = 0.1518 (at node 11)
Injected packet length average = 1
Accepted packet length average = 1
Total in-flight flits = 5 (5 measured)
latency change    = 0.00798395
throughput change = 0.00790514
Draining all recorded packets ...
Draining remaining packets ...
Time taken is 8041 cycles
====== Overall Traffic Statistics ======
====== Traffic class 0 ======
Packet latency average = 19.6253 (100 samples)
	minimum = 7 (100 samples)
	maximum = 35.39 (100 samples)
Network latency average = 19.6253 (100 samples)
	minimum = 7 (100 samples)
	maximum = 35.39 (100 samples)
Flit latency average = 19.6377 (100 samples)
	minimum = 7 (100 samples)
	maximum = 35.39 (100 samples)
Fragmentation average = 0 (100 samples)
	minimum = 0 (100 samples)
	maximum = 0 (100 samples)
Injected packet rate average = 0.00997946 (100 samples)
	minimum = 0.0073436 (100 samples)
	maximum = 0.0129036 (100 samples)
Accepted packet rate average = 0.00997944 (100 samples)
	minimum = 0 (100 samples)
	maximum = 0.159671 (100 samples)
Injected flit rate average = 0.00997946 (100 samples)
	minimum = 0.0073436 (100 samples)
	maximum = 0.0129036 (100 samples)
Accepted flit rate average = 0.00997944 (100 samples)
	minimum = 0 (100 samples)
	maximum = 0.159671 (100 samples)
Injected packet size average = 1 (100 samples)
Accepted packet size average = 1 (100 samples)
Hops average = 3.49302 (100 samples)
Total run time 4.38644
