BEGIN Configuration File: /tmp/bs_1137237_264667.cfg
topology = mesh;
k = 4;
n = 2;
routing_function = gnn_ppo_route_4x4;
num_vcs = 4;
vc_buf_size = 4;
wait_for_tail_credit = 1;
vc_allocator = islip;
sw_allocator = islip;
alloc_iters = 1;
credit_delay = 2;
routing_delay = 1;
vc_alloc_delay = 1;
sw_alloc_delay = 1;
input_speedup = 2;
output_speedup = 1;
internal_speedup = 1.0;
traffic = uniform;
packet_size = 1;
sim_type = latency;
injection_rate = 0.05;
warmup_periods = 3;
sample_period = 1000;
sim_count = 100;
seed = 0;

END Configuration File: /tmp/bs_1137237_264667.cfg
Class 0:
Packet latency average = 19.3385
	minimum = 7
	maximum = 38
Network latency average = 19.3385
	minimum = 7
	maximum = 38
Slowest packet = 369
Flit latency average = 19.3385
	minimum = 7
	maximum = 38
Slowest flit = 369
Fragmentation average = 0
	minimum = 0
	maximum = 0
Injected packet rate average = 0.048875
	minimum = 0.041 (at node 5)
	maximum = 0.054 (at node 1)
Accepted packet rate average = 0.0481875
	minimum = 0.038 (at node 11)
	maximum = 0.054 (at node 0)
Injected flit rate average = 0.048875
	minimum = 0.041 (at node 5)
	maximum = 0.054 (at node 1)
Accepted flit rate average= 0.0481875
	minimum = 0.038 (at node 11)
	maximum = 0.054 (at node 0)
Injected packet length average = 1
Accepted packet length average = 1
Total in-flight flits = 11 (0 measured)
latency change    = 1
throughput change = 1
Class 0:
Packet latency average = 19.4974
	minimum = 7
	maximum = 38
Network latency average = 19.4974
	minimum = 7
	maximum = 38
Slowest packet = 369
Flit latency average = 19.4974
	minimum = 7
	maximum = 38
Slowest flit = 369
Fragmentation average = 0
	minimum = 0
	maximum = 0
Injected packet rate average = 0.049125
	minimum = 0.0395 (at node 8)
	maximum = 0.057 (at node 12)
Accepted packet rate average = 0.04875
	minimum = 0.0415 (at node 14)
	maximum = 0.055 (at node 12)
Injected flit rate average = 0.049125
	minimum = 0.0395 (at node 8)
	maximum = 0.057 (at node 12)
Accepted flit rate average= 0.04875
	minimum = 0.0415 (at node 14)
	maximum = 0.055 (at node 12)
Injected packet length average = 1
Accepted packet length average = 1
Total in-flight flits = 12 (0 measured)
latency change    = 0.00815053
throughput change = 0.0115385
Class 0:
Packet latency average = 19.5177
	minimum = 7
	maximum = 38
Network latency average = 19.5177
	minimum = 7
	maximum = 38
Slowest packet = 1988
Flit latency average = 19.5177
	minimum = 7
	maximum = 38
Slowest flit = 1988
Fragmentation average = 0
	minimum = 0
	maximum = 0
Injected packet rate average = 0.0518125
	minimum = 0.045 (at node 4)
	maximum = 0.059 (at node 1)
Accepted packet rate average = 0.0513125
	minimum = 0.041 (at node 4)
	maximum = 0.062 (at node 15)
Injected flit rate average = 0.0518125
	minimum = 0.045 (at node 4)
	maximum = 0.059 (at node 1)
Accepted flit rate average= 0.0513125
	minimum = 0.041 (at node 4)
	maximum = 0.062 (at node 15)
Injected packet length average = 1
Accepted packet length average = 1
Total in-flight flits = 20 (0 measured)
latency change    = 0.00103627
throughput change = 0.0499391
Warmed up ...Time used is 3000 cycles
Class 0:
Packet latency average = 19.6658
	minimum = 7
	maximum = 39
Network latency average = 19.6658
	minimum = 7
	maximum = 39
Slowest packet = 2675
Flit latency average = 19.7539
	minimum = 7
	maximum = 39
Slowest flit = 2675
Fragmentation average = 0
	minimum = 0
	maximum = 0
Injected packet rate average = 0.0480625
	minimum = 0.035 (at node 0)
	maximum = 0.057 (at node 9)
Accepted packet rate average = 0.048
	minimum = 0.037 (at node 15)
	maximum = 0.06 (at node 6)
Injected flit rate average = 0.0480625
	minimum = 0.035 (at node 0)
	maximum = 0.057 (at node 9)
Accepted flit rate average= 0.048
	minimum = 0.037 (at node 15)
	maximum = 0.06 (at node 6)
Injected packet length average = 1
Accepted packet length average = 1
Total in-flight flits = 21 (21 measured)
latency change    = 0.00753156
throughput change = 0.0690104
Class 0:
Packet latency average = 19.6037
	minimum = 7
	maximum = 39
Network latency average = 19.6037
	minimum = 7
	maximum = 39
Slowest packet = 2675
Flit latency average = 19.6486
	minimum = 7
	maximum = 39
Slowest flit = 2675
Fragmentation average = 0
	minimum = 0
	maximum = 0
Injected packet rate average = 0.0476875
	minimum = 0.0365 (at node 0)
	maximum = 0.0575 (at node 9)
Accepted packet rate average = 0.0479375
	minimum = 0.039 (at node 15)
	maximum = 0.061 (at node 6)
Injected flit rate average = 0.0476875
	minimum = 0.0365 (at node 0)
	maximum = 0.0575 (at node 9)
Accepted flit rate average= 0.0479375
	minimum = 0.039 (at node 15)
	maximum = 0.061 (at node 6)
Injected packet length average = 1
Accepted packet length average = 1
Total in-flight flits = 12 (12 measured)
latency change    = 0.00316658
throughput change = 0.00130378
Class 0:
Packet latency average = 19.6755
	minimum = 7
	maximum = 39
Network latency average = 19.6755
	minimum = 7
	maximum = 39
Slowest packet = 2675
Flit latency average = 19.7046
	minimum = 7
	maximum = 39
Slowest flit = 2675
Fragmentation average = 0
	minimum = 0
	maximum = 0
Injected packet rate average = 0.0481667
	minimum = 0.041 (at node 0)
	maximum = 0.057 (at node 15)
Accepted packet rate average = 0.0483125
	minimum = 0.0413333 (at node 4)
	maximum = 0.0573333 (at node 6)
Injected flit rate average = 0.0481667
	minimum = 0.041 (at node 0)
	maximum = 0.057 (at node 15)
Accepted flit rate average= 0.0483125
	minimum = 0.0413333 (at node 4)
	maximum = 0.0573333 (at node 6)
Injected packet length average = 1
Accepted packet length average = 1
Total in-flight flits = 13 (13 measured)
latency change    = 0.00364983
throughput change = 0.00776197
Class 0:
Packet latency average = 19.6081
	minimum = 7
	maximum = 39
Network latency average = 19.6081
	minimum = 7
	maximum = 39
Slowest packet = 2675
Flit latency average = 19.6301
	minimum = 7
	maximum = 39
Slowest flit = 2675
Fragmentation average = 0
	minimum = 0
	maximum = 0
Injected packet rate average = 0.0488906
	minimum = 0.04275 (at node 0)
	maximum = 0.054 (at node 15)
Accepted packet rate average = 0.0489531
	minimum = 0.04275 (at node 4)
	maximum = 0.0535 (at node 7)
Injected flit rate average = 0.0488906
	minimum = 0.04275 (at node 0)
	maximum = 0.054 (at node 15)
Accepted flit rate average= 0.0489531
	minimum = 0.04275 (at node 4)
	maximum = 0.0535 (at node 7)
Injected packet length average = 1
Accepted packet length average = 1
Total in-flight flits = 16 (16 measured)
latency change    = 0.00343817
throughput change = 0.0130865
Draining all recorded packets ...
Draining remaining packets ...
Time taken is 7061 cycles
Class 0:
Packet latency average = 19.3575
	minimum = 7
	maximum = 38
Network latency average = 19.3575
	minimum = 7
	maximum = 38
Slowest packet = 5603
Flit latency average = 19.3575
	minimum = 7
	maximum = 38
Slowest flit = 5603
Fragmentation average = 0
	minimum = 0
	maximum = 0
Injected packet rate average = 0.0503125
	minimum = 0.04 (at node 12)
	maximum = 0.06 (at node 6)
Accepted packet rate average = 0.049125
	minimum = 0.034 (at node 13)
	maximum = 0.061 (at node 8)
Injected flit rate average = 0.0503125
	minimum = 0.04 (at node 12)
	maximum = 0.06 (at node 6)
Accepted flit rate average= 0.049125
	minimum = 0.034 (at node 13)
	maximum = 0.061 (at node 8)
Injected packet length average = 1
Accepted packet length average = 1
Total in-flight flits = 19 (0 measured)
latency change    = 1
throughput change = 1
Class 0:
Packet latency average = 19.4697
	minimum = 7
	maximum = 38
Network latency average = 19.4697
	minimum = 7
	maximum = 38
Slowest packet = 5603
Flit latency average = 19.4697
	minimum = 7
	maximum = 38
Slowest flit = 5603
Fragmentation average = 0
	minimum = 0
	maximum = 0
Injected packet rate average = 0.051125
	minimum = 0.045 (at node 7)
	maximum = 0.0625 (at node 6)
Accepted packet rate average = 0.0505625
	minimum = 0.043 (at node 14)
	maximum = 0.063 (at node 8)
Injected flit rate average = 0.051125
	minimum = 0.045 (at node 7)
	maximum = 0.0625 (at node 6)
Accepted flit rate average= 0.0505625
	minimum = 0.043 (at node 14)
	maximum = 0.063 (at node 8)
Injected packet length average = 1
Accepted packet length average = 1
Total in-flight flits = 18 (0 measured)
latency change    = 0.00576328
throughput change = 0.0284302
Class 0:
Packet latency average = 19.451
	minimum = 7
	maximum = 38
Network latency average = 19.451
	minimum = 7
	maximum = 38
Slowest packet = 7842
Flit latency average = 19.451
	minimum = 7
	maximum = 38
Slowest flit = 7842
Fragmentation average = 0
	minimum = 0
	maximum = 0
Injected packet rate average = 0.0464375
	minimum = 0.035 (at node 4)
	maximum = 0.057 (at node 10)
Accepted packet rate average = 0.0465625
	minimum = 0.033 (at node 5)
	maximum = 0.059 (at node 12)
Injected flit rate average = 0.0464375
	minimum = 0.035 (at node 4)
	maximum = 0.057 (at node 10)
Accepted flit rate average= 0.0465625
	minimum = 0.033 (at node 5)
	maximum = 0.059 (at node 12)
Injected packet length average = 1
Accepted packet length average = 1
Total in-flight flits = 16 (0 measured)
latency change    = 0.000961852
throughput change = 0.085906
Warmed up ...Time used is 3000 cycles
Class 0:
Packet latency average = 18.8786
	minimum = 7
	maximum = 38
Network latency average = 18.8786
	minimum = 7
	maximum = 38
Slowest packet = 8156
Flit latency average = 18.9405
	minimum = 7
	maximum = 38
Slowest flit = 8156
Fragmentation average = 0
	minimum = 0
	maximum = 0
Injected packet rate average = 0.050125
	minimum = 0.039 (at node 2)
	maximum = 0.059 (at node 11)
Accepted packet rate average = 0.0504375
	minimum = 0.036 (at node 4)
	maximum = 0.06 (at node 0)
Injected flit rate average = 0.050125
	minimum = 0.039 (at node 2)
	maximum = 0.059 (at node 11)
Accepted flit rate average= 0.0504375
	minimum = 0.036 (at node 4)
	maximum = 0.06 (at node 0)
Injected packet length average = 1
Accepted packet length average = 1
Total in-flight flits = 11 (11 measured)
latency change    = 0.0303185
throughput change = 0.0768278
Class 0:
Packet latency average = 19.3751
	minimum = 7
	maximum = 38
Network latency average = 19.3751
	minimum = 7
	maximum = 38
Slowest packet = 8156
Flit latency average = 19.4009
	minimum = 7
	maximum = 38
Slowest flit = 8156
Fragmentation average = 0
	minimum = 0
	maximum = 0
Injected packet rate average = 0.0509375
	minimum = 0.042 (at node 3)
	maximum = 0.063 (at node 12)
Accepted packet rate average = 0.0509063
	minimum = 0.043 (at node 4)
	maximum = 0.0615 (at node 0)
Injected flit rate average = 0.0509375
	minimum = 0.042 (at node 3)
	maximum = 0.063 (at node 12)
Accepted flit rate average= 0.0509063
	minimum = 0.043 (at node 4)
	maximum = 0.0615 (at node 0)
Injected packet length average = 1
Accepted packet length average = 1
Total in-flight flits = 17 (17 measured)
latency change    = 0.0256228
throughput change = 0.0092081
Class 0:
Packet latency average = 19.3753
	minimum = 7
	maximum = 39
Network latency average = 19.3753
	minimum = 7
	maximum = 39
Slowest packet = 9549
Flit latency average = 19.3923
	minimum = 7
	maximum = 39
Slowest flit = 9549
Fragmentation average = 0
	minimum = 0
	maximum = 0
Injected packet rate average = 0.0513125
	minimum = 0.0443333 (at node 14)
	maximum = 0.058 (at node 0)
Accepted packet rate average = 0.0513542
	minimum = 0.045 (at node 4)
	maximum = 0.0573333 (at node 0)
Injected flit rate average = 0.0513125
	minimum = 0.0443333 (at node 14)
	maximum = 0.058 (at node 0)
Accepted flit rate average= 0.0513542
	minimum = 0.045 (at node 4)
	maximum = 0.0573333 (at node 0)
Injected packet length average = 1
Accepted packet length average = 1
Total in-flight flits = 14 (14 measured)
latency change    = 9.17205e-06
throughput change = 0.00872211
Class 0:
Packet latency average = 19.3567
	minimum = 7
	maximum = 39
Network latency average = 19.3567
	minimum = 7
	maximum = 39
Slowest packet = 9549
Flit latency average = 19.3695
	minimum = 7
	maximum = 39
Slowest flit = 9549
Fragmentation average = 0
	minimum = 0
	maximum = 0
Injected packet rate average = 0.0519063
	minimum = 0.04575 (at node 1)
	maximum = 0.05925 (at node 12)
Accepted packet rate average = 0.0518906
	minimum = 0.046 (at node 9)
	maximum = 0.056 (at node 3)
Injected flit rate average = 0.0519063
	minimum = 0.04575 (at node 1)
	maximum = 0.05925 (at node 12)
Accepted flit rate average= 0.0518906
	minimum = 0.046 (at node 9)
	maximum = 0.056 (at node 3)
Injected packet length average = 1
Accepted packet length average = 1
Total in-flight flits = 17 (17 measured)
latency change    = 0.000956927
throughput change = 0.0103383
Draining all recorded packets ...
Draining remaining packets ...
Time taken is 7050 cycles
Class 0:
Packet latency average = 19.4388
	minimum = 7
	maximum = 39
Network latency average = 19.4388
	minimum = 7
	maximum = 39
Slowest packet = 12030
Flit latency average = 19.4388
	minimum = 7
	maximum = 39
Slowest flit = 12030
Fragmentation average = 0
	minimum = 0
	maximum = 0
Injected packet rate average = 0.0488125
	minimum = 0.036 (at node 6)
	maximum = 0.064 (at node 2)
Accepted packet rate average = 0.048
	minimum = 0.03 (at node 7)
	maximum = 0.06 (at node 6)
Injected flit rate average = 0.0488125
	minimum = 0.036 (at node 6)
	maximum = 0.064 (at node 2)
Accepted flit rate average= 0.048
	minimum = 0.03 (at node 7)
	maximum = 0.06 (at node 6)
Injected packet length average = 1
Accepted packet length average = 1
Total in-flight flits = 13 (0 measured)
latency change    = 1
throughput change = 1
Class 0:
Packet latency average = 19.409
	minimum = 7
	maximum = 39
Network latency average = 19.409
	minimum = 7
	maximum = 39
Slowest packet = 12030
Flit latency average = 19.409
	minimum = 7
	maximum = 39
Slowest flit = 12030
Fragmentation average = 0
	minimum = 0
	maximum = 0
Injected packet rate average = 0.0492812
	minimum = 0.04 (at node 0)
	maximum = 0.057 (at node 10)
Accepted packet rate average = 0.04875
	minimum = 0.034 (at node 4)
	maximum = 0.0635 (at node 9)
Injected flit rate average = 0.0492812
	minimum = 0.04 (at node 0)
	maximum = 0.057 (at node 10)
Accepted flit rate average= 0.04875
	minimum = 0.034 (at node 4)
	maximum = 0.0635 (at node 9)
Injected packet length average = 1
Accepted packet length average = 1
Total in-flight flits = 17 (0 measured)
latency change    = 0.0015368
throughput change = 0.0153846
Class 0:
Packet latency average = 19.0696
	minimum = 7
	maximum = 38
Network latency average = 19.0696
	minimum = 7
	maximum = 38
Slowest packet = 13303
Flit latency average = 19.0696
	minimum = 7
	maximum = 38
Slowest flit = 13303
Fragmentation average = 0
	minimum = 0
	maximum = 0
Injected packet rate average = 0.0493125
	minimum = 0.04 (at node 2)
	maximum = 0.06 (at node 5)
Accepted packet rate average = 0.049375
	minimum = 0.034 (at node 15)
	maximum = 0.062 (at node 10)
Injected flit rate average = 0.0493125
	minimum = 0.04 (at node 2)
	maximum = 0.06 (at node 5)
Accepted flit rate average= 0.049375
	minimum = 0.034 (at node 15)
	maximum = 0.062 (at node 10)
Injected packet length average = 1
Accepted packet length average = 1
Total in-flight flits = 16 (0 measured)
latency change    = 0.0177955
throughput change = 0.0126582
Warmed up ...Time used is 3000 cycles
Class 0:
Packet latency average = 19.6797
	minimum = 7
	maximum = 41
Network latency average = 19.6797
	minimum = 7
	maximum = 41
Slowest packet = 14020
Flit latency average = 19.6509
	minimum = 7
	maximum = 41
Slowest flit = 14020
Fragmentation average = 0
	minimum = 0
	maximum = 0
Injected packet rate average = 0.047625
	minimum = 0.039 (at node 15)
	maximum = 0.062 (at node 12)
Accepted packet rate average = 0.0474375
	minimum = 0.03 (at node 14)
	maximum = 0.063 (at node 13)
Injected flit rate average = 0.047625
	minimum = 0.039 (at node 15)
	maximum = 0.062 (at node 12)
Accepted flit rate average= 0.0474375
	minimum = 0.03 (at node 14)
	maximum = 0.063 (at node 13)
Injected packet length average = 1
Accepted packet length average = 1
Total in-flight flits = 19 (19 measured)
latency change    = 0.0309993
throughput change = 0.0408432
Class 0:
Packet latency average = 19.6734
	minimum = 7
	maximum = 41
Network latency average = 19.6734
	minimum = 7
	maximum = 41
Slowest packet = 14020
Flit latency average = 19.6598
	minimum = 7
	maximum = 41
Slowest flit = 14020
Fragmentation average = 0
	minimum = 0
	maximum = 0
Injected packet rate average = 0.0500312
	minimum = 0.043 (at node 5)
	maximum = 0.0585 (at node 12)
Accepted packet rate average = 0.049875
	minimum = 0.038 (at node 14)
	maximum = 0.06 (at node 13)
Injected flit rate average = 0.0500312
	minimum = 0.043 (at node 5)
	maximum = 0.0585 (at node 12)
Accepted flit rate average= 0.049875
	minimum = 0.038 (at node 14)
	maximum = 0.06 (at node 13)
Injected packet length average = 1
Accepted packet length average = 1
Total in-flight flits = 21 (21 measured)
latency change    = 0.000318158
throughput change = 0.0488722
Class 0:
Packet latency average = 19.6633
	minimum = 7
	maximum = 41
Network latency average = 19.6633
	minimum = 7
	maximum = 41
Slowest packet = 14020
Flit latency average = 19.6543
	minimum = 7
	maximum = 41
Slowest flit = 14020
Fragmentation average = 0
	minimum = 0
	maximum = 0
Injected packet rate average = 0.0501042
	minimum = 0.044 (at node 15)
	maximum = 0.057 (at node 7)
Accepted packet rate average = 0.0500833
	minimum = 0.0433333 (at node 14)
	maximum = 0.059 (at node 13)
Injected flit rate average = 0.0501042
	minimum = 0.044 (at node 15)
	maximum = 0.057 (at node 7)
Accepted flit rate average= 0.0500833
	minimum = 0.0433333 (at node 14)
	maximum = 0.059 (at node 13)
Injected packet length average = 1
Accepted packet length average = 1
Total in-flight flits = 17 (17 measured)
latency change    = 0.000513705
throughput change = 0.00415973
Draining all recorded packets ...
Draining remaining packets ...
Time taken is 6061 cycles
Class 0:
Packet latency average = 19.7098
	minimum = 7
	maximum = 39
Network latency average = 19.7098
	minimum = 7
	maximum = 39
Slowest packet = 16773
Flit latency average = 19.7098
	minimum = 7
	maximum = 39
Slowest flit = 16773
Fragmentation average = 0
	minimum = 0
	maximum = 0
Injected packet rate average = 0.052625
	minimum = 0.038 (at node 5)
	maximum = 0.067 (at node 9)
Accepted packet rate average = 0.0516875
	minimum = 0.037 (at node 4)
	maximum = 0.07 (at node 12)
Injected flit rate average = 0.052625
	minimum = 0.038 (at node 5)
	maximum = 0.067 (at node 9)
Accepted flit rate average= 0.0516875
	minimum = 0.037 (at node 4)
	maximum = 0.07 (at node 12)
Injected packet length average = 1
Accepted packet length average = 1
Total in-flight flits = 15 (0 measured)
latency change    = 1
throughput change = 1
Class 0:
Packet latency average = 19.556
	minimum = 7
	maximum = 39
Network latency average = 19.556
	minimum = 7
	maximum = 39
Slowest packet = 16773
Flit latency average = 19.556
	minimum = 7
	maximum = 39
Slowest flit = 16773
Fragmentation average = 0
	minimum = 0
	maximum = 0
Injected packet rate average = 0.0520938
	minimum = 0.041 (at node 11)
	maximum = 0.0615 (at node 9)
Accepted packet rate average = 0.0515938
	minimum = 0.042 (at node 9)
	maximum = 0.0635 (at node 12)
Injected flit rate average = 0.0520938
	minimum = 0.041 (at node 11)
	maximum = 0.0615 (at node 9)
Accepted flit rate average= 0.0515938
	minimum = 0.042 (at node 9)
	maximum = 0.0635 (at node 12)
Injected packet length average = 1
Accepted packet length average = 1
Total in-flight flits = 16 (0 measured)
latency change    = 0.00786294
throughput change = 0.00181708
Class 0:
Packet latency average = 19.8723
	minimum = 7
	maximum = 38
Network latency average = 19.8723
	minimum = 7
	maximum = 38
Slowest packet = 18158
Flit latency average = 19.8723
	minimum = 7
	maximum = 38
Slowest flit = 18158
Fragmentation average = 0
	minimum = 0
	maximum = 0
Injected packet rate average = 0.0496875
	minimum = 0.034 (at node 1)
	maximum = 0.065 (at node 0)
Accepted packet rate average = 0.0499375
	minimum = 0.038 (at node 13)
	maximum = 0.059 (at node 3)
Injected flit rate average = 0.0496875
	minimum = 0.034 (at node 1)
	maximum = 0.065 (at node 0)
Accepted flit rate average= 0.0499375
	minimum = 0.038 (at node 13)
	maximum = 0.059 (at node 3)
Injected packet length average = 1
Accepted packet length average = 1
Total in-flight flits = 12 (0 measured)
latency change    = 0.0159173
throughput change = 0.0331665
Warmed up ...Time used is 3000 cycles
Class 0:
Packet latency average = 19.5661
	minimum = 7
	maximum = 38
Network latency average = 19.5661
	minimum = 7
	maximum = 38
Slowest packet = 18629
Flit latency average = 19.611
	minimum = 7
	maximum = 38
Slowest flit = 18629
Fragmentation average = 0
	minimum = 0
	maximum = 0
Injected packet rate average = 0.047625
	minimum = 0.038 (at node 7)
	maximum = 0.062 (at node 10)
Accepted packet rate average = 0.0475625
	minimum = 0.035 (at node 0)
	maximum = 0.066 (at node 11)
Injected flit rate average = 0.047625
	minimum = 0.038 (at node 7)
	maximum = 0.062 (at node 10)
Accepted flit rate average= 0.0475625
	minimum = 0.035 (at node 0)
	maximum = 0.066 (at node 11)
Injected packet length average = 1
Accepted packet length average = 1
Total in-flight flits = 13 (13 measured)
latency change    = 0.0156522
throughput change = 0.0499343
Class 0:
Packet latency average = 19.2873
	minimum = 7
	maximum = 38
Network latency average = 19.2873
	minimum = 7
	maximum = 38
Slowest packet = 18629
Flit latency average = 19.3109
	minimum = 7
	maximum = 38
Slowest flit = 18629
Fragmentation average = 0
	minimum = 0
	maximum = 0
Injected packet rate average = 0.04975
	minimum = 0.038 (at node 15)
	maximum = 0.06 (at node 12)
Accepted packet rate average = 0.04975
	minimum = 0.042 (at node 0)
	maximum = 0.0605 (at node 4)
Injected flit rate average = 0.04975
	minimum = 0.038 (at node 15)
	maximum = 0.06 (at node 12)
Accepted flit rate average= 0.04975
	minimum = 0.042 (at node 0)
	maximum = 0.0605 (at node 4)
Injected packet length average = 1
Accepted packet length average = 1
Total in-flight flits = 12 (12 measured)
latency change    = 0.0144523
throughput change = 0.0439698
Class 0:
Packet latency average = 19.3051
	minimum = 7
	maximum = 38
Network latency average = 19.3051
	minimum = 7
	maximum = 38
Slowest packet = 18629
Flit latency average = 19.3211
	minimum = 7
	maximum = 38
Slowest flit = 18629
Fragmentation average = 0
	minimum = 0
	maximum = 0
Injected packet rate average = 0.0488958
	minimum = 0.0366667 (at node 15)
	maximum = 0.0566667 (at node 13)
Accepted packet rate average = 0.0486667
	minimum = 0.042 (at node 0)
	maximum = 0.0586667 (at node 4)
Injected flit rate average = 0.0488958
	minimum = 0.0366667 (at node 15)
	maximum = 0.0566667 (at node 13)
Accepted flit rate average= 0.0486667
	minimum = 0.042 (at node 0)
	maximum = 0.0586667 (at node 4)
Injected packet length average = 1
Accepted packet length average = 1
Total in-flight flits = 23 (23 measured)
latency change    = 0.000918705
throughput change = 0.0222603
Draining all recorded packets ...
Draining remaining packets ...
Time taken is 6054 cycles
Class 0:
Packet latency average = 19.8534
	minimum = 7
	maximum = 38
Network latency average = 19.8534
	minimum = 7
	maximum = 38
Slowest packet = 21514
Flit latency average = 19.8534
	minimum = 7
	maximum = 38
Slowest flit = 21514
Fragmentation average = 0
	minimum = 0
	maximum = 0
Injected packet rate average = 0.048375
	minimum = 0.034 (at node 5)
	maximum = 0.061 (at node 7)
Accepted packet rate average = 0.04775
	minimum = 0.034 (at node 0)
	maximum = 0.06 (at node 2)
Injected flit rate average = 0.048375
	minimum = 0.034 (at node 5)
	maximum = 0.061 (at node 7)
Accepted flit rate average= 0.04775
	minimum = 0.034 (at node 0)
	maximum = 0.06 (at node 2)
Injected packet length average = 1
Accepted packet length average = 1
Total in-flight flits = 10 (0 measured)
latency change    = 1
throughput change = 1
Class 0:
Packet latency average = 19.6278
	minimum = 7
	maximum = 40
Network latency average = 19.6278
	minimum = 7
	maximum = 40
Slowest packet = 22140
Flit latency average = 19.6278
	minimum = 7
	maximum = 40
Slowest flit = 22140
Fragmentation average = 0
	minimum = 0
	maximum = 0
Injected packet rate average = 0.0484687
	minimum = 0.041 (at node 6)
	maximum = 0.058 (at node 12)
Accepted packet rate average = 0.0480312
	minimum = 0.038 (at node 0)
	maximum = 0.0545 (at node 4)
Injected flit rate average = 0.0484687
	minimum = 0.041 (at node 6)
	maximum = 0.058 (at node 12)
Accepted flit rate average= 0.0480312
	minimum = 0.038 (at node 0)
	maximum = 0.0545 (at node 4)
Injected packet length average = 1
Accepted packet length average = 1
Total in-flight flits = 14 (0 measured)
latency change    = 0.0114917
throughput change = 0.00585556
Class 0:
Packet latency average = 18.9849
	minimum = 7
	maximum = 38
Network latency average = 18.9849
	minimum = 7
	maximum = 38
Slowest packet = 23154
Flit latency average = 18.9849
	minimum = 7
	maximum = 38
Slowest flit = 23154
Fragmentation average = 0
	minimum = 0
	maximum = 0
Injected packet rate average = 0.049125
	minimum = 0.032 (at node 2)
	maximum = 0.06 (at node 9)
Accepted packet rate average = 0.0495625
	minimum = 0.029 (at node 12)
	maximum = 0.067 (at node 9)
Injected flit rate average = 0.049125
	minimum = 0.032 (at node 2)
	maximum = 0.06 (at node 9)
Accepted flit rate average= 0.0495625
	minimum = 0.029 (at node 12)
	maximum = 0.067 (at node 9)
Injected packet length average = 1
Accepted packet length average = 1
Total in-flight flits = 7 (0 measured)
latency change    = 0.033868
throughput change = 0.0308953
Warmed up ...Time used is 3000 cycles
Class 0:
Packet latency average = 19.593
	minimum = 7
	maximum = 41
Network latency average = 19.593
	minimum = 7
	maximum = 41
Slowest packet = 23279
Flit latency average = 19.6534
	minimum = 7
	maximum = 41
Slowest flit = 23279
Fragmentation average = 0
	minimum = 0
	maximum = 0
Injected packet rate average = 0.0488125
	minimum = 0.04 (at node 6)
	maximum = 0.058 (at node 1)
Accepted packet rate average = 0.0485
	minimum = 0.037 (at node 4)
	maximum = 0.061 (at node 10)
Injected flit rate average = 0.0488125
	minimum = 0.04 (at node 6)
	maximum = 0.058 (at node 1)
Accepted flit rate average= 0.0485
	minimum = 0.037 (at node 4)
	maximum = 0.061 (at node 10)
Injected packet length average = 1
Accepted packet length average = 1
Total in-flight flits = 12 (12 measured)
latency change    = 0.0310372
throughput change = 0.0219072
Class 0:
Packet latency average = 19.876
	minimum = 7
	maximum = 41
Network latency average = 19.876
	minimum = 7
	maximum = 41
Slowest packet = 23279
Flit latency average = 19.9044
	minimum = 7
	maximum = 41
Slowest flit = 23279
Fragmentation average = 0
	minimum = 0
	maximum = 0
Injected packet rate average = 0.0495
	minimum = 0.04 (at node 6)
	maximum = 0.0575 (at node 14)
Accepted packet rate average = 0.049375
	minimum = 0.04 (at node 5)
	maximum = 0.06 (at node 10)
Injected flit rate average = 0.0495
	minimum = 0.04 (at node 6)
	maximum = 0.0575 (at node 14)
Accepted flit rate average= 0.049375
	minimum = 0.04 (at node 5)
	maximum = 0.06 (at node 10)
Injected packet length average = 1
Accepted packet length average = 1
Total in-flight flits = 11 (11 measured)
latency change    = 0.014241
throughput change = 0.0177215
Class 0:
Packet latency average = 19.712
	minimum = 7
	maximum = 41
Network latency average = 19.712
	minimum = 7
	maximum = 41
Slowest packet = 23279
Flit latency average = 19.731
	minimum = 7
	maximum = 41
Slowest flit = 23279
Fragmentation average = 0
	minimum = 0
	maximum = 0
Injected packet rate average = 0.0503958
	minimum = 0.0466667 (at node 6)
	maximum = 0.058 (at node 15)
Accepted packet rate average = 0.0502708
	minimum = 0.0443333 (at node 5)
	maximum = 0.0606667 (at node 10)
Injected flit rate average = 0.0503958
	minimum = 0.0466667 (at node 6)
	maximum = 0.058 (at node 15)
Accepted flit rate average= 0.0502708
	minimum = 0.0443333 (at node 5)
	maximum = 0.0606667 (at node 10)
Injected packet length average = 1
Accepted packet length average = 1
Total in-flight flits = 13 (13 measured)
latency change    = 0.00832301
throughput change = 0.0178201
Draining all recorded packets ...
Draining remaining packets ...
Time taken is 6062 cycles
Class 0:
Packet latency average = 19.6295
	minimum = 7
	maximum = 37
Network latency average = 19.6295
	minimum = 7
	maximum = 37
Slowest packet = 25739
Flit latency average = 19.6295
	minimum = 7
	maximum = 37
Slowest flit = 25739
Fragmentation average = 0
	minimum = 0
	maximum = 0
Injected packet rate average = 0.05075
	minimum = 0.041 (at node 15)
	maximum = 0.069 (at node 2)
Accepted packet rate average = 0.0499375
	minimum = 0.039 (at node 14)
	maximum = 0.062 (at node 11)
Injected flit rate average = 0.05075
	minimum = 0.041 (at node 15)
	maximum = 0.069 (at node 2)
Accepted flit rate average= 0.0499375
	minimum = 0.039 (at node 14)
	maximum = 0.062 (at node 11)
Injected packet length average = 1
Accepted packet length average = 1
Total in-flight flits = 13 (0 measured)
latency change    = 1
throughput change = 1
Class 0:
Packet latency average = 19.6764
	minimum = 7
	maximum = 38
Network latency average = 19.6764
	minimum = 7
	maximum = 38
Slowest packet = 26681
Flit latency average = 19.6764
	minimum = 7
	maximum = 38
Slowest flit = 26681
Fragmentation average = 0
	minimum = 0
	maximum = 0
Injected packet rate average = 0.0495
	minimum = 0.0435 (at node 3)
	maximum = 0.058 (at node 2)
Accepted packet rate average = 0.0491562
	minimum = 0.037 (at node 14)
	maximum = 0.058 (at node 11)
Injected flit rate average = 0.0495
	minimum = 0.0435 (at node 3)
	maximum = 0.058 (at node 2)
Accepted flit rate average= 0.0491562
	minimum = 0.037 (at node 14)
	maximum = 0.058 (at node 11)
Injected packet length average = 1
Accepted packet length average = 1
Total in-flight flits = 11 (0 measured)
latency change    = 0.00238242
throughput change = 0.0158932
Class 0:
Packet latency average = 19.4963
	minimum = 7
	maximum = 38
Network latency average = 19.4963
	minimum = 7
	maximum = 38
Slowest packet = 27819
Flit latency average = 19.4963
	minimum = 7
	maximum = 38
Slowest flit = 27819
Fragmentation average = 0
	minimum = 0
	maximum = 0
Injected packet rate average = 0.0516875
	minimum = 0.042 (at node 8)
	maximum = 0.066 (at node 9)
Accepted packet rate average = 0.051125
	minimum = 0.037 (at node 1)
	maximum = 0.059 (at node 3)
Injected flit rate average = 0.0516875
	minimum = 0.042 (at node 8)
	maximum = 0.066 (at node 9)
Accepted flit rate average= 0.051125
	minimum = 0.037 (at node 1)
	maximum = 0.059 (at node 3)
Injected packet length average = 1
Accepted packet length average = 1
Total in-flight flits = 20 (0 measured)
latency change    = 0.00923671
throughput change = 0.0385086
Warmed up ...Time used is 3000 cycles
Class 0:
Packet latency average = 19.2045
	minimum = 7
	maximum = 38
Network latency average = 19.2045
	minimum = 7
	maximum = 38
Slowest packet = 28526
Flit latency average = 19.2365
	minimum = 7
	maximum = 38
Slowest flit = 28526
Fragmentation average = 0
	minimum = 0
	maximum = 0
Injected packet rate average = 0.050625
	minimum = 0.041 (at node 2)
	maximum = 0.064 (at node 9)
Accepted packet rate average = 0.05075
	minimum = 0.042 (at node 12)
	maximum = 0.068 (at node 13)
Injected flit rate average = 0.050625
	minimum = 0.041 (at node 2)
	maximum = 0.064 (at node 9)
Accepted flit rate average= 0.05075
	minimum = 0.042 (at node 12)
	maximum = 0.068 (at node 13)
Injected packet length average = 1
Accepted packet length average = 1
Total in-flight flits = 18 (18 measured)
latency change    = 0.0151936
throughput change = 0.00738916
Class 0:
Packet latency average = 19.5799
	minimum = 7
	maximum = 38
Network latency average = 19.5799
	minimum = 7
	maximum = 38
Slowest packet = 28526
Flit latency average = 19.5915
	minimum = 7
	maximum = 38
Slowest flit = 28526
Fragmentation average = 0
	minimum = 0
	maximum = 0
Injected packet rate average = 0.0492812
	minimum = 0.0395 (at node 5)
	maximum = 0.0585 (at node 8)
Accepted packet rate average = 0.0495
	minimum = 0.0435 (at node 1)
	maximum = 0.061 (at node 13)
Injected flit rate average = 0.0492812
	minimum = 0.0395 (at node 5)
	maximum = 0.0585 (at node 8)
Accepted flit rate average= 0.0495
	minimum = 0.0435 (at node 1)
	maximum = 0.061 (at node 13)
Injected packet length average = 1
Accepted packet length average = 1
Total in-flight flits = 13 (13 measured)
latency change    = 0.0191716
throughput change = 0.0252525
Class 0:
Packet latency average = 19.4436
	minimum = 7
	maximum = 41
Network latency average = 19.4436
	minimum = 7
	maximum = 41
Slowest packet = 30208
Flit latency average = 19.4525
	minimum = 7
	maximum = 41
Slowest flit = 30208
Fragmentation average = 0
	minimum = 0
	maximum = 0
Injected packet rate average = 0.0493125
	minimum = 0.0436667 (at node 6)
	maximum = 0.058 (at node 8)
Accepted packet rate average = 0.0493542
	minimum = 0.0416667 (at node 12)
	maximum = 0.0566667 (at node 13)
Injected flit rate average = 0.0493125
	minimum = 0.0436667 (at node 6)
	maximum = 0.058 (at node 8)
Accepted flit rate average= 0.0493542
	minimum = 0.0416667 (at node 12)
	maximum = 0.0566667 (at node 13)
Injected packet length average = 1
Accepted packet length average = 1
Total in-flight flits = 18 (18 measured)
latency change    = 0.00701158
throughput change = 0.00295483
Draining all recorded packets ...
Draining remaining packets ...
Time taken is 6068 cycles
Class 0:
Packet latency average = 18.7798
	minimum = 7
	maximum = 38
Network latency average = 18.7798
	minimum = 7
	maximum = 38
Slowest packet = 30820
Flit latency average = 18.7798
	minimum = 7
	maximum = 38
Slowest flit = 30820
Fragmentation average = 0
	minimum = 0
	maximum = 0
Injected packet rate average = 0.0516875
	minimum = 0.042 (at node 15)
	maximum = 0.06 (at node 11)
Accepted packet rate average = 0.0508125
	minimum = 0.042 (at node 7)
	maximum = 0.059 (at node 6)
Injected flit rate average = 0.0516875
	minimum = 0.042 (at node 15)
	maximum = 0.06 (at node 11)
Accepted flit rate average= 0.0508125
	minimum = 0.042 (at node 7)
	maximum = 0.059 (at node 6)
Injected packet length average = 1
Accepted packet length average = 1
Total in-flight flits = 14 (0 measured)
latency change    = 1
throughput change = 1
Class 0:
Packet latency average = 18.949
	minimum = 7
	maximum = 38
Network latency average = 18.949
	minimum = 7
	maximum = 38
Slowest packet = 30820
Flit latency average = 18.949
	minimum = 7
	maximum = 38
Slowest flit = 30820
Fragmentation average = 0
	minimum = 0
	maximum = 0
Injected packet rate average = 0.0502187
	minimum = 0.041 (at node 2)
	maximum = 0.057 (at node 11)
Accepted packet rate average = 0.0496562
	minimum = 0.0405 (at node 7)
	maximum = 0.057 (at node 1)
Injected flit rate average = 0.0502187
	minimum = 0.041 (at node 2)
	maximum = 0.057 (at node 11)
Accepted flit rate average= 0.0496562
	minimum = 0.0405 (at node 7)
	maximum = 0.057 (at node 1)
Injected packet length average = 1
Accepted packet length average = 1
Total in-flight flits = 18 (0 measured)
latency change    = 0.00892905
throughput change = 0.0232851
Class 0:
Packet latency average = 19.6772
	minimum = 7
	maximum = 38
Network latency average = 19.6772
	minimum = 7
	maximum = 38
Slowest packet = 32746
Flit latency average = 19.6772
	minimum = 7
	maximum = 38
Slowest flit = 32746
Fragmentation average = 0
	minimum = 0
	maximum = 0
Injected packet rate average = 0.05125
	minimum = 0.036 (at node 15)
	maximum = 0.064 (at node 0)
Accepted packet rate average = 0.0513125
	minimum = 0.038 (at node 13)
	maximum = 0.07 (at node 14)
Injected flit rate average = 0.05125
	minimum = 0.036 (at node 15)
	maximum = 0.064 (at node 0)
Accepted flit rate average= 0.0513125
	minimum = 0.038 (at node 13)
	maximum = 0.07 (at node 14)
Injected packet length average = 1
Accepted packet length average = 1
Total in-flight flits = 17 (0 measured)
latency change    = 0.0370072
throughput change = 0.0322777
Warmed up ...Time used is 3000 cycles
Class 0:
Packet latency average = 19.5424
	minimum = 7
	maximum = 38
Network latency average = 19.5424
	minimum = 7
	maximum = 38
Slowest packet = 33047
Flit latency average = 19.5906
	minimum = 7
	maximum = 38
Slowest flit = 33047
Fragmentation average = 0
	minimum = 0
	maximum = 0
Injected packet rate average = 0.048875
	minimum = 0.041 (at node 14)
	maximum = 0.065 (at node 12)
Accepted packet rate average = 0.049
	minimum = 0.035 (at node 8)
	maximum = 0.064 (at node 10)
Injected flit rate average = 0.048875
	minimum = 0.041 (at node 14)
	maximum = 0.065 (at node 12)
Accepted flit rate average= 0.049
	minimum = 0.035 (at node 8)
	maximum = 0.064 (at node 10)
Injected packet length average = 1
Accepted packet length average = 1
Total in-flight flits = 15 (15 measured)
latency change    = 0.00690039
throughput change = 0.0471939
Class 0:
Packet latency average = 19.5006
	minimum = 7
	maximum = 38
Network latency average = 19.5006
	minimum = 7
	maximum = 38
Slowest packet = 33047
Flit latency average = 19.5244
	minimum = 7
	maximum = 38
Slowest flit = 33047
Fragmentation average = 0
	minimum = 0
	maximum = 0
Injected packet rate average = 0.0504687
	minimum = 0.042 (at node 11)
	maximum = 0.0615 (at node 13)
Accepted packet rate average = 0.0505312
	minimum = 0.041 (at node 8)
	maximum = 0.0575 (at node 10)
Injected flit rate average = 0.0504687
	minimum = 0.042 (at node 11)
	maximum = 0.0615 (at node 13)
Accepted flit rate average= 0.0505312
	minimum = 0.041 (at node 8)
	maximum = 0.0575 (at node 10)
Injected packet length average = 1
Accepted packet length average = 1
Total in-flight flits = 15 (15 measured)
latency change    = 0.00214085
throughput change = 0.030303
Class 0:
Packet latency average = 19.4443
	minimum = 7
	maximum = 39
Network latency average = 19.4443
	minimum = 7
	maximum = 39
Slowest packet = 34972
Flit latency average = 19.4605
	minimum = 7
	maximum = 39
Slowest flit = 34972
Fragmentation average = 0
	minimum = 0
	maximum = 0
Injected packet rate average = 0.0505208
	minimum = 0.045 (at node 10)
	maximum = 0.058 (at node 13)
Accepted packet rate average = 0.050625
	minimum = 0.045 (at node 8)
	maximum = 0.0583333 (at node 11)
Injected flit rate average = 0.0505208
	minimum = 0.045 (at node 10)
	maximum = 0.058 (at node 13)
Accepted flit rate average= 0.050625
	minimum = 0.045 (at node 8)
	maximum = 0.0583333 (at node 11)
Injected packet length average = 1
Accepted packet length average = 1
Total in-flight flits = 12 (12 measured)
latency change    = 0.00289879
throughput change = 0.00185185
Draining all recorded packets ...
Draining remaining packets ...
Time taken is 6053 cycles
Class 0:
Packet latency average = 19.3962
	minimum = 7
	maximum = 38
Network latency average = 19.3962
	minimum = 7
	maximum = 38
Slowest packet = 35454
Flit latency average = 19.3962
	minimum = 7
	maximum = 38
Slowest flit = 35454
Fragmentation average = 0
	minimum = 0
	maximum = 0
Injected packet rate average = 0.0499375
	minimum = 0.037 (at node 6)
	maximum = 0.058 (at node 15)
Accepted packet rate average = 0.0490625
	minimum = 0.038 (at node 2)
	maximum = 0.063 (at node 7)
Injected flit rate average = 0.0499375
	minimum = 0.037 (at node 6)
	maximum = 0.058 (at node 15)
Accepted flit rate average= 0.0490625
	minimum = 0.038 (at node 2)
	maximum = 0.063 (at node 7)
Injected packet length average = 1
Accepted packet length average = 1
Total in-flight flits = 14 (0 measured)
latency change    = 1
throughput change = 1
Class 0:
Packet latency average = 19.4787
	minimum = 7
	maximum = 38
Network latency average = 19.4787
	minimum = 7
	maximum = 38
Slowest packet = 35454
Flit latency average = 19.4787
	minimum = 7
	maximum = 38
Slowest flit = 35454
Fragmentation average = 0
	minimum = 0
	maximum = 0
Injected packet rate average = 0.0511563
	minimum = 0.0385 (at node 6)
	maximum = 0.0585 (at node 3)
Accepted packet rate average = 0.0507187
	minimum = 0.042 (at node 12)
	maximum = 0.058 (at node 7)
Injected flit rate average = 0.0511563
	minimum = 0.0385 (at node 6)
	maximum = 0.0585 (at node 3)
Accepted flit rate average= 0.0507187
	minimum = 0.042 (at node 12)
	maximum = 0.058 (at node 7)
Injected packet length average = 1
Accepted packet length average = 1
Total in-flight flits = 14 (0 measured)
latency change    = 0.00423871
throughput change = 0.0326556
Class 0:
Packet latency average = 19.2295
	minimum = 7
	maximum = 38
Network latency average = 19.2295
	minimum = 7
	maximum = 38
Slowest packet = 37302
Flit latency average = 19.2295
	minimum = 7
	maximum = 38
Slowest flit = 37302
Fragmentation average = 0
	minimum = 0
	maximum = 0
Injected packet rate average = 0.049875
	minimum = 0.037 (at node 2)
	maximum = 0.059 (at node 6)
Accepted packet rate average = 0.0495625
	minimum = 0.037 (at node 7)
	maximum = 0.061 (at node 5)
Injected flit rate average = 0.049875
	minimum = 0.037 (at node 2)
	maximum = 0.059 (at node 6)
Accepted flit rate average= 0.0495625
	minimum = 0.037 (at node 7)
	maximum = 0.061 (at node 5)
Injected packet length average = 1
Accepted packet length average = 1
Total in-flight flits = 19 (0 measured)
latency change    = 0.0129611
throughput change = 0.0233291
Warmed up ...Time used is 3000 cycles
Class 0:
Packet latency average = 19.7547
	minimum = 7
	maximum = 38
Network latency average = 19.7534
	minimum = 7
	maximum = 38
Slowest packet = 38044
Flit latency average = 19.8127
	minimum = 7
	maximum = 38
Slowest flit = 38044
Fragmentation average = 0
	minimum = 0
	maximum = 0
Injected packet rate average = 0.0510625
	minimum = 0.042 (at node 6)
	maximum = 0.071 (at node 15)
Accepted packet rate average = 0.051375
	minimum = 0.039 (at node 5)
	maximum = 0.063 (at node 3)
Injected flit rate average = 0.0510625
	minimum = 0.042 (at node 6)
	maximum = 0.071 (at node 15)
Accepted flit rate average= 0.051375
	minimum = 0.039 (at node 5)
	maximum = 0.063 (at node 3)
Injected packet length average = 1
Accepted packet length average = 1
Total in-flight flits = 14 (14 measured)
latency change    = 0.0265842
throughput change = 0.0352798
Class 0:
Packet latency average = 19.4767
	minimum = 7
	maximum = 38
Network latency average = 19.4761
	minimum = 7
	maximum = 38
Slowest packet = 38044
Flit latency average = 19.5096
	minimum = 7
	maximum = 38
Slowest flit = 38044
Fragmentation average = 0
	minimum = 0
	maximum = 0
Injected packet rate average = 0.0502812
	minimum = 0.0445 (at node 0)
	maximum = 0.06 (at node 15)
Accepted packet rate average = 0.0502812
	minimum = 0.044 (at node 6)
	maximum = 0.0585 (at node 10)
Injected flit rate average = 0.0502812
	minimum = 0.0445 (at node 0)
	maximum = 0.06 (at node 15)
Accepted flit rate average= 0.0502812
	minimum = 0.044 (at node 6)
	maximum = 0.0585 (at node 10)
Injected packet length average = 1
Accepted packet length average = 1
Total in-flight flits = 19 (19 measured)
latency change    = 0.0142704
throughput change = 0.0217526
Class 0:
Packet latency average = 19.4376
	minimum = 7
	maximum = 38
Network latency average = 19.4372
	minimum = 7
	maximum = 38
Slowest packet = 38044
Flit latency average = 19.4601
	minimum = 7
	maximum = 38
Slowest flit = 38044
Fragmentation average = 0
	minimum = 0
	maximum = 0
Injected packet rate average = 0.0495833
	minimum = 0.0423333 (at node 2)
	maximum = 0.0553333 (at node 15)
Accepted packet rate average = 0.049625
	minimum = 0.044 (at node 2)
	maximum = 0.0546667 (at node 10)
Injected flit rate average = 0.0495833
	minimum = 0.0423333 (at node 2)
	maximum = 0.0553333 (at node 15)
Accepted flit rate average= 0.049625
	minimum = 0.044 (at node 2)
	maximum = 0.0546667 (at node 10)
Injected packet length average = 1
Accepted packet length average = 1
Total in-flight flits = 17 (17 measured)
latency change    = 0.00201415
throughput change = 0.0132242
Draining all recorded packets ...
Draining remaining packets ...
Time taken is 6060 cycles
Class 0:
Packet latency average = 19.4044
	minimum = 7
	maximum = 38
Network latency average = 19.4044
	minimum = 7
	maximum = 38
Slowest packet = 40656
Flit latency average = 19.4044
	minimum = 7
	maximum = 38
Slowest flit = 40656
Fragmentation average = 0
	minimum = 0
	maximum = 0
Injected packet rate average = 0.0489375
	minimum = 0.035 (at node 6)
	maximum = 0.058 (at node 2)
Accepted packet rate average = 0.0480625
	minimum = 0.037 (at node 10)
	maximum = 0.062 (at node 11)
Injected flit rate average = 0.0489375
	minimum = 0.035 (at node 6)
	maximum = 0.058 (at node 2)
Accepted flit rate average= 0.0480625
	minimum = 0.037 (at node 10)
	maximum = 0.062 (at node 11)
Injected packet length average = 1
Accepted packet length average = 1
Total in-flight flits = 14 (0 measured)
latency change    = 1
throughput change = 1
Class 0:
Packet latency average = 19.5365
	minimum = 7
	maximum = 38
Network latency average = 19.5365
	minimum = 7
	maximum = 38
Slowest packet = 40656
Flit latency average = 19.5365
	minimum = 7
	maximum = 38
Slowest flit = 40656
Fragmentation average = 0
	minimum = 0
	maximum = 0
Injected packet rate average = 0.0530625
	minimum = 0.0465 (at node 12)
	maximum = 0.0605 (at node 4)
Accepted packet rate average = 0.0526563
	minimum = 0.046 (at node 14)
	maximum = 0.0645 (at node 8)
Injected flit rate average = 0.0530625
	minimum = 0.0465 (at node 12)
	maximum = 0.0605 (at node 4)
Accepted flit rate average= 0.0526563
	minimum = 0.046 (at node 14)
	maximum = 0.0645 (at node 8)
Injected packet length average = 1
Accepted packet length average = 1
Total in-flight flits = 13 (0 measured)
latency change    = 0.00676054
throughput change = 0.0872404
Class 0:
Packet latency average = 19.233
	minimum = 7
	maximum = 38
Network latency average = 19.233
	minimum = 7
	maximum = 38
Slowest packet = 42549
Flit latency average = 19.233
	minimum = 7
	maximum = 38
Slowest flit = 42549
Fragmentation average = 0
	minimum = 0
	maximum = 0
Injected packet rate average = 0.049875
	minimum = 0.041 (at node 1)
	maximum = 0.066 (at node 2)
Accepted packet rate average = 0.049625
	minimum = 0.041 (at node 11)
	maximum = 0.061 (at node 2)
Injected flit rate average = 0.049875
	minimum = 0.041 (at node 1)
	maximum = 0.066 (at node 2)
Accepted flit rate average= 0.049625
	minimum = 0.041 (at node 11)
	maximum = 0.061 (at node 2)
Injected packet length average = 1
Accepted packet length average = 1
Total in-flight flits = 17 (0 measured)
latency change    = 0.0157802
throughput change = 0.0610831
Warmed up ...Time used is 3000 cycles
Class 0:
Packet latency average = 19.7124
	minimum = 7
	maximum = 42
Network latency average = 19.7124
	minimum = 7
	maximum = 42
Slowest packet = 42998
Flit latency average = 19.724
	minimum = 7
	maximum = 42
Slowest flit = 42998
Fragmentation average = 0
	minimum = 0
	maximum = 0
Injected packet rate average = 0.047375
	minimum = 0.031 (at node 8)
	maximum = 0.06 (at node 7)
Accepted packet rate average = 0.0475625
	minimum = 0.033 (at node 15)
	maximum = 0.056 (at node 6)
Injected flit rate average = 0.047375
	minimum = 0.031 (at node 8)
	maximum = 0.06 (at node 7)
Accepted flit rate average= 0.0475625
	minimum = 0.033 (at node 15)
	maximum = 0.056 (at node 6)
Injected packet length average = 1
Accepted packet length average = 1
Total in-flight flits = 14 (14 measured)
latency change    = 0.0243181
throughput change = 0.043364
Class 0:
Packet latency average = 19.7744
	minimum = 7
	maximum = 42
Network latency average = 19.7744
	minimum = 7
	maximum = 42
Slowest packet = 42998
Flit latency average = 19.7795
	minimum = 7
	maximum = 42
Slowest flit = 42998
Fragmentation average = 0
	minimum = 0
	maximum = 0
Injected packet rate average = 0.0476875
	minimum = 0.038 (at node 8)
	maximum = 0.0555 (at node 7)
Accepted packet rate average = 0.047625
	minimum = 0.04 (at node 1)
	maximum = 0.055 (at node 0)
Injected flit rate average = 0.0476875
	minimum = 0.038 (at node 8)
	maximum = 0.0555 (at node 7)
Accepted flit rate average= 0.047625
	minimum = 0.04 (at node 1)
	maximum = 0.055 (at node 0)
Injected packet length average = 1
Accepted packet length average = 1
Total in-flight flits = 19 (19 measured)
latency change    = 0.00313641
throughput change = 0.00131234
Class 0:
Packet latency average = 19.7207
	minimum = 7
	maximum = 42
Network latency average = 19.7207
	minimum = 7
	maximum = 42
Slowest packet = 42998
Flit latency average = 19.7244
	minimum = 7
	maximum = 42
Slowest flit = 42998
Fragmentation average = 0
	minimum = 0
	maximum = 0
Injected packet rate average = 0.0492292
	minimum = 0.0443333 (at node 10)
	maximum = 0.057 (at node 14)
Accepted packet rate average = 0.0492083
	minimum = 0.044 (at node 1)
	maximum = 0.057 (at node 0)
Injected flit rate average = 0.0492292
	minimum = 0.0443333 (at node 10)
	maximum = 0.057 (at node 14)
Accepted flit rate average= 0.0492083
	minimum = 0.044 (at node 1)
	maximum = 0.057 (at node 0)
Injected packet length average = 1
Accepted packet length average = 1
Total in-flight flits = 18 (18 measured)
latency change    = 0.00272323
throughput change = 0.0321761
Draining all recorded packets ...
Draining remaining packets ...
Time taken is 6052 cycles
Class 0:
Packet latency average = 19.7013
	minimum = 7
	maximum = 38
Network latency average = 19.7013
	minimum = 7
	maximum = 38
Slowest packet = 45553
Flit latency average = 19.7013
	minimum = 7
	maximum = 38
Slowest flit = 45553
Fragmentation average = 0
	minimum = 0
	maximum = 0
Injected packet rate average = 0.04925
	minimum = 0.038 (at node 2)
	maximum = 0.061 (at node 13)
Accepted packet rate average = 0.048125
	minimum = 0.034 (at node 10)
	maximum = 0.063 (at node 5)
Injected flit rate average = 0.04925
	minimum = 0.038 (at node 2)
	maximum = 0.061 (at node 13)
Accepted flit rate average= 0.048125
	minimum = 0.034 (at node 10)
	maximum = 0.063 (at node 5)
Injected packet length average = 1
Accepted packet length average = 1
Total in-flight flits = 18 (0 measured)
latency change    = 1
throughput change = 1
Class 0:
Packet latency average = 19.4762
	minimum = 7
	maximum = 38
Network latency average = 19.4762
	minimum = 7
	maximum = 38
Slowest packet = 45553
Flit latency average = 19.4762
	minimum = 7
	maximum = 38
Slowest flit = 45553
Fragmentation average = 0
	minimum = 0
	maximum = 0
Injected packet rate average = 0.0490625
	minimum = 0.0405 (at node 2)
	maximum = 0.0555 (at node 15)
Accepted packet rate average = 0.0485625
	minimum = 0.041 (at node 14)
	maximum = 0.0595 (at node 2)
Injected flit rate average = 0.0490625
	minimum = 0.0405 (at node 2)
	maximum = 0.0555 (at node 15)
Accepted flit rate average= 0.0485625
	minimum = 0.041 (at node 14)
	maximum = 0.0595 (at node 2)
Injected packet length average = 1
Accepted packet length average = 1
Total in-flight flits = 16 (0 measured)
latency change    = 0.0115581
throughput change = 0.00900901
Class 0:
Packet latency average = 19.438
	minimum = 7
	maximum = 38
Network latency average = 19.438
	minimum = 7
	maximum = 38
Slowest packet = 47315
Flit latency average = 19.438
	minimum = 7
	maximum = 38
Slowest flit = 47315
Fragmentation average = 0
	minimum = 0
	maximum = 0
Injected packet rate average = 0.0490625
	minimum = 0.029 (at node 3)
	maximum = 0.067 (at node 5)
Accepted packet rate average = 0.049375
	minimum = 0.035 (at node 15)
	maximum = 0.063 (at node 14)
Injected flit rate average = 0.0490625
	minimum = 0.029 (at node 3)
	maximum = 0.067 (at node 5)
Accepted flit rate average= 0.049375
	minimum = 0.035 (at node 15)
	maximum = 0.063 (at node 14)
Injected packet length average = 1
Accepted packet length average = 1
Total in-flight flits = 11 (0 measured)
latency change    = 0.00196604
throughput change = 0.0164557
Warmed up ...Time used is 3000 cycles
Class 0:
Packet latency average = 19.6097
	minimum = 7
	maximum = 38
Network latency average = 19.6097
	minimum = 7
	maximum = 38
Slowest packet = 48097
Flit latency average = 19.6553
	minimum = 7
	maximum = 38
Slowest flit = 48097
Fragmentation average = 0
	minimum = 0
	maximum = 0
Injected packet rate average = 0.05
	minimum = 0.04 (at node 3)
	maximum = 0.058 (at node 5)
Accepted packet rate average = 0.0496875
	minimum = 0.042 (at node 10)
	maximum = 0.065 (at node 2)
Injected flit rate average = 0.05
	minimum = 0.04 (at node 3)
	maximum = 0.058 (at node 5)
Accepted flit rate average= 0.0496875
	minimum = 0.042 (at node 10)
	maximum = 0.065 (at node 2)
Injected packet length average = 1
Accepted packet length average = 1
Total in-flight flits = 16 (16 measured)
latency change    = 0.00875685
throughput change = 0.00628931
Class 0:
Packet latency average = 19.635
	minimum = 7
	maximum = 38
Network latency average = 19.635
	minimum = 7
	maximum = 38
Slowest packet = 48097
Flit latency average = 19.6577
	minimum = 7
	maximum = 38
Slowest flit = 48097
Fragmentation average = 0
	minimum = 0
	maximum = 0
Injected packet rate average = 0.050125
	minimum = 0.042 (at node 3)
	maximum = 0.0555 (at node 12)
Accepted packet rate average = 0.04975
	minimum = 0.0435 (at node 5)
	maximum = 0.057 (at node 2)
Injected flit rate average = 0.050125
	minimum = 0.042 (at node 3)
	maximum = 0.0555 (at node 12)
Accepted flit rate average= 0.04975
	minimum = 0.0435 (at node 5)
	maximum = 0.057 (at node 2)
Injected packet length average = 1
Accepted packet length average = 1
Total in-flight flits = 23 (23 measured)
latency change    = 0.00129092
throughput change = 0.00125628
Class 0:
Packet latency average = 19.7003
	minimum = 7
	maximum = 38
Network latency average = 19.7003
	minimum = 7
	maximum = 38
Slowest packet = 48097
Flit latency average = 19.7151
	minimum = 7
	maximum = 38
Slowest flit = 48097
Fragmentation average = 0
	minimum = 0
	maximum = 0
Injected packet rate average = 0.0497917
	minimum = 0.0413333 (at node 3)
	maximum = 0.0556667 (at node 12)
Accepted packet rate average = 0.0497917
	minimum = 0.0443333 (at node 11)
	maximum = 0.055 (at node 6)
Injected flit rate average = 0.0497917
	minimum = 0.0413333 (at node 3)
	maximum = 0.0556667 (at node 12)
Accepted flit rate average= 0.0497917
	minimum = 0.0443333 (at node 11)
	maximum = 0.055 (at node 6)
Injected packet length average = 1
Accepted packet length average = 1
Total in-flight flits = 11 (11 measured)
latency change    = 0.00331229
throughput change = 0.00083682
Draining all recorded packets ...
Draining remaining packets ...
Time taken is 6058 cycles
Class 0:
Packet latency average = 19.4865
	minimum = 7
	maximum = 42
Network latency average = 19.4865
	minimum = 7
	maximum = 42
Slowest packet = 49933
Flit latency average = 19.4865
	minimum = 7
	maximum = 42
Slowest flit = 49933
Fragmentation average = 0
	minimum = 0
	maximum = 0
Injected packet rate average = 0.0518125
	minimum = 0.041 (at node 1)
	maximum = 0.066 (at node 4)
Accepted packet rate average = 0.051
	minimum = 0.04 (at node 13)
	maximum = 0.065 (at node 1)
Injected flit rate average = 0.0518125
	minimum = 0.041 (at node 1)
	maximum = 0.066 (at node 4)
Accepted flit rate average= 0.051
	minimum = 0.04 (at node 13)
	maximum = 0.065 (at node 1)
Injected packet length average = 1
Accepted packet length average = 1
Total in-flight flits = 13 (0 measured)
latency change    = 1
throughput change = 1
Class 0:
Packet latency average = 19.5758
	minimum = 7
	maximum = 42
Network latency average = 19.5758
	minimum = 7
	maximum = 42
Slowest packet = 49933
Flit latency average = 19.5758
	minimum = 7
	maximum = 42
Slowest flit = 49933
Fragmentation average = 0
	minimum = 0
	maximum = 0
Injected packet rate average = 0.0509063
	minimum = 0.0435 (at node 2)
	maximum = 0.056 (at node 4)
Accepted packet rate average = 0.0503125
	minimum = 0.0415 (at node 13)
	maximum = 0.0615 (at node 1)
Injected flit rate average = 0.0509063
	minimum = 0.0435 (at node 2)
	maximum = 0.056 (at node 4)
Accepted flit rate average= 0.0503125
	minimum = 0.0415 (at node 13)
	maximum = 0.0615 (at node 1)
Injected packet length average = 1
Accepted packet length average = 1
Total in-flight flits = 19 (0 measured)
latency change    = 0.00455955
throughput change = 0.0136646
Class 0:
Packet latency average = 19.5234
	minimum = 7
	maximum = 37
Network latency average = 19.5234
	minimum = 7
	maximum = 37
Slowest packet = 51593
Flit latency average = 19.5234
	minimum = 7
	maximum = 37
Slowest flit = 51593
Fragmentation average = 0
	minimum = 0
	maximum = 0
Injected packet rate average = 0.0453125
	minimum = 0.036 (at node 3)
	maximum = 0.054 (at node 5)
Accepted packet rate average = 0.0455
	minimum = 0.036 (at node 6)
	maximum = 0.063 (at node 2)
Injected flit rate average = 0.0453125
	minimum = 0.036 (at node 3)
	maximum = 0.054 (at node 5)
Accepted flit rate average= 0.0455
	minimum = 0.036 (at node 6)
	maximum = 0.063 (at node 2)
Injected packet length average = 1
Accepted packet length average = 1
Total in-flight flits = 16 (0 measured)
latency change    = 0.00268523
throughput change = 0.105769
Warmed up ...Time used is 3000 cycles
Class 0:
Packet latency average = 19.4248
	minimum = 7
	maximum = 41
Network latency average = 19.4248
	minimum = 7
	maximum = 41
Slowest packet = 52456
Flit latency average = 19.4811
	minimum = 7
	maximum = 41
Slowest flit = 52456
Fragmentation average = 0
	minimum = 0
	maximum = 0
Injected packet rate average = 0.050875
	minimum = 0.034 (at node 3)
	maximum = 0.065 (at node 9)
Accepted packet rate average = 0.0513125
	minimum = 0.037 (at node 4)
	maximum = 0.06 (at node 11)
Injected flit rate average = 0.050875
	minimum = 0.034 (at node 3)
	maximum = 0.065 (at node 9)
Accepted flit rate average= 0.0513125
	minimum = 0.037 (at node 4)
	maximum = 0.06 (at node 11)
Injected packet length average = 1
Accepted packet length average = 1
Total in-flight flits = 9 (9 measured)
latency change    = 0.00507118
throughput change = 0.113276
Class 0:
Packet latency average = 19.4072
	minimum = 7
	maximum = 41
Network latency average = 19.4072
	minimum = 7
	maximum = 41
Slowest packet = 52456
Flit latency average = 19.4359
	minimum = 7
	maximum = 41
Slowest flit = 52456
Fragmentation average = 0
	minimum = 0
	maximum = 0
Injected packet rate average = 0.0505312
	minimum = 0.041 (at node 3)
	maximum = 0.061 (at node 6)
Accepted packet rate average = 0.0506875
	minimum = 0.0415 (at node 4)
	maximum = 0.0575 (at node 7)
Injected flit rate average = 0.0505312
	minimum = 0.041 (at node 3)
	maximum = 0.061 (at node 6)
Accepted flit rate average= 0.0506875
	minimum = 0.0415 (at node 4)
	maximum = 0.0575 (at node 7)
Injected packet length average = 1
Accepted packet length average = 1
Total in-flight flits = 11 (11 measured)
latency change    = 0.000908002
throughput change = 0.0123305
Class 0:
Packet latency average = 19.3099
	minimum = 7
	maximum = 41
Network latency average = 19.3099
	minimum = 7
	maximum = 41
Slowest packet = 52456
Flit latency average = 19.3296
	minimum = 7
	maximum = 41
Slowest flit = 52456
Fragmentation average = 0
	minimum = 0
	maximum = 0
Injected packet rate average = 0.0507083
	minimum = 0.0436667 (at node 3)
	maximum = 0.058 (at node 6)
Accepted packet rate average = 0.050625
	minimum = 0.0403333 (at node 0)
	maximum = 0.0556667 (at node 7)
Injected flit rate average = 0.0507083
	minimum = 0.0436667 (at node 3)
	maximum = 0.058 (at node 6)
Accepted flit rate average= 0.050625
	minimum = 0.0403333 (at node 0)
	maximum = 0.0556667 (at node 7)
Injected packet length average = 1
Accepted packet length average = 1
Total in-flight flits = 20 (20 measured)
latency change    = 0.00504218
throughput change = 0.00123457
Class 0:
Packet latency average = 19.3594
	minimum = 7
	maximum = 41
Network latency average = 19.3594
	minimum = 7
	maximum = 41
Slowest packet = 52456
Flit latency average = 19.3739
	minimum = 7
	maximum = 41
Slowest flit = 52456
Fragmentation average = 0
	minimum = 0
	maximum = 0
Injected packet rate average = 0.0506875
	minimum = 0.045 (at node 2)
	maximum = 0.05625 (at node 6)
Accepted packet rate average = 0.0506875
	minimum = 0.04125 (at node 0)
	maximum = 0.05525 (at node 5)
Injected flit rate average = 0.0506875
	minimum = 0.045 (at node 2)
	maximum = 0.05625 (at node 6)
Accepted flit rate average= 0.0506875
	minimum = 0.04125 (at node 0)
	maximum = 0.05525 (at node 5)
Injected packet length average = 1
Accepted packet length average = 1
Total in-flight flits = 16 (16 measured)
latency change    = 0.00255672
throughput change = 0.00123305
Draining all recorded packets ...
Draining remaining packets ...
Time taken is 7047 cycles
Class 0:
Packet latency average = 19.5571
	minimum = 7
	maximum = 38
Network latency average = 19.5571
	minimum = 7
	maximum = 38
Slowest packet = 55673
Flit latency average = 19.5571
	minimum = 7
	maximum = 38
Slowest flit = 55673
Fragmentation average = 0
	minimum = 0
	maximum = 0
Injected packet rate average = 0.0505625
	minimum = 0.035 (at node 12)
	maximum = 0.069 (at node 0)
Accepted packet rate average = 0.04925
	minimum = 0.036 (at node 0)
	maximum = 0.063 (at node 3)
Injected flit rate average = 0.0505625
	minimum = 0.035 (at node 12)
	maximum = 0.069 (at node 0)
Accepted flit rate average= 0.04925
	minimum = 0.036 (at node 0)
	maximum = 0.063 (at node 3)
Injected packet length average = 1
Accepted packet length average = 1
Total in-flight flits = 21 (0 measured)
latency change    = 1
throughput change = 1
Class 0:
Packet latency average = 19.681
	minimum = 7
	maximum = 38
Network latency average = 19.681
	minimum = 7
	maximum = 38
Slowest packet = 55673
Flit latency average = 19.681
	minimum = 7
	maximum = 38
Slowest flit = 55673
Fragmentation average = 0
	minimum = 0
	maximum = 0
Injected packet rate average = 0.0505937
	minimum = 0.0405 (at node 15)
	maximum = 0.0585 (at node 0)
Accepted packet rate average = 0.0501562
	minimum = 0.0435 (at node 13)
	maximum = 0.0635 (at node 3)
Injected flit rate average = 0.0505937
	minimum = 0.0405 (at node 15)
	maximum = 0.0585 (at node 0)
Accepted flit rate average= 0.0501562
	minimum = 0.0435 (at node 13)
	maximum = 0.0635 (at node 3)
Injected packet length average = 1
Accepted packet length average = 1
Total in-flight flits = 14 (0 measured)
latency change    = 0.00629492
throughput change = 0.0180685
Class 0:
Packet latency average = 19.1936
	minimum = 7
	maximum = 40
Network latency average = 19.1936
	minimum = 7
	maximum = 40
Slowest packet = 57466
Flit latency average = 19.1936
	minimum = 7
	maximum = 40
Slowest flit = 57466
Fragmentation average = 0
	minimum = 0
	maximum = 0
Injected packet rate average = 0.0489375
	minimum = 0.039 (at node 7)
	maximum = 0.066 (at node 10)
Accepted packet rate average = 0.0490625
	minimum = 0.04 (at node 10)
	maximum = 0.062 (at node 1)
Injected flit rate average = 0.0489375
	minimum = 0.039 (at node 7)
	maximum = 0.066 (at node 10)
Accepted flit rate average= 0.0490625
	minimum = 0.04 (at node 10)
	maximum = 0.062 (at node 1)
Injected packet length average = 1
Accepted packet length average = 1
Total in-flight flits = 12 (0 measured)
latency change    = 0.0253921
throughput change = 0.022293
Warmed up ...Time used is 3000 cycles
Class 0:
Packet latency average = 19.2902
	minimum = 7
	maximum = 37
Network latency average = 19.2902
	minimum = 7
	maximum = 37
Slowest packet = 58054
Flit latency average = 19.2934
	minimum = 7
	maximum = 37
Slowest flit = 58054
Fragmentation average = 0
	minimum = 0
	maximum = 0
Injected packet rate average = 0.04925
	minimum = 0.036 (at node 2)
	maximum = 0.058 (at node 11)
Accepted packet rate average = 0.0485625
	minimum = 0.036 (at node 6)
	maximum = 0.071 (at node 0)
Injected flit rate average = 0.04925
	minimum = 0.036 (at node 2)
	maximum = 0.058 (at node 11)
Accepted flit rate average= 0.0485625
	minimum = 0.036 (at node 6)
	maximum = 0.071 (at node 0)
Injected packet length average = 1
Accepted packet length average = 1
Total in-flight flits = 23 (23 measured)
latency change    = 0.00500594
throughput change = 0.010296
Class 0:
Packet latency average = 19.18
	minimum = 7
	maximum = 41
Network latency average = 19.18
	minimum = 7
	maximum = 41
Slowest packet = 59074
Flit latency average = 19.1824
	minimum = 7
	maximum = 41
Slowest flit = 59074
Fragmentation average = 0
	minimum = 0
	maximum = 0
Injected packet rate average = 0.049875
	minimum = 0.041 (at node 2)
	maximum = 0.0625 (at node 12)
Accepted packet rate average = 0.0498437
	minimum = 0.042 (at node 1)
	maximum = 0.06 (at node 0)
Injected flit rate average = 0.049875
	minimum = 0.041 (at node 2)
	maximum = 0.0625 (at node 12)
Accepted flit rate average= 0.0498437
	minimum = 0.042 (at node 1)
	maximum = 0.06 (at node 0)
Injected packet length average = 1
Accepted packet length average = 1
Total in-flight flits = 13 (13 measured)
latency change    = 0.00574338
throughput change = 0.0257053
Class 0:
Packet latency average = 19.3008
	minimum = 7
	maximum = 41
Network latency average = 19.3008
	minimum = 7
	maximum = 41
Slowest packet = 59074
Flit latency average = 19.3018
	minimum = 7
	maximum = 41
Slowest flit = 59074
Fragmentation average = 0
	minimum = 0
	maximum = 0
Injected packet rate average = 0.050125
	minimum = 0.0423333 (at node 14)
	maximum = 0.0583333 (at node 12)
Accepted packet rate average = 0.0500417
	minimum = 0.04 (at node 1)
	maximum = 0.058 (at node 0)
Injected flit rate average = 0.050125
	minimum = 0.0423333 (at node 14)
	maximum = 0.0583333 (at node 12)
Accepted flit rate average= 0.0500417
	minimum = 0.04 (at node 1)
	maximum = 0.058 (at node 0)
Injected packet length average = 1
Accepted packet length average = 1
Total in-flight flits = 16 (16 measured)
latency change    = 0.00625874
throughput change = 0.00395504
Draining all recorded packets ...
Draining remaining packets ...
Time taken is 6054 cycles
Class 0:
Packet latency average = 19.46
	minimum = 7
	maximum = 38
Network latency average = 19.46
	minimum = 7
	maximum = 38
Slowest packet = 60885
Flit latency average = 19.46
	minimum = 7
	maximum = 38
Slowest flit = 60885
Fragmentation average = 0
	minimum = 0
	maximum = 0
Injected packet rate average = 0.05175
	minimum = 0.037 (at node 8)
	maximum = 0.066 (at node 3)
Accepted packet rate average = 0.0508125
	minimum = 0.036 (at node 4)
	maximum = 0.071 (at node 5)
Injected flit rate average = 0.05175
	minimum = 0.037 (at node 8)
	maximum = 0.066 (at node 3)
Accepted flit rate average= 0.0508125
	minimum = 0.036 (at node 4)
	maximum = 0.071 (at node 5)
Injected packet length average = 1
Accepted packet length average = 1
Total in-flight flits = 15 (0 measured)
latency change    = 1
throughput change = 1
Class 0:
Packet latency average = 19.3089
	minimum = 7
	maximum = 38
Network latency average = 19.3089
	minimum = 7
	maximum = 38
Slowest packet = 60885
Flit latency average = 19.3089
	minimum = 7
	maximum = 38
Slowest flit = 60885
Fragmentation average = 0
	minimum = 0
	maximum = 0
Injected packet rate average = 0.0490312
	minimum = 0.0345 (at node 8)
	maximum = 0.057 (at node 6)
Accepted packet rate average = 0.0485625
	minimum = 0.0385 (at node 4)
	maximum = 0.0565 (at node 5)
Injected flit rate average = 0.0490312
	minimum = 0.0345 (at node 8)
	maximum = 0.057 (at node 6)
Accepted flit rate average= 0.0485625
	minimum = 0.0385 (at node 4)
	maximum = 0.0565 (at node 5)
Injected packet length average = 1
Accepted packet length average = 1
Total in-flight flits = 15 (0 measured)
latency change    = 0.00782771
throughput change = 0.046332
Class 0:
Packet latency average = 19.5465
	minimum = 7
	maximum = 38
Network latency average = 19.5465
	minimum = 7
	maximum = 38
Slowest packet = 62394
Flit latency average = 19.5465
	minimum = 7
	maximum = 38
Slowest flit = 62394
Fragmentation average = 0
	minimum = 0
	maximum = 0
Injected packet rate average = 0.0504375
	minimum = 0.04 (at node 13)
	maximum = 0.059 (at node 4)
Accepted packet rate average = 0.0504375
	minimum = 0.041 (at node 4)
	maximum = 0.06 (at node 13)
Injected flit rate average = 0.0504375
	minimum = 0.04 (at node 13)
	maximum = 0.059 (at node 4)
Accepted flit rate average= 0.0504375
	minimum = 0.041 (at node 4)
	maximum = 0.06 (at node 13)
Injected packet length average = 1
Accepted packet length average = 1
Total in-flight flits = 15 (0 measured)
latency change    = 0.012155
throughput change = 0.0371747
Warmed up ...Time used is 3000 cycles
Class 0:
Packet latency average = 19.317
	minimum = 7
	maximum = 38
Network latency average = 19.317
	minimum = 7
	maximum = 38
Slowest packet = 63038
Flit latency average = 19.3782
	minimum = 7
	maximum = 38
Slowest flit = 63038
Fragmentation average = 0
	minimum = 0
	maximum = 0
Injected packet rate average = 0.0531875
	minimum = 0.041 (at node 12)
	maximum = 0.072 (at node 8)
Accepted packet rate average = 0.053375
	minimum = 0.045 (at node 5)
	maximum = 0.066 (at node 7)
Injected flit rate average = 0.0531875
	minimum = 0.041 (at node 12)
	maximum = 0.072 (at node 8)
Accepted flit rate average= 0.053375
	minimum = 0.045 (at node 5)
	maximum = 0.066 (at node 7)
Injected packet length average = 1
Accepted packet length average = 1
Total in-flight flits = 12 (12 measured)
latency change    = 0.0118768
throughput change = 0.0550351
Class 0:
Packet latency average = 19.4305
	minimum = 7
	maximum = 38
Network latency average = 19.4305
	minimum = 7
	maximum = 38
Slowest packet = 63038
Flit latency average = 19.462
	minimum = 7
	maximum = 38
Slowest flit = 63038
Fragmentation average = 0
	minimum = 0
	maximum = 0
Injected packet rate average = 0.0503437
	minimum = 0.0425 (at node 10)
	maximum = 0.061 (at node 8)
Accepted packet rate average = 0.050125
	minimum = 0.0435 (at node 5)
	maximum = 0.0565 (at node 2)
Injected flit rate average = 0.0503437
	minimum = 0.0425 (at node 10)
	maximum = 0.061 (at node 8)
Accepted flit rate average= 0.050125
	minimum = 0.0435 (at node 5)
	maximum = 0.0565 (at node 2)
Injected packet length average = 1
Accepted packet length average = 1
Total in-flight flits = 22 (22 measured)
latency change    = 0.00583699
throughput change = 0.0648379
Class 0:
Packet latency average = 19.6318
	minimum = 7
	maximum = 38
Network latency average = 19.6318
	minimum = 7
	maximum = 38
Slowest packet = 63038
Flit latency average = 19.6515
	minimum = 7
	maximum = 38
Slowest flit = 63038
Fragmentation average = 0
	minimum = 0
	maximum = 0
Injected packet rate average = 0.05025
	minimum = 0.0426667 (at node 10)
	maximum = 0.058 (at node 8)
Accepted packet rate average = 0.0503333
	minimum = 0.0426667 (at node 4)
	maximum = 0.0573333 (at node 15)
Injected flit rate average = 0.05025
	minimum = 0.0426667 (at node 10)
	maximum = 0.058 (at node 8)
Accepted flit rate average= 0.0503333
	minimum = 0.0426667 (at node 4)
	maximum = 0.0573333 (at node 15)
Injected packet length average = 1
Accepted packet length average = 1
Total in-flight flits = 11 (11 measured)
latency change    = 0.0102569
throughput change = 0.00413907
Class 0:
Packet latency average = 19.6483
	minimum = 7
	maximum = 38
Network latency average = 19.6483
	minimum = 7
	maximum = 38
Slowest packet = 63038
Flit latency average = 19.6629
	minimum = 7
	maximum = 38
Slowest flit = 63038
Fragmentation average = 0
	minimum = 0
	maximum = 0
Injected packet rate average = 0.0504062
	minimum = 0.04525 (at node 0)
	maximum = 0.05725 (at node 8)
Accepted packet rate average = 0.0504375
	minimum = 0.0435 (at node 4)
	maximum = 0.05425 (at node 2)
Injected flit rate average = 0.0504062
	minimum = 0.04525 (at node 0)
	maximum = 0.05725 (at node 8)
Accepted flit rate average= 0.0504375
	minimum = 0.0435 (at node 4)
	maximum = 0.05425 (at node 2)
Injected packet length average = 1
Accepted packet length average = 1
Total in-flight flits = 13 (13 measured)
latency change    = 0.000838937
throughput change = 0.00206526
Class 0:
Packet latency average = 19.5703
	minimum = 7
	maximum = 38
Network latency average = 19.5703
	minimum = 7
	maximum = 38
Slowest packet = 63038
Flit latency average = 19.5822
	minimum = 7
	maximum = 38
Slowest flit = 63038
Fragmentation average = 0
	minimum = 0
	maximum = 0
Injected packet rate average = 0.05125
	minimum = 0.0466 (at node 10)
	maximum = 0.0568 (at node 8)
Accepted packet rate average = 0.0511875
	minimum = 0.0464 (at node 4)
	maximum = 0.0558 (at node 2)
Injected flit rate average = 0.05125
	minimum = 0.0466 (at node 10)
	maximum = 0.0568 (at node 8)
Accepted flit rate average= 0.0511875
	minimum = 0.0464 (at node 4)
	maximum = 0.0558 (at node 2)
Injected packet length average = 1
Accepted packet length average = 1
Total in-flight flits = 20 (20 measured)
latency change    = 0.00398361
throughput change = 0.014652
Draining all recorded packets ...
Draining remaining packets ...
Time taken is 8054 cycles
Class 0:
Packet latency average = 19.6787
	minimum = 7
	maximum = 37
Network latency average = 19.6787
	minimum = 7
	maximum = 37
Slowest packet = 66878
Flit latency average = 19.6787
	minimum = 7
	maximum = 37
Slowest flit = 66878
Fragmentation average = 0
	minimum = 0
	maximum = 0
Injected packet rate average = 0.049375
	minimum = 0.035 (at node 10)
	maximum = 0.058 (at node 12)
Accepted packet rate average = 0.048625
	minimum = 0.032 (at node 10)
	maximum = 0.062 (at node 12)
Injected flit rate average = 0.049375
	minimum = 0.035 (at node 10)
	maximum = 0.058 (at node 12)
Accepted flit rate average= 0.048625
	minimum = 0.032 (at node 10)
	maximum = 0.062 (at node 12)
Injected packet length average = 1
Accepted packet length average = 1
Total in-flight flits = 12 (0 measured)
latency change    = 1
throughput change = 1
Class 0:
Packet latency average = 19.7691
	minimum = 7
	maximum = 38
Network latency average = 19.7691
	minimum = 7
	maximum = 38
Slowest packet = 67675
Flit latency average = 19.7691
	minimum = 7
	maximum = 38
Slowest flit = 67675
Fragmentation average = 0
	minimum = 0
	maximum = 0
Injected packet rate average = 0.0509688
	minimum = 0.042 (at node 10)
	maximum = 0.062 (at node 15)
Accepted packet rate average = 0.0503437
	minimum = 0.036 (at node 10)
	maximum = 0.0575 (at node 12)
Injected flit rate average = 0.0509688
	minimum = 0.042 (at node 10)
	maximum = 0.062 (at node 15)
Accepted flit rate average= 0.0503437
	minimum = 0.036 (at node 10)
	maximum = 0.0575 (at node 12)
Injected packet length average = 1
Accepted packet length average = 1
Total in-flight flits = 20 (0 measured)
latency change    = 0.00457402
throughput change = 0.0341403
Class 0:
Packet latency average = 19.113
	minimum = 7
	maximum = 37
Network latency average = 19.113
	minimum = 7
	maximum = 37
Slowest packet = 68431
Flit latency average = 19.113
	minimum = 7
	maximum = 37
Slowest flit = 68431
Fragmentation average = 0
	minimum = 0
	maximum = 0
Injected packet rate average = 0.0515625
	minimum = 0.038 (at node 11)
	maximum = 0.062 (at node 9)
Accepted packet rate average = 0.052
	minimum = 0.034 (at node 15)
	maximum = 0.069 (at node 13)
Injected flit rate average = 0.0515625
	minimum = 0.038 (at node 11)
	maximum = 0.062 (at node 9)
Accepted flit rate average= 0.052
	minimum = 0.034 (at node 15)
	maximum = 0.069 (at node 13)
Injected packet length average = 1
Accepted packet length average = 1
Total in-flight flits = 13 (0 measured)
latency change    = 0.0343278
throughput change = 0.031851
Warmed up ...Time used is 3000 cycles
Class 0:
Packet latency average = 19.4747
	minimum = 7
	maximum = 39
Network latency average = 19.4747
	minimum = 7
	maximum = 39
Slowest packet = 69927
Flit latency average = 19.536
	minimum = 7
	maximum = 39
Slowest flit = 69927
Fragmentation average = 0
	minimum = 0
	maximum = 0
Injected packet rate average = 0.0536875
	minimum = 0.043 (at node 10)
	maximum = 0.063 (at node 4)
Accepted packet rate average = 0.053875
	minimum = 0.04 (at node 9)
	maximum = 0.065 (at node 13)
Injected flit rate average = 0.0536875
	minimum = 0.043 (at node 10)
	maximum = 0.063 (at node 4)
Accepted flit rate average= 0.053875
	minimum = 0.04 (at node 9)
	maximum = 0.065 (at node 13)
Injected packet length average = 1
Accepted packet length average = 1
Total in-flight flits = 10 (10 measured)
latency change    = 0.0185726
throughput change = 0.0348028
Class 0:
Packet latency average = 19.4334
	minimum = 7
	maximum = 39
Network latency average = 19.4334
	minimum = 7
	maximum = 39
Slowest packet = 69927
Flit latency average = 19.4656
	minimum = 7
	maximum = 39
Slowest flit = 69927
Fragmentation average = 0
	minimum = 0
	maximum = 0
Injected packet rate average = 0.0519063
	minimum = 0.0385 (at node 10)
	maximum = 0.0655 (at node 6)
Accepted packet rate average = 0.0518125
	minimum = 0.0425 (at node 8)
	maximum = 0.06 (at node 11)
Injected flit rate average = 0.0519063
	minimum = 0.0385 (at node 10)
	maximum = 0.0655 (at node 6)
Accepted flit rate average= 0.0518125
	minimum = 0.0425 (at node 8)
	maximum = 0.06 (at node 11)
Injected packet length average = 1
Accepted packet length average = 1
Total in-flight flits = 16 (16 measured)
latency change    = 0.00212219
throughput change = 0.039807
Class 0:
Packet latency average = 19.5266
	minimum = 7
	maximum = 39
Network latency average = 19.5266
	minimum = 7
	maximum = 39
Slowest packet = 69927
Flit latency average = 19.5477
	minimum = 7
	maximum = 39
Slowest flit = 69927
Fragmentation average = 0
	minimum = 0
	maximum = 0
Injected packet rate average = 0.0513333
	minimum = 0.044 (at node 10)
	maximum = 0.0616667 (at node 6)
Accepted packet rate average = 0.0512708
	minimum = 0.0413333 (at node 2)
	maximum = 0.061 (at node 11)
Injected flit rate average = 0.0513333
	minimum = 0.044 (at node 10)
	maximum = 0.0616667 (at node 6)
Accepted flit rate average= 0.0512708
	minimum = 0.0413333 (at node 2)
	maximum = 0.061 (at node 11)
Injected packet length average = 1
Accepted packet length average = 1
Total in-flight flits = 16 (16 measured)
latency change    = 0.00476877
throughput change = 0.0105648
Draining all recorded packets ...
Draining remaining packets ...
Time taken is 6053 cycles
Class 0:
Packet latency average = 19.3646
	minimum = 7
	maximum = 37
Network latency average = 19.3646
	minimum = 7
	maximum = 37
Slowest packet = 71814
Flit latency average = 19.3646
	minimum = 7
	maximum = 37
Slowest flit = 71814
Fragmentation average = 0
	minimum = 0
	maximum = 0
Injected packet rate average = 0.04925
	minimum = 0.038 (at node 11)
	maximum = 0.059 (at node 4)
Accepted packet rate average = 0.0486875
	minimum = 0.037 (at node 11)
	maximum = 0.064 (at node 0)
Injected flit rate average = 0.04925
	minimum = 0.038 (at node 11)
	maximum = 0.059 (at node 4)
Accepted flit rate average= 0.0486875
	minimum = 0.037 (at node 11)
	maximum = 0.064 (at node 0)
Injected packet length average = 1
Accepted packet length average = 1
Total in-flight flits = 9 (0 measured)
latency change    = 1
throughput change = 1
Class 0:
Packet latency average = 19.5762
	minimum = 7
	maximum = 38
Network latency average = 19.5762
	minimum = 7
	maximum = 38
Slowest packet = 72780
Flit latency average = 19.5762
	minimum = 7
	maximum = 38
Slowest flit = 72780
Fragmentation average = 0
	minimum = 0
	maximum = 0
Injected packet rate average = 0.0480625
	minimum = 0.0415 (at node 14)
	maximum = 0.059 (at node 8)
Accepted packet rate average = 0.0475625
	minimum = 0.0365 (at node 11)
	maximum = 0.0605 (at node 0)
Injected flit rate average = 0.0480625
	minimum = 0.0415 (at node 14)
	maximum = 0.059 (at node 8)
Accepted flit rate average= 0.0475625
	minimum = 0.0365 (at node 11)
	maximum = 0.0605 (at node 0)
Injected packet length average = 1
Accepted packet length average = 1
Total in-flight flits = 16 (0 measured)
latency change    = 0.0108114
throughput change = 0.0236531
Class 0:
Packet latency average = 19.6575
	minimum = 7
	maximum = 38
Network latency average = 19.6575
	minimum = 7
	maximum = 38
Slowest packet = 73558
Flit latency average = 19.6575
	minimum = 7
	maximum = 38
Slowest flit = 73558
Fragmentation average = 0
	minimum = 0
	maximum = 0
Injected packet rate average = 0.050125
	minimum = 0.037 (at node 15)
	maximum = 0.062 (at node 8)
Accepted packet rate average = 0.0501875
	minimum = 0.033 (at node 10)
	maximum = 0.063 (at node 3)
Injected flit rate average = 0.050125
[...]
	maximum = 0.067 (at node 5)
Accepted packet rate average = 0.04875
	minimum = 0.04 (at node 14)
	maximum = 0.06 (at node 11)
Injected flit rate average = 0.0485625
	minimum = 0.036 (at node 15)
	maximum = 0.067 (at node 5)
Accepted flit rate average= 0.04875
	minimum = 0.04 (at node 14)
	maximum = 0.06 (at node 11)
Injected packet length average = 1
Accepted packet length average = 1
Total in-flight flits = 9 (0 measured)
latency change    = 0.0222879
throughput change = 0.00961538
Warmed up ...Time used is 3000 cycles
Class 0:
Packet latency average = 19.2121
	minimum = 7
	maximum = 38
Network latency average = 19.2121
	minimum = 7
	maximum = 38
Slowest packet = 504882
Flit latency average = 19.2461
	minimum = 7
	maximum = 38
Slowest flit = 504882
Fragmentation average = 0
	minimum = 0
	maximum = 0
Injected packet rate average = 0.0485
	minimum = 0.039 (at node 1)
	maximum = 0.059 (at node 14)
Accepted packet rate average = 0.048
	minimum = 0.035 (at node 12)
	maximum = 0.065 (at node 2)
Injected flit rate average = 0.0485
	minimum = 0.039 (at node 1)
	maximum = 0.059 (at node 14)
Accepted flit rate average= 0.048
	minimum = 0.035 (at node 12)
	maximum = 0.065 (at node 2)
Injected packet length average = 1
Accepted packet length average = 1
Total in-flight flits = 17 (17 measured)
latency change    = 0.0010313
throughput change = 0.015625
Class 0:
Packet latency average = 19.3781
	minimum = 7
	maximum = 38
Network latency average = 19.3781
	minimum = 7
	maximum = 38
Slowest packet = 504882
Flit latency average = 19.3938
	minimum = 7
	maximum = 38
Slowest flit = 504882
Fragmentation average = 0
	minimum = 0
	maximum = 0
Injected packet rate average = 0.0489687
	minimum = 0.042 (at node 7)
	maximum = 0.056 (at node 14)
Accepted packet rate average = 0.0487187
	minimum = 0.0395 (at node 4)
	maximum = 0.0565 (at node 2)
Injected flit rate average = 0.0489687
	minimum = 0.042 (at node 7)
	maximum = 0.056 (at node 14)
Accepted flit rate average= 0.0487187
	minimum = 0.0395 (at node 4)
	maximum = 0.0565 (at node 2)
Injected packet length average = 1
Accepted packet length average = 1
Total in-flight flits = 17 (17 measured)
latency change    = 0.00856346
throughput change = 0.014753
Class 0:
Packet latency average = 19.3037
	minimum = 7
	maximum = 38
Network latency average = 19.3037
	minimum = 7
	maximum = 38
Slowest packet = 504882
Flit latency average = 19.3145
	minimum = 7
	maximum = 38
Slowest flit = 504882
Fragmentation average = 0
	minimum = 0
	maximum = 0
Injected packet rate average = 0.0488958
	minimum = 0.044 (at node 4)
	maximum = 0.0543333 (at node 3)
Accepted packet rate average = 0.048625
	minimum = 0.041 (at node 12)
	maximum = 0.0583333 (at node 2)
Injected flit rate average = 0.0488958
	minimum = 0.044 (at node 4)
	maximum = 0.0543333 (at node 3)
Accepted flit rate average= 0.048625
	minimum = 0.041 (at node 12)
	maximum = 0.0583333 (at node 2)
Injected packet length average = 1
Accepted packet length average = 1
Total in-flight flits = 22 (22 measured)
latency change    = 0.00385464
throughput change = 0.00192802
Draining all recorded packets ...
Draining remaining packets ...
Time taken is 6058 cycles
Class 0:
Packet latency average = 19.6903
	minimum = 7
	maximum = 37
Network latency average = 19.6903
	minimum = 7
	maximum = 37
Slowest packet = 506652
Flit latency average = 19.6903
	minimum = 7
	maximum = 37
Slowest flit = 506652
Fragmentation average = 0
	minimum = 0
	maximum = 0
Injected packet rate average = 0.0505625
	minimum = 0.031 (at node 5)
	maximum = 0.067 (at node 2)
Accepted packet rate average = 0.0494375
	minimum = 0.041 (at node 15)
	maximum = 0.059 (at node 5)
Injected flit rate average = 0.0505625
	minimum = 0.031 (at node 5)
	maximum = 0.067 (at node 2)
Accepted flit rate average= 0.0494375
	minimum = 0.041 (at node 15)
	maximum = 0.059 (at node 5)
Injected packet length average = 1
Accepted packet length average = 1
Total in-flight flits = 18 (0 measured)
latency change    = 1
throughput change = 1
Class 0:
Packet latency average = 19.7682
	minimum = 7
	maximum = 42
Network latency average = 19.7682
	minimum = 7
	maximum = 42
Slowest packet = 508082
Flit latency average = 19.7682
	minimum = 7
	maximum = 42
Slowest flit = 508082
Fragmentation average = 0
	minimum = 0
	maximum = 0
Injected packet rate average = 0.051125
	minimum = 0.0405 (at node 5)
	maximum = 0.059 (at node 3)
Accepted packet rate average = 0.0505625
	minimum = 0.045 (at node 10)
	maximum = 0.0615 (at node 13)
Injected flit rate average = 0.051125
	minimum = 0.0405 (at node 5)
	maximum = 0.059 (at node 3)
Accepted flit rate average= 0.0505625
	minimum = 0.045 (at node 10)
	maximum = 0.0615 (at node 13)
Injected packet length average = 1
Accepted packet length average = 1
Total in-flight flits = 18 (0 measured)
latency change    = 0.00394405
throughput change = 0.0222497
Class 0:
Packet latency average = 19.0871
	minimum = 7
	maximum = 38
Network latency average = 19.0871
	minimum = 7
	maximum = 38
Slowest packet = 508541
Flit latency average = 19.0871
	minimum = 7
	maximum = 38
Slowest flit = 508541
Fragmentation average = 0
	minimum = 0
	maximum = 0
Injected packet rate average = 0.05025
	minimum = 0.038 (at node 15)
	maximum = 0.064 (at node 6)
Accepted packet rate average = 0.05025
	minimum = 0.041 (at node 0)
	maximum = 0.068 (at node 1)
Injected flit rate average = 0.05025
	minimum = 0.038 (at node 15)
	maximum = 0.064 (at node 6)
Accepted flit rate average= 0.05025
	minimum = 0.041 (at node 0)
	maximum = 0.068 (at node 1)
Injected packet length average = 1
Accepted packet length average = 1
Total in-flight flits = 18 (0 measured)
latency change    = 0.0356874
throughput change = 0.00621891
Warmed up ...Time used is 3000 cycles
Class 0:
Packet latency average = 19.2297
	minimum = 7
	maximum = 40
Network latency average = 19.2297
	minimum = 7
	maximum = 40
Slowest packet = 509390
Flit latency average = 19.3077
	minimum = 7
	maximum = 40
Slowest flit = 509390
Fragmentation average = 0
	minimum = 0
	maximum = 0
Injected packet rate average = 0.049375
	minimum = 0.038 (at node 5)
	maximum = 0.058 (at node 3)
Accepted packet rate average = 0.0495625
	minimum = 0.04 (at node 6)
	maximum = 0.069 (at node 9)
Injected flit rate average = 0.049375
	minimum = 0.038 (at node 5)
	maximum = 0.058 (at node 3)
Accepted flit rate average= 0.0495625
	minimum = 0.04 (at node 6)
	maximum = 0.069 (at node 9)
Injected packet length average = 1
Accepted packet length average = 1
Total in-flight flits = 15 (15 measured)
latency change    = 0.00741628
throughput change = 0.0138714
Class 0:
Packet latency average = 19.5368
	minimum = 7
	maximum = 40
Network latency average = 19.5368
	minimum = 7
	maximum = 40
Slowest packet = 509390
Flit latency average = 19.5728
	minimum = 7
	maximum = 40
Slowest flit = 509390
Fragmentation average = 0
	minimum = 0
	maximum = 0
Injected packet rate average = 0.0488125
	minimum = 0.0385 (at node 13)
	maximum = 0.055 (at node 14)
Accepted packet rate average = 0.0489375
	minimum = 0.043 (at node 8)
	maximum = 0.06 (at node 9)
Injected flit rate average = 0.0488125
	minimum = 0.0385 (at node 13)
	maximum = 0.055 (at node 14)
Accepted flit rate average= 0.0489375
	minimum = 0.043 (at node 8)
	maximum = 0.06 (at node 9)
Injected packet length average = 1
Accepted packet length average = 1
Total in-flight flits = 14 (14 measured)
latency change    = 0.0157213
throughput change = 0.0127714
Class 0:
Packet latency average = 19.4417
	minimum = 7
	maximum = 40
Network latency average = 19.4417
	minimum = 7
	maximum = 40
Slowest packet = 509390
Flit latency average = 19.4665
	minimum = 7
	maximum = 40
Slowest flit = 509390
Fragmentation average = 0
	minimum = 0
	maximum = 0
Injected packet rate average = 0.0486667
	minimum = 0.0413333 (at node 13)
	maximum = 0.055 (at node 14)
Accepted packet rate average = 0.0488125
	minimum = 0.041 (at node 8)
	maximum = 0.058 (at node 9)
Injected flit rate average = 0.0486667
	minimum = 0.0413333 (at node 13)
	maximum = 0.055 (at node 14)
Accepted flit rate average= 0.0488125
	minimum = 0.041 (at node 8)
	maximum = 0.058 (at node 9)
Injected packet length average = 1
Accepted packet length average = 1
Total in-flight flits = 11 (11 measured)
latency change    = 0.00489161
throughput change = 0.00256082
Draining all recorded packets ...
Draining remaining packets ...
Time taken is 6054 cycles
Class 0:
Packet latency average = 19.1905
	minimum = 7
	maximum = 38
Network latency average = 19.1893
	minimum = 7
	maximum = 38
Slowest packet = 511837
Flit latency average = 19.1893
	minimum = 7
	maximum = 38
Slowest flit = 511837
Fragmentation average = 0
	minimum = 0
	maximum = 0
Injected packet rate average = 0.052375
	minimum = 0.041 (at node 14)
	maximum = 0.068 (at node 8)
Accepted packet rate average = 0.0515
	minimum = 0.043 (at node 11)
	maximum = 0.067 (at node 5)
Injected flit rate average = 0.052375
	minimum = 0.041 (at node 14)
	maximum = 0.068 (at node 8)
Accepted flit rate average= 0.0515
	minimum = 0.043 (at node 11)
	maximum = 0.067 (at node 5)
Injected packet length average = 1
Accepted packet length average = 1
Total in-flight flits = 14 (0 measured)
latency change    = 1
throughput change = 1
Class 0:
Packet latency average = 19.4075
	minimum = 7
	maximum = 38
Network latency average = 19.4069
	minimum = 7
	maximum = 38
Slowest packet = 511837
Flit latency average = 19.4069
	minimum = 7
	maximum = 38
Slowest flit = 511837
Fragmentation average = 0
	minimum = 0
	maximum = 0
Injected packet rate average = 0.0504062
	minimum = 0.0405 (at node 14)
	maximum = 0.0655 (at node 8)
Accepted packet rate average = 0.0498437
	minimum = 0.0435 (at node 7)
	maximum = 0.059 (at node 15)
Injected flit rate average = 0.0504062
	minimum = 0.0405 (at node 14)
	maximum = 0.0655 (at node 8)
Accepted flit rate average= 0.0498437
	minimum = 0.0435 (at node 7)
	maximum = 0.059 (at node 15)
Injected packet length average = 1
Accepted packet length average = 1
Total in-flight flits = 18 (0 measured)
latency change    = 0.0111807
throughput change = 0.0332288
Class 0:
Packet latency average = 19.5006
	minimum = 7
	maximum = 37
Network latency average = 19.5006
	minimum = 7
	maximum = 37
Slowest packet = 513043
Flit latency average = 19.5006
	minimum = 7
	maximum = 37
Slowest flit = 513043
Fragmentation average = 0
	minimum = 0
	maximum = 0
Injected packet rate average = 0.0485
	minimum = 0.039 (at node 8)
	maximum = 0.055 (at node 10)
Accepted packet rate average = 0.0484375
	minimum = 0.038 (at node 9)
	maximum = 0.06 (at node 8)
Injected flit rate average = 0.0485
	minimum = 0.039 (at node 8)
	maximum = 0.055 (at node 10)
Accepted flit rate average= 0.0484375
	minimum = 0.038 (at node 9)
	maximum = 0.06 (at node 8)
Injected packet length average = 1
Accepted packet length average = 1
Total in-flight flits = 19 (0 measured)
latency change    = 0.00477531
throughput change = 0.0290323
Warmed up ...Time used is 3000 cycles
Class 0:
Packet latency average = 19.151
	minimum = 7
	maximum = 38
Network latency average = 19.151
	minimum = 7
	maximum = 38
Slowest packet = 514288
Flit latency average = 19.1896
	minimum = 7
	maximum = 38
Slowest flit = 514288
Fragmentation average = 0
	minimum = 0
	maximum = 0
Injected packet rate average = 0.05
	minimum = 0.041 (at node 3)
	maximum = 0.067 (at node 6)
Accepted packet rate average = 0.0504375
	minimum = 0.039 (at node 11)
	maximum = 0.057 (at node 6)
Injected flit rate average = 0.05
	minimum = 0.041 (at node 3)
	maximum = 0.067 (at node 6)
Accepted flit rate average= 0.0504375
	minimum = 0.039 (at node 11)
	maximum = 0.057 (at node 6)
Injected packet length average = 1
Accepted packet length average = 1
Total in-flight flits = 12 (12 measured)
latency change    = 0.0182565
throughput change = 0.039653
Class 0:
Packet latency average = 19.5054
	minimum = 7
	maximum = 41
Network latency average = 19.5054
	minimum = 7
	maximum = 41
Slowest packet = 515211
Flit latency average = 19.5209
	minimum = 7
	maximum = 41
Slowest flit = 515211
Fragmentation average = 0
	minimum = 0
	maximum = 0
Injected packet rate average = 0.0493437
	minimum = 0.0425 (at node 8)
	maximum = 0.0575 (at node 7)
Accepted packet rate average = 0.0494375
	minimum = 0.037 (at node 11)
	maximum = 0.0595 (at node 6)
Injected flit rate average = 0.0493437
	minimum = 0.0425 (at node 8)
	maximum = 0.0575 (at node 7)
Accepted flit rate average= 0.0494375
	minimum = 0.037 (at node 11)
	maximum = 0.0595 (at node 6)
Injected packet length average = 1
Accepted packet length average = 1
Total in-flight flits = 16 (16 measured)
latency change    = 0.0181705
throughput change = 0.0202276
Class 0:
Packet latency average = 19.7181
	minimum = 7
	maximum = 41
Network latency average = 19.7181
	minimum = 7
	maximum = 41
Slowest packet = 515211
Flit latency average = 19.7268
	minimum = 7
	maximum = 41
Slowest flit = 515211
Fragmentation average = 0
	minimum = 0
	maximum = 0
Injected packet rate average = 0.0485625
	minimum = 0.0436667 (at node 3)
	maximum = 0.0583333 (at node 12)
Accepted packet rate average = 0.0485833
	minimum = 0.0403333 (at node 11)
	maximum = 0.0553333 (at node 7)
Injected flit rate average = 0.0485625
	minimum = 0.0436667 (at node 3)
	maximum = 0.0583333 (at node 12)
Accepted flit rate average= 0.0485833
	minimum = 0.0403333 (at node 11)
	maximum = 0.0553333 (at node 7)
Injected packet length average = 1
Accepted packet length average = 1
Total in-flight flits = 18 (18 measured)
latency change    = 0.0107859
throughput change = 0.0175815
Draining all recorded packets ...
Draining remaining packets ...
Time taken is 6060 cycles
Class 0:
Packet latency average = 19.6385
	minimum = 7
	maximum = 41
Network latency average = 19.6385
	minimum = 7
	maximum = 41
Slowest packet = 516559
Flit latency average = 19.6385
	minimum = 7
	maximum = 41
Slowest flit = 516559
Fragmentation average = 0
	minimum = 0
	maximum = 0
Injected packet rate average = 0.0510625
	minimum = 0.042 (at node 9)
	maximum = 0.071 (at node 3)
Accepted packet rate average = 0.049625
	minimum = 0.037 (at node 0)
	maximum = 0.064 (at node 3)
Injected flit rate average = 0.0510625
	minimum = 0.042 (at node 9)
	maximum = 0.071 (at node 3)
Accepted flit rate average= 0.049625
	minimum = 0.037 (at node 0)
	maximum = 0.064 (at node 3)
Injected packet length average = 1
Accepted packet length average = 1
Total in-flight flits = 23 (0 measured)
latency change    = 1
throughput change = 1
Class 0:
Packet latency average = 19.6178
	minimum = 7
	maximum = 41
Network latency average = 19.6178
	minimum = 7
	maximum = 41
Slowest packet = 516559
Flit latency average = 19.6178
	minimum = 7
	maximum = 41
Slowest flit = 516559
Fragmentation average = 0
	minimum = 0
	maximum = 0
Injected packet rate average = 0.0505625
	minimum = 0.041 (at node 15)
	maximum = 0.0615 (at node 3)
Accepted packet rate average = 0.050125
	minimum = 0.0435 (at node 2)
	maximum = 0.0615 (at node 3)
Injected flit rate average = 0.0505625
	minimum = 0.041 (at node 15)
	maximum = 0.0615 (at node 3)
Accepted flit rate average= 0.050125
	minimum = 0.0435 (at node 2)
	maximum = 0.0615 (at node 3)
Injected packet length average = 1
Accepted packet length average = 1
Total in-flight flits = 14 (0 measured)
latency change    = 0.0010556
throughput change = 0.00997506
Class 0:
Packet latency average = 19.4914
	minimum = 7
	maximum = 37
Network latency average = 19.4914
	minimum = 7
	maximum = 37
Slowest packet = 517793
Flit latency average = 19.4914
	minimum = 7
	maximum = 37
Slowest flit = 517793
Fragmentation average = 0
	minimum = 0
	maximum = 0
Injected packet rate average = 0.051125
	minimum = 0.03 (at node 15)
	maximum = 0.063 (at node 4)
Accepted packet rate average = 0.051125
	minimum = 0.032 (at node 5)
	maximum = 0.068 (at node 10)
Injected flit rate average = 0.051125
	minimum = 0.03 (at node 15)
	maximum = 0.063 (at node 4)
Accepted flit rate average= 0.051125
	minimum = 0.032 (at node 5)
	maximum = 0.068 (at node 10)
Injected packet length average = 1
Accepted packet length average = 1
Total in-flight flits = 14 (0 measured)
latency change    = 0.00648428
throughput change = 0.0195599
Warmed up ...Time used is 3000 cycles
Class 0:
Packet latency average = 18.9515
	minimum = 7
	maximum = 38
Network latency average = 18.9515
	minimum = 7
	maximum = 38
Slowest packet = 518714
Flit latency average = 19.0238
	minimum = 7
	maximum = 38
Slowest flit = 518714
Fragmentation average = 0
	minimum = 0
	maximum = 0
Injected packet rate average = 0.0500625
	minimum = 0.039 (at node 8)
	maximum = 0.061 (at node 11)
Accepted packet rate average = 0.049875
	minimum = 0.037 (at node 4)
	maximum = 0.066 (at node 11)
Injected flit rate average = 0.0500625
	minimum = 0.039 (at node 8)
	maximum = 0.061 (at node 11)
Accepted flit rate average= 0.049875
	minimum = 0.037 (at node 4)
	maximum = 0.066 (at node 11)
Injected packet length average = 1
Accepted packet length average = 1
Total in-flight flits = 17 (17 measured)
latency change    = 0.0284891
throughput change = 0.0250627
Class 0:
Packet latency average = 19.4004
	minimum = 7
	maximum = 38
Network latency average = 19.4004
	minimum = 7
	maximum = 38
Slowest packet = 518714
Flit latency average = 19.4322
	minimum = 7
	maximum = 38
Slowest flit = 518714
Fragmentation average = 0
	minimum = 0
	maximum = 0
Injected packet rate average = 0.0506562
	minimum = 0.0415 (at node 6)
	maximum = 0.0615 (at node 0)
Accepted packet rate average = 0.0504687
	minimum = 0.0415 (at node 4)
	maximum = 0.056 (at node 11)
Injected flit rate average = 0.0506562
	minimum = 0.0415 (at node 6)
	maximum = 0.0615 (at node 0)
Accepted flit rate average= 0.0504687
	minimum = 0.0415 (at node 4)
	maximum = 0.056 (at node 11)
Injected packet length average = 1
Accepted packet length average = 1
Total in-flight flits = 20 (20 measured)
latency change    = 0.0231358
throughput change = 0.0117647
Class 0:
Packet latency average = 19.4201
	minimum = 7
	maximum = 38
Network latency average = 19.4201
	minimum = 7
	maximum = 38
Slowest packet = 518714
Flit latency average = 19.4417
	minimum = 7
	maximum = 38
Slowest flit = 518714
Fragmentation average = 0
	minimum = 0
	maximum = 0
Injected packet rate average = 0.0493542
	minimum = 0.0403333 (at node 6)
	maximum = 0.0556667 (at node 11)
Accepted packet rate average = 0.0493333
	minimum = 0.04 (at node 4)
	maximum = 0.0546667 (at node 14)
Injected flit rate average = 0.0493542
	minimum = 0.0403333 (at node 6)
	maximum = 0.0556667 (at node 11)
Accepted flit rate average= 0.0493333
	minimum = 0.04 (at node 4)
	maximum = 0.0546667 (at node 14)
Injected packet length average = 1
Accepted packet length average = 1
Total in-flight flits = 15 (15 measured)
latency change    = 0.00101756
throughput change = 0.0230152
Draining all recorded packets ...
Draining remaining packets ...
Time taken is 6056 cycles
====== Overall Traffic Statistics ======
====== Traffic class 0 ======
Packet latency average = 19.5514 (100 samples)
	minimum = 7 (100 samples)
	maximum = 39.18 (100 samples)
Network latency average = 19.5513 (100 samples)
	minimum = 7 (100 samples)
	maximum = 39.18 (100 samples)
Flit latency average = 19.5646 (100 samples)
	minimum = 7 (100 samples)
	maximum = 39.2 (100 samples)
Fragmentation average = 0 (100 samples)
	minimum = 0 (100 samples)
	maximum = 0 (100 samples)
Injected packet rate average = 0.0499468 (100 samples)
	minimum = 0.0434803 (100 samples)
	maximum = 0.0564037 (100 samples)
Accepted packet rate average = 0.0499434 (100 samples)
	minimum = 0.0434797 (100 samples)
	maximum = 0.0568525 (100 samples)
Injected flit rate average = 0.0499468 (100 samples)
	minimum = 0.0434803 (100 samples)
	maximum = 0.0564037 (100 samples)
Accepted flit rate average = 0.0499434 (100 samples)
	minimum = 0.0434797 (100 samples)
	maximum = 0.0568525 (100 samples)
Injected packet size average = 1 (100 samples)
Accepted packet size average = 1 (100 samples)
Hops average = 3.49696 (100 samples)
Total run time 7.32341
