BEGIN Configuration File: /tmp/bs_1138183_420900.cfg
topology = mesh;
k = 4;
n = 2;
routing_function = valiant;
num_vcs = 4;
vc_buf_size = 4;
wait_for_tail_credit = 1;
vc_allocator = islip;
sw_allocator = islip;
alloc_iters = 1;
credit_delay = 2;
routing_delay = 1;
vc_alloc_delay = 1;
sw_alloc_delay = 1;
input_speedup = 2;
output_speedup = 1;
internal_speedup = 1.0;
traffic = uniform;
packet_size = 1;
sim_type = latency;
injection_rate = 0.05;
warmup_periods = 3;
sample_period = 1000;
sim_count = 100;
seed = 0;

END Configuration File: /tmp/bs_1138183_420900.cfg
Class 0:
Packet latency average = 33.1224
	minimum = 7
	maximum = 62
Network latency average = 33.1224
	minimum = 7
	maximum = 62
Slowest packet = 47
Flit latency average = 33.1224
	minimum = 7
	maximum = 62
Slowest flit = 47
Fragmentation average = 0
	minimum = 0
	maximum = 0
Injected packet rate average = 0.048875
	minimum = 0.041 (at node 5)
	maximum = 0.054 (at node 1)
Accepted packet rate average = 0.0475
	minimum = 0.036 (at node 14)
	maximum = 0.055 (at node 6)
Injected flit rate average = 0.048875
	minimum = 0.041 (at node 5)
	maximum = 0.054 (at node 1)
Accepted flit rate average= 0.0475
	minimum = 0.036 (at node 14)
	maximum = 0.055 (at node 6)
Injected packet length average = 1
Accepted packet length average = 1
Total in-flight flits = 22 (0 measured)
latency change    = 1
throughput change = 1
Class 0:
Packet latency average = 33.3676
	minimum = 7
	maximum = 70
Network latency average = 33.3676
	minimum = 7
	maximum = 70
Slowest packet = 814
Flit latency average = 33.3676
	minimum = 7
	maximum = 70
Slowest flit = 814
Fragmentation average = 0
	minimum = 0
	maximum = 0
Injected packet rate average = 0.049125
	minimum = 0.0395 (at node 8)
	maximum = 0.057 (at node 12)
Accepted packet rate average = 0.0482812
	minimum = 0.042 (at node 4)
	maximum = 0.0545 (at node 3)
Injected flit rate average = 0.049125
	minimum = 0.0395 (at node 8)
	maximum = 0.057 (at node 12)
Accepted flit rate average= 0.0482812
	minimum = 0.042 (at node 4)
	maximum = 0.0545 (at node 3)
Injected packet length average = 1
Accepted packet length average = 1
Total in-flight flits = 27 (0 measured)
latency change    = 0.00735051
throughput change = 0.0161812
Class 0:
Packet latency average = 32.824
	minimum = 7
	maximum = 75
Network latency average = 32.824
	minimum = 7
	maximum = 75
Slowest packet = 2317
Flit latency average = 32.824
	minimum = 7
	maximum = 75
Slowest flit = 2317
Fragmentation average = 0
	minimum = 0
	maximum = 0
Injected packet rate average = 0.0518125
	minimum = 0.045 (at node 4)
	maximum = 0.059 (at node 1)
Accepted packet rate average = 0.0515
	minimum = 0.043 (at node 13)
	maximum = 0.061 (at node 0)
Injected flit rate average = 0.0518125
	minimum = 0.045 (at node 4)
	maximum = 0.059 (at node 1)
Accepted flit rate average= 0.0515
	minimum = 0.043 (at node 13)
	maximum = 0.061 (at node 0)
Injected packet length average = 1
Accepted packet length average = 1
Total in-flight flits = 32 (0 measured)
latency change    = 0.0165613
throughput change = 0.0625
Warmed up ...Time used is 3000 cycles
Class 0:
Packet latency average = 32.8261
	minimum = 7
	maximum = 72
Network latency average = 32.8261
	minimum = 7
	maximum = 72
Slowest packet = 2863
Flit latency average = 33.1094
	minimum = 7
	maximum = 72
Slowest flit = 2863
Fragmentation average = 0
	minimum = 0
	maximum = 0
Injected packet rate average = 0.0480625
	minimum = 0.035 (at node 0)
	maximum = 0.057 (at node 9)
Accepted packet rate average = 0.048
	minimum = 0.035 (at node 2)
	maximum = 0.063 (at node 6)
Injected flit rate average = 0.0480625
	minimum = 0.035 (at node 0)
	maximum = 0.057 (at node 9)
Accepted flit rate average= 0.048
	minimum = 0.035 (at node 2)
	maximum = 0.063 (at node 6)
Injected packet length average = 1
Accepted packet length average = 1
Total in-flight flits = 33 (33 measured)
latency change    = 6.26889e-05
throughput change = 0.0729167
Class 0:
Packet latency average = 33.0212
	minimum = 7
	maximum = 72
Network latency average = 33.0212
	minimum = 7
	maximum = 72
Slowest packet = 2863
Flit latency average = 33.1586
	minimum = 7
	maximum = 72
Slowest flit = 2863
Fragmentation average = 0
	minimum = 0
	maximum = 0
Injected packet rate average = 0.0476875
	minimum = 0.0365 (at node 0)
	maximum = 0.0575 (at node 9)
Accepted packet rate average = 0.0480625
	minimum = 0.0385 (at node 2)
	maximum = 0.0575 (at node 6)
Injected flit rate average = 0.0476875
	minimum = 0.0365 (at node 0)
	maximum = 0.0575 (at node 9)
Accepted flit rate average= 0.0480625
	minimum = 0.0385 (at node 2)
	maximum = 0.0575 (at node 6)
Injected packet length average = 1
Accepted packet length average = 1
Total in-flight flits = 20 (20 measured)
latency change    = 0.00591018
throughput change = 0.00130039
Class 0:
Packet latency average = 33.2202
	minimum = 7
	maximum = 76
Network latency average = 33.2202
	minimum = 7
	maximum = 76
Slowest packet = 4269
Flit latency average = 33.3085
	minimum = 7
	maximum = 76
Slowest flit = 4269
Fragmentation average = 0
	minimum = 0
	maximum = 0
Injected packet rate average = 0.0481667
	minimum = 0.041 (at node 0)
	maximum = 0.057 (at node 15)
Accepted packet rate average = 0.0483542
	minimum = 0.0403333 (at node 0)
	maximum = 0.0553333 (at node 6)
Injected flit rate average = 0.0481667
	minimum = 0.041 (at node 0)
	maximum = 0.057 (at node 15)
Accepted flit rate average= 0.0483542
	minimum = 0.0403333 (at node 0)
	maximum = 0.0553333 (at node 6)
Injected packet length average = 1
Accepted packet length average = 1
Total in-flight flits = 23 (23 measured)
latency change    = 0.00598838
throughput change = 0.00603188
Class 0:
Packet latency average = 33.2214
	minimum = 7
	maximum = 76
Network latency average = 33.2214
	minimum = 7
	maximum = 76
Slowest packet = 4269
Flit latency average = 33.2866
	minimum = 7
	maximum = 76
Slowest flit = 4269
Fragmentation average = 0
	minimum = 0
	maximum = 0
Injected packet rate average = 0.0488906
	minimum = 0.04275 (at node 0)
	maximum = 0.054 (at node 15)
Accepted packet rate average = 0.0490625
	minimum = 0.0435 (at node 4)
	maximum = 0.05625 (at node 7)
Injected flit rate average = 0.0488906
	minimum = 0.04275 (at node 0)
	maximum = 0.054 (at node 15)
Accepted flit rate average= 0.0490625
	minimum = 0.0435 (at node 4)
	maximum = 0.05625 (at node 7)
Injected packet length average = 1
Accepted packet length average = 1
Total in-flight flits = 21 (21 measured)
latency change    = 3.55414e-05
throughput change = 0.0144374
Draining all recorded packets ...
Draining remaining packets ...
Time taken is 7096 cycles
Class 0:
Packet latency average = 32.5013
	minimum = 7
	maximum = 65
Network latency average = 32.5013
	minimum = 7
	maximum = 65
Slowest packet = 6255
Flit latency average = 32.5013
	minimum = 7
	maximum = 65
Slowest flit = 6255
Fragmentation average = 0
	minimum = 0
	maximum = 0
Injected packet rate average = 0.050125
	minimum = 0.038 (at node 15)
	maximum = 0.061 (at node 6)
Accepted packet rate average = 0.048875
	minimum = 0.036 (at node 4)
	maximum = 0.061 (at node 2)
Injected flit rate average = 0.050125
	minimum = 0.038 (at node 15)
	maximum = 0.061 (at node 6)
Accepted flit rate average= 0.048875
	minimum = 0.036 (at node 4)
	maximum = 0.061 (at node 2)
Injected packet length average = 1
Accepted packet length average = 1
Total in-flight flits = 20 (0 measured)
latency change    = 1
throughput change = 1
Class 0:
Packet latency average = 32.9193
	minimum = 7
	maximum = 77
Network latency average = 32.9193
	minimum = 7
	maximum = 77
Slowest packet = 6882
Flit latency average = 32.9193
	minimum = 7
	maximum = 77
Slowest flit = 6882
Fragmentation average = 0
	minimum = 0
	maximum = 0
Injected packet rate average = 0.0509063
	minimum = 0.045 (at node 7)
	maximum = 0.0625 (at node 6)
Accepted packet rate average = 0.0503437
	minimum = 0.0425 (at node 13)
	maximum = 0.0565 (at node 1)
Injected flit rate average = 0.0509063
	minimum = 0.045 (at node 7)
	maximum = 0.0625 (at node 6)
Accepted flit rate average= 0.0503437
	minimum = 0.0425 (at node 13)
	maximum = 0.0565 (at node 1)
Injected packet length average = 1
Accepted packet length average = 1
Total in-flight flits = 18 (0 measured)
latency change    = 0.0126985
throughput change = 0.0291744
Class 0:
Packet latency average = 32.3583
	minimum = 7
	maximum = 65
Network latency average = 32.3583
	minimum = 7
	maximum = 65
Slowest packet = 7170
Flit latency average = 32.3583
	minimum = 7
	maximum = 65
Slowest flit = 7170
Fragmentation average = 0
	minimum = 0
	maximum = 0
Injected packet rate average = 0.0473125
	minimum = 0.034 (at node 4)
	maximum = 0.058 (at node 10)
Accepted packet rate average = 0.04675
	minimum = 0.031 (at node 4)
	maximum = 0.064 (at node 8)
Injected flit rate average = 0.0473125
	minimum = 0.034 (at node 4)
	maximum = 0.058 (at node 10)
Accepted flit rate average= 0.04675
	minimum = 0.031 (at node 4)
	maximum = 0.064 (at node 8)
Injected packet length average = 1
Accepted packet length average = 1
Total in-flight flits = 27 (0 measured)
latency change    = 0.0173376
throughput change = 0.0768717
Warmed up ...Time used is 3000 cycles
Class 0:
Packet latency average = 32.8522
	minimum = 7
	maximum = 68
Network latency average = 32.8522
	minimum = 7
	maximum = 68
Slowest packet = 8455
Flit latency average = 32.9789
	minimum = 7
	maximum = 68
Slowest flit = 8455
Fragmentation average = 0
	minimum = 0
	maximum = 0
Injected packet rate average = 0.0496875
	minimum = 0.04 (at node 2)
	maximum = 0.059 (at node 12)
Accepted packet rate average = 0.0503125
	minimum = 0.039 (at node 5)
	maximum = 0.065 (at node 7)
Injected flit rate average = 0.0496875
	minimum = 0.04 (at node 2)
	maximum = 0.059 (at node 12)
Accepted flit rate average= 0.0503125
	minimum = 0.039 (at node 5)
	maximum = 0.065 (at node 7)
Injected packet length average = 1
Accepted packet length average = 1
Total in-flight flits = 17 (17 measured)
latency change    = 0.0150339
throughput change = 0.0708075
Class 0:
Packet latency average = 33.0256
	minimum = 7
	maximum = 68
Network latency average = 33.0256
	minimum = 7
	maximum = 68
Slowest packet = 8455
Flit latency average = 33.0854
	minimum = 7
	maximum = 68
Slowest flit = 8455
Fragmentation average = 0
	minimum = 0
	maximum = 0
Injected packet rate average = 0.05075
	minimum = 0.042 (at node 3)
	maximum = 0.0625 (at node 12)
Accepted packet rate average = 0.050875
	minimum = 0.043 (at node 5)
	maximum = 0.0625 (at node 13)
Injected flit rate average = 0.05075
	minimum = 0.042 (at node 3)
	maximum = 0.0625 (at node 12)
Accepted flit rate average= 0.050875
	minimum = 0.043 (at node 5)
	maximum = 0.0625 (at node 13)
Injected packet length average = 1
Accepted packet length average = 1
Total in-flight flits = 23 (23 measured)
latency change    = 0.00525119
throughput change = 0.0110565
Class 0:
Packet latency average = 33.383
	minimum = 7
	maximum = 68
Network latency average = 33.383
	minimum = 7
	maximum = 68
Slowest packet = 8455
Flit latency average = 33.4186
	minimum = 7
	maximum = 68
Slowest flit = 8455
Fragmentation average = 0
	minimum = 0
	maximum = 0
Injected packet rate average = 0.0512917
	minimum = 0.0436667 (at node 14)
	maximum = 0.0583333 (at node 0)
Accepted packet rate average = 0.0513125
	minimum = 0.0436667 (at node 15)
	maximum = 0.062 (at node 13)
Injected flit rate average = 0.0512917
	minimum = 0.0436667 (at node 14)
	maximum = 0.0583333 (at node 0)
Accepted flit rate average= 0.0513125
	minimum = 0.0436667 (at node 15)
	maximum = 0.062 (at node 13)
Injected packet length average = 1
Accepted packet length average = 1
Total in-flight flits = 26 (26 measured)
latency change    = 0.0107059
throughput change = 0.00852619
Class 0:
Packet latency average = 33.3524
	minimum = 7
	maximum = 68
Network latency average = 33.3524
	minimum = 7
	maximum = 68
Slowest packet = 8455
Flit latency average = 33.379
	minimum = 7
	maximum = 68
Slowest flit = 8455
Fragmentation average = 0
	minimum = 0
	maximum = 0
Injected packet rate average = 0.0519531
	minimum = 0.04575 (at node 1)
	maximum = 0.0595 (at node 12)
Accepted packet rate average = 0.0518594
	minimum = 0.04725 (at node 5)
	maximum = 0.06025 (at node 13)
Injected flit rate average = 0.0519531
	minimum = 0.04575 (at node 1)
	maximum = 0.0595 (at node 12)
Accepted flit rate average= 0.0518594
	minimum = 0.04725 (at node 5)
	maximum = 0.06025 (at node 13)
Injected packet length average = 1
Accepted packet length average = 1
Total in-flight flits = 33 (33 measured)
latency change    = 0.000918542
throughput change = 0.0105453
Draining all recorded packets ...
Draining remaining packets ...
Time taken is 7083 cycles
Class 0:
Packet latency average = 33.9307
	minimum = 7
	maximum = 68
Network latency average = 33.9307
	minimum = 7
	maximum = 68
Slowest packet = 11814
Flit latency average = 33.9307
	minimum = 7
	maximum = 68
Slowest flit = 11814
Fragmentation average = 0
	minimum = 0
	maximum = 0
Injected packet rate average = 0.0494375
	minimum = 0.037 (at node 6)
	maximum = 0.062 (at node 2)
Accepted packet rate average = 0.0478125
	minimum = 0.031 (at node 0)
	maximum = 0.056 (at node 3)
Injected flit rate average = 0.0494375
	minimum = 0.037 (at node 6)
	maximum = 0.062 (at node 2)
Accepted flit rate average= 0.0478125
	minimum = 0.031 (at node 0)
	maximum = 0.056 (at node 3)
Injected packet length average = 1
Accepted packet length average = 1
Total in-flight flits = 26 (0 measured)
latency change    = 1
throughput change = 1
Class 0:
Packet latency average = 33.3119
	minimum = 7
	maximum = 74
Network latency average = 33.3119
	minimum = 7
	maximum = 74
Slowest packet = 12404
Flit latency average = 33.3119
	minimum = 7
	maximum = 74
Slowest flit = 12404
Fragmentation average = 0
	minimum = 0
	maximum = 0
Injected packet rate average = 0.0495312
	minimum = 0.039 (at node 0)
	maximum = 0.0575 (at node 10)
Accepted packet rate average = 0.0486875
	minimum = 0.033 (at node 0)
	maximum = 0.0595 (at node 11)
Injected flit rate average = 0.0495312
	minimum = 0.039 (at node 0)
	maximum = 0.0575 (at node 10)
Accepted flit rate average= 0.0486875
	minimum = 0.033 (at node 0)
	maximum = 0.0595 (at node 11)
Injected packet length average = 1
Accepted packet length average = 1
Total in-flight flits = 27 (0 measured)
latency change    = 0.0185753
throughput change = 0.0179718
Class 0:
Packet latency average = 33.203
	minimum = 7
	maximum = 71
Network latency average = 33.203
	minimum = 7
	maximum = 71
Slowest packet = 12963
Flit latency average = 33.203
	minimum = 7
	maximum = 71
Slowest flit = 12963
Fragmentation average = 0
	minimum = 0
	maximum = 0
Injected packet rate average = 0.04925
	minimum = 0.041 (at node 2)
	maximum = 0.058 (at node 3)
Accepted packet rate average = 0.04925
	minimum = 0.037 (at node 11)
	maximum = 0.063 (at node 7)
Injected flit rate average = 0.04925
	minimum = 0.041 (at node 2)
	maximum = 0.058 (at node 3)
Accepted flit rate average= 0.04925
	minimum = 0.037 (at node 11)
	maximum = 0.063 (at node 7)
Injected packet length average = 1
Accepted packet length average = 1
Total in-flight flits = 27 (0 measured)
latency change    = 0.0032796
throughput change = 0.0114213
Warmed up ...Time used is 3000 cycles
Class 0:
Packet latency average = 32.7995
	minimum = 7
	maximum = 69
Network latency average = 32.7995
	minimum = 7
	maximum = 69
Slowest packet = 14372
Flit latency average = 33.0421
	minimum = 7
	maximum = 69
Slowest flit = 14372
Fragmentation average = 0
	minimum = 0
	maximum = 0
Injected packet rate average = 0.0475
	minimum = 0.04 (at node 6)
	maximum = 0.064 (at node 12)
Accepted packet rate average = 0.0475
	minimum = 0.038 (at node 0)
	maximum = 0.058 (at node 14)
Injected flit rate average = 0.0475
	minimum = 0.04 (at node 6)
	maximum = 0.064 (at node 12)
Accepted flit rate average= 0.0475
	minimum = 0.038 (at node 0)
	maximum = 0.058 (at node 14)
Injected packet length average = 1
Accepted packet length average = 1
Total in-flight flits = 27 (27 measured)
latency change    = 0.0123048
throughput change = 0.0368421
Class 0:
Packet latency average = 32.7738
	minimum = 7
	maximum = 72
Network latency average = 32.7738
	minimum = 7
	maximum = 72
Slowest packet = 14511
Flit latency average = 32.8891
	minimum = 7
	maximum = 72
Slowest flit = 14511
Fragmentation average = 0
	minimum = 0
	maximum = 0
Injected packet rate average = 0.0500312
	minimum = 0.0425 (at node 5)
	maximum = 0.059 (at node 12)
Accepted packet rate average = 0.0501562
	minimum = 0.037 (at node 3)
	maximum = 0.0585 (at node 2)
Injected flit rate average = 0.0500312
	minimum = 0.0425 (at node 5)
	maximum = 0.059 (at node 12)
Accepted flit rate average= 0.0501562
	minimum = 0.037 (at node 3)
	maximum = 0.0585 (at node 2)
Injected packet length average = 1
Accepted packet length average = 1
Total in-flight flits = 23 (23 measured)
latency change    = 0.00078386
throughput change = 0.0529595
Class 0:
Packet latency average = 33.0294
	minimum = 7
	maximum = 72
Network latency average = 33.0294
	minimum = 7
	maximum = 72
Slowest packet = 14511
Flit latency average = 33.1034
	minimum = 7
	maximum = 72
Slowest flit = 14511
Fragmentation average = 0
	minimum = 0
	maximum = 0
Injected packet rate average = 0.0499792
	minimum = 0.044 (at node 15)
	maximum = 0.0573333 (at node 7)
Accepted packet rate average = 0.0501458
	minimum = 0.042 (at node 3)
	maximum = 0.0556667 (at node 10)
Injected flit rate average = 0.0499792
	minimum = 0.044 (at node 15)
	maximum = 0.0573333 (at node 7)
Accepted flit rate average= 0.0501458
	minimum = 0.042 (at node 3)
	maximum = 0.0556667 (at node 10)
Injected packet length average = 1
Accepted packet length average = 1
Total in-flight flits = 19 (19 measured)
latency change    = 0.00774
throughput change = 0.000207727
Class 0:
Packet latency average = 33.0326
	minimum = 7
	maximum = 72
Network latency average = 33.0326
	minimum = 7
	maximum = 72
Slowest packet = 14511
Flit latency average = 33.0874
	minimum = 7
	maximum = 72
Slowest flit = 14511
Fragmentation average = 0
	minimum = 0
	maximum = 0
Injected packet rate average = 0.0506875
	minimum = 0.043 (at node 5)
	maximum = 0.05775 (at node 7)
Accepted packet rate average = 0.0507656
	minimum = 0.04675 (at node 3)
	maximum = 0.05525 (at node 2)
Injected flit rate average = 0.0506875
	minimum = 0.043 (at node 5)
	maximum = 0.05775 (at node 7)
Accepted flit rate average= 0.0507656
	minimum = 0.04675 (at node 3)
	maximum = 0.05525 (at node 2)
Injected packet length average = 1
Accepted packet length average = 1
Total in-flight flits = 22 (22 measured)
latency change    = 9.61684e-05
throughput change = 0.0122089
Class 0:
Packet latency average = 33.0771
	minimum = 7
	maximum = 72
Network latency average = 33.0771
	minimum = 7
	maximum = 72
Slowest packet = 14511
Flit latency average = 33.1206
	minimum = 7
	maximum = 72
Slowest flit = 14511
Fragmentation average = 0
	minimum = 0
	maximum = 0
Injected packet rate average = 0.0508625
	minimum = 0.0454 (at node 15)
	maximum = 0.0564 (at node 7)
Accepted packet rate average = 0.0509
	minimum = 0.0456 (at node 12)
	maximum = 0.0542 (at node 1)
Injected flit rate average = 0.0508625
	minimum = 0.0454 (at node 15)
	maximum = 0.0564 (at node 7)
Accepted flit rate average= 0.0509
	minimum = 0.0456 (at node 12)
	maximum = 0.0542 (at node 1)
Injected packet length average = 1
Accepted packet length average = 1
Total in-flight flits = 24 (24 measured)
latency change    = 0.00134666
throughput change = 0.00263998
Draining all recorded packets ...
Draining remaining packets ...
Time taken is 8067 cycles
Class 0:
Packet latency average = 33.9756
	minimum = 7
	maximum = 79
Network latency average = 33.9756
	minimum = 7
	maximum = 79
Slowest packet = 18009
Flit latency average = 33.9756
	minimum = 7
	maximum = 79
Slowest flit = 18009
Fragmentation average = 0
	minimum = 0
	maximum = 0
Injected packet rate average = 0.050125
	minimum = 0.035 (at node 1)
	maximum = 0.068 (at node 0)
Accepted packet rate average = 0.048625
	minimum = 0.039 (at node 1)
	maximum = 0.063 (at node 0)
Injected flit rate average = 0.050125
	minimum = 0.035 (at node 1)
	maximum = 0.068 (at node 0)
Accepted flit rate average= 0.048625
	minimum = 0.039 (at node 1)
	maximum = 0.063 (at node 0)
Injected packet length average = 1
Accepted packet length average = 1
Total in-flight flits = 24 (0 measured)
latency change    = 1
throughput change = 1
Class 0:
Packet latency average = 33.4743
	minimum = 7
	maximum = 79
Network latency average = 33.4743
	minimum = 7
	maximum = 79
Slowest packet = 18009
Flit latency average = 33.4743
	minimum = 7
	maximum = 79
Slowest flit = 18009
Fragmentation average = 0
	minimum = 0
	maximum = 0
Injected packet rate average = 0.048875
	minimum = 0.04 (at node 1)
	maximum = 0.059 (at node 10)
Accepted packet rate average = 0.0480937
	minimum = 0.0425 (at node 1)
	maximum = 0.0545 (at node 6)
Injected flit rate average = 0.048875
	minimum = 0.04 (at node 1)
	maximum = 0.059 (at node 10)
Accepted flit rate average= 0.0480937
	minimum = 0.0425 (at node 1)
	maximum = 0.0545 (at node 6)
Injected packet length average = 1
Accepted packet length average = 1
Total in-flight flits = 25 (0 measured)
latency change    = 0.014974
throughput change = 0.0110461
Class 0:
Packet latency average = 32.8952
	minimum = 7
	maximum = 67
Network latency average = 32.8952
	minimum = 7
	maximum = 67
Slowest packet = 19819
Flit latency average = 32.8952
	minimum = 7
	maximum = 67
Slowest flit = 19819
Fragmentation average = 0
	minimum = 0
	maximum = 0
Injected packet rate average = 0.0516875
	minimum = 0.034 (at node 15)
	maximum = 0.065 (at node 11)
Accepted packet rate average = 0.051875
	minimum = 0.043 (at node 12)
	maximum = 0.063 (at node 7)
Injected flit rate average = 0.0516875
	minimum = 0.034 (at node 15)
	maximum = 0.065 (at node 11)
Accepted flit rate average= 0.051875
	minimum = 0.043 (at node 12)
	maximum = 0.063 (at node 7)
Injected packet length average = 1
Accepted packet length average = 1
Total in-flight flits = 22 (0 measured)
latency change    = 0.017606
throughput change = 0.0728916
Warmed up ...Time used is 3000 cycles
Class 0:
Packet latency average = 32.9177
	minimum = 7
	maximum = 70
Network latency average = 32.9177
	minimum = 7
	maximum = 70
Slowest packet = 20259
Flit latency average = 32.9467
	minimum = 7
	maximum = 70
Slowest flit = 20259
Fragmentation average = 0
	minimum = 0
	maximum = 0
Injected packet rate average = 0.0469375
	minimum = 0.035 (at node 15)
	maximum = 0.062 (at node 7)
Accepted packet rate average = 0.0469375
	minimum = 0.033 (at node 10)
	maximum = 0.06 (at node 7)
Injected flit rate average = 0.0469375
	minimum = 0.035 (at node 15)
	maximum = 0.062 (at node 7)
Accepted flit rate average= 0.0469375
	minimum = 0.033 (at node 10)
	maximum = 0.06 (at node 7)
Injected packet length average = 1
Accepted packet length average = 1
Total in-flight flits = 22 (22 measured)
latency change    = 0.000683971
throughput change = 0.105193
Class 0:
Packet latency average = 33.4408
	minimum = 7
	maximum = 71
Network latency average = 33.4408
	minimum = 7
	maximum = 71
Slowest packet = 21172
Flit latency average = 33.4476
	minimum = 7
	maximum = 71
Slowest flit = 21172
Fragmentation average = 0
	minimum = 0
	maximum = 0
Injected packet rate average = 0.0476875
	minimum = 0.04 (at node 5)
	maximum = 0.061 (at node 7)
Accepted packet rate average = 0.0476875
	minimum = 0.036 (at node 2)
	maximum = 0.0565 (at node 7)
Injected flit rate average = 0.0476875
	minimum = 0.04 (at node 5)
	maximum = 0.061 (at node 7)
Accepted flit rate average= 0.0476875
	minimum = 0.036 (at node 2)
	maximum = 0.0565 (at node 7)
Injected packet length average = 1
Accepted packet length average = 1
Total in-flight flits = 22 (22 measured)
latency change    = 0.0156434
throughput change = 0.0157274
Class 0:
Packet latency average = 33.3681
	minimum = 7
	maximum = 71
Network latency average = 33.3681
	minimum = 7
	maximum = 71
Slowest packet = 21172
Flit latency average = 33.3733
	minimum = 7
	maximum = 71
Slowest flit = 21172
Fragmentation average = 0
	minimum = 0
	maximum = 0
Injected packet rate average = 0.0480625
	minimum = 0.0426667 (at node 6)
	maximum = 0.0546667 (at node 3)
Accepted packet rate average = 0.0479375
	minimum = 0.0403333 (at node 2)
	maximum = 0.0563333 (at node 9)
Injected flit rate average = 0.0480625
	minimum = 0.0426667 (at node 6)
	maximum = 0.0546667 (at node 3)
Accepted flit rate average= 0.0479375
	minimum = 0.0403333 (at node 2)
	maximum = 0.0563333 (at node 9)
Injected packet length average = 1
Accepted packet length average = 1
Total in-flight flits = 28 (28 measured)
latency change    = 0.00217814
throughput change = 0.00521512
Class 0:
Packet latency average = 33.3669
	minimum = 7
	maximum = 84
Network latency average = 33.3669
	minimum = 7
	maximum = 84
Slowest packet = 23085
Flit latency average = 33.3708
	minimum = 7
	maximum = 84
Slowest flit = 23085
Fragmentation average = 0
	minimum = 0
	maximum = 0
Injected packet rate average = 0.0482656
	minimum = 0.042 (at node 2)
	maximum = 0.05225 (at node 3)
Accepted packet rate average = 0.0482969
	minimum = 0.04125 (at node 2)
	maximum = 0.0545 (at node 9)
Injected flit rate average = 0.0482656
	minimum = 0.042 (at node 2)
	maximum = 0.05225 (at node 3)
Accepted flit rate average= 0.0482969
	minimum = 0.04125 (at node 2)
	maximum = 0.0545 (at node 9)
Injected packet length average = 1
Accepted packet length average = 1
Total in-flight flits = 20 (20 measured)
latency change    = 3.74374e-05
throughput change = 0.00744096
Draining all recorded packets ...
Draining remaining packets ...
Time taken is 7073 cycles
Class 0:
Packet latency average = 32.5504
	minimum = 7
	maximum = 75
Network latency average = 32.5504
	minimum = 7
	maximum = 75
Slowest packet = 23493
Flit latency average = 32.5504
	minimum = 7
	maximum = 75
Slowest flit = 23493
Fragmentation average = 0
	minimum = 0
	maximum = 0
Injected packet rate average = 0.0484375
	minimum = 0.041 (at node 9)
	maximum = 0.057 (at node 1)
Accepted packet rate average = 0.047125
	minimum = 0.04 (at node 12)
	maximum = 0.062 (at node 14)
Injected flit rate average = 0.0484375
	minimum = 0.041 (at node 9)
	maximum = 0.057 (at node 1)
Accepted flit rate average= 0.047125
	minimum = 0.04 (at node 12)
	maximum = 0.062 (at node 14)
Injected packet length average = 1
Accepted packet length average = 1
Total in-flight flits = 21 (0 measured)
latency change    = 1
throughput change = 1
Class 0:
Packet latency average = 32.678
	minimum = 7
	maximum = 75
Network latency average = 32.678
	minimum = 7
	maximum = 75
Slowest packet = 23493
Flit latency average = 32.678
	minimum = 7
	maximum = 75
Slowest flit = 23493
Fragmentation average = 0
	minimum = 0
	maximum = 0
Injected packet rate average = 0.0495937
	minimum = 0.039 (at node 9)
	maximum = 0.0575 (at node 14)
Accepted packet rate average = 0.0487187
	minimum = 0.0375 (at node 1)
	maximum = 0.059 (at node 14)
Injected flit rate average = 0.0495937
	minimum = 0.039 (at node 9)
	maximum = 0.0575 (at node 14)
Accepted flit rate average= 0.0487187
	minimum = 0.0375 (at node 1)
	maximum = 0.059 (at node 14)
Injected packet length average = 1
Accepted packet length average = 1
Total in-flight flits = 28 (0 measured)
latency change    = 0.00390479
throughput change = 0.0327133
Class 0:
Packet latency average = 33.1978
	minimum = 7
	maximum = 68
Network latency average = 33.1978
	minimum = 7
	maximum = 68
Slowest packet = 25254
Flit latency average = 33.1978
	minimum = 7
	maximum = 68
Slowest flit = 25254
Fragmentation average = 0
	minimum = 0
	maximum = 0
Injected packet rate average = 0.05225
	minimum = 0.043 (at node 2)
	maximum = 0.064 (at node 9)
Accepted packet rate average = 0.052125
	minimum = 0.042 (at node 14)
	maximum = 0.066 (at node 3)
Injected flit rate average = 0.05225
	minimum = 0.043 (at node 2)
	maximum = 0.064 (at node 9)
Accepted flit rate average= 0.052125
	minimum = 0.042 (at node 14)
	maximum = 0.066 (at node 3)
Injected packet length average = 1
Accepted packet length average = 1
Total in-flight flits = 30 (0 measured)
latency change    = 0.0156589
throughput change = 0.0653477
Warmed up ...Time used is 3000 cycles
Class 0:
Packet latency average = 32.9004
	minimum = 7
	maximum = 68
Network latency average = 32.9004
	minimum = 7
	maximum = 68
Slowest packet = 26408
Flit latency average = 32.9545
	minimum = 7
	maximum = 68
Slowest flit = 26408
Fragmentation average = 0
	minimum = 0
	maximum = 0
Injected packet rate average = 0.0505
	minimum = 0.042 (at node 4)
	maximum = 0.067 (at node 2)
Accepted packet rate average = 0.0508125
	minimum = 0.04 (at node 8)
	maximum = 0.061 (at node 14)
Injected flit rate average = 0.0505
	minimum = 0.042 (at node 4)
	maximum = 0.067 (at node 2)
Accepted flit rate average= 0.0508125
	minimum = 0.04 (at node 8)
	maximum = 0.061 (at node 14)
Injected packet length average = 1
Accepted packet length average = 1
Total in-flight flits = 25 (25 measured)
latency change    = 0.00904119
throughput change = 0.0258303
Class 0:
Packet latency average = 32.6111
	minimum = 7
	maximum = 68
Network latency average = 32.6111
	minimum = 7
	maximum = 68
Slowest packet = 26408
Flit latency average = 32.6442
	minimum = 7
	maximum = 68
Slowest flit = 26408
Fragmentation average = 0
	minimum = 0
	maximum = 0
Injected packet rate average = 0.0494062
	minimum = 0.042 (at node 4)
	maximum = 0.0575 (at node 2)
Accepted packet rate average = 0.0497187
	minimum = 0.0415 (at node 3)
	maximum = 0.058 (at node 9)
Injected flit rate average = 0.0494062
	minimum = 0.042 (at node 4)
	maximum = 0.0575 (at node 2)
Accepted flit rate average= 0.0497187
	minimum = 0.0415 (at node 3)
	maximum = 0.058 (at node 9)
Injected packet length average = 1
Accepted packet length average = 1
Total in-flight flits = 20 (20 measured)
latency change    = 0.00886925
throughput change = 0.0219987
Class 0:
Packet latency average = 32.8184
	minimum = 7
	maximum = 71
Network latency average = 32.8184
	minimum = 7
	maximum = 71
Slowest packet = 27925
Flit latency average = 32.8377
	minimum = 7
	maximum = 71
Slowest flit = 27925
Fragmentation average = 0
	minimum = 0
	maximum = 0
Injected packet rate average = 0.0502708
	minimum = 0.045 (at node 3)
	maximum = 0.0573333 (at node 2)
Accepted packet rate average = 0.0501875
	minimum = 0.0406667 (at node 3)
	maximum = 0.061 (at node 9)
Injected flit rate average = 0.0502708
	minimum = 0.045 (at node 3)
	maximum = 0.0573333 (at node 2)
Accepted flit rate average= 0.0501875
	minimum = 0.0406667 (at node 3)
	maximum = 0.061 (at node 9)
Injected packet length average = 1
Accepted packet length average = 1
Total in-flight flits = 34 (34 measured)
latency change    = 0.00631549
throughput change = 0.00933998
Draining all recorded packets ...
Draining remaining packets ...
Time taken is 6100 cycles
Class 0:
Packet latency average = 33.1245
	minimum = 7
	maximum = 71
Network latency average = 33.1245
	minimum = 7
	maximum = 71
Slowest packet = 28292
Flit latency average = 33.1245
	minimum = 7
	maximum = 71
Slowest flit = 28292
Fragmentation average = 0
	minimum = 0
	maximum = 0
Injected packet rate average = 0.0499375
	minimum = 0.041 (at node 2)
	maximum = 0.059 (at node 1)
Accepted packet rate average = 0.0486875
	minimum = 0.037 (at node 11)
	maximum = 0.065 (at node 14)
Injected flit rate average = 0.0499375
	minimum = 0.041 (at node 2)
	maximum = 0.059 (at node 1)
Accepted flit rate average= 0.0486875
	minimum = 0.037 (at node 11)
	maximum = 0.065 (at node 14)
Injected packet length average = 1
Accepted packet length average = 1
Total in-flight flits = 20 (0 measured)
latency change    = 1
throughput change = 1
Class 0:
Packet latency average = 33.0511
	minimum = 7
	maximum = 72
Network latency average = 33.0511
	minimum = 7
	maximum = 72
Slowest packet = 29403
Flit latency average = 33.0511
	minimum = 7
	maximum = 72
Slowest flit = 29403
Fragmentation average = 0
	minimum = 0
	maximum = 0
Injected packet rate average = 0.049375
	minimum = 0.0395 (at node 5)
	maximum = 0.058 (at node 8)
Accepted packet rate average = 0.0483437
	minimum = 0.0415 (at node 15)
	maximum = 0.0545 (at node 4)
Injected flit rate average = 0.049375
	minimum = 0.0395 (at node 5)
	maximum = 0.058 (at node 8)
Accepted flit rate average= 0.0483437
	minimum = 0.0415 (at node 15)
	maximum = 0.0545 (at node 4)
Injected packet length average = 1
Accepted packet length average = 1
Total in-flight flits = 33 (0 measured)
latency change    = 0.00222238
throughput change = 0.00711054
Class 0:
Packet latency average = 33.942
	minimum = 7
	maximum = 76
Network latency average = 33.942
	minimum = 7
	maximum = 76
Slowest packet = 30226
Flit latency average = 33.942
	minimum = 7
	maximum = 76
Slowest flit = 30226
Fragmentation average = 0
	minimum = 0
	maximum = 0
Injected packet rate average = 0.0500625
	minimum = 0.038 (at node 6)
	maximum = 0.059 (at node 5)
Accepted packet rate average = 0.0495625
	minimum = 0.04 (at node 10)
	maximum = 0.066 (at node 3)
Injected flit rate average = 0.0500625
	minimum = 0.038 (at node 6)
	maximum = 0.059 (at node 5)
Accepted flit rate average= 0.0495625
	minimum = 0.04 (at node 10)
	maximum = 0.066 (at node 3)
Injected packet length average = 1
Accepted packet length average = 1
Total in-flight flits = 41 (0 measured)
latency change    = 0.0262485
throughput change = 0.0245902
Warmed up ...Time used is 3000 cycles
Class 0:
Packet latency average = 33.4138
	minimum = 7
	maximum = 70
Network latency average = 33.4138
	minimum = 7
	maximum = 70
Slowest packet = 31089
Flit latency average = 33.5789
	minimum = 7
	maximum = 74
Slowest flit = 30498
Fragmentation average = 0
	minimum = 0
	maximum = 0
Injected packet rate average = 0.051375
	minimum = 0.043 (at node 15)
	maximum = 0.059 (at node 11)
Accepted packet rate average = 0.05225
	minimum = 0.033 (at node 14)
	maximum = 0.067 (at node 6)
Injected flit rate average = 0.051375
	minimum = 0.043 (at node 15)
	maximum = 0.059 (at node 11)
Accepted flit rate average= 0.05225
	minimum = 0.033 (at node 14)
	maximum = 0.067 (at node 6)
Injected packet length average = 1
Accepted packet length average = 1
Total in-flight flits = 27 (27 measured)
latency change    = 0.0158065
throughput change = 0.0514354
Class 0:
Packet latency average = 33.2704
	minimum = 7
	maximum = 75
Network latency average = 33.2704
	minimum = 7
	maximum = 75
Slowest packet = 32015
Flit latency average = 33.3599
	minimum = 7
	maximum = 75
Slowest flit = 32015
Fragmentation average = 0
	minimum = 0
	maximum = 0
Injected packet rate average = 0.0498437
	minimum = 0.0415 (at node 2)
	maximum = 0.057 (at node 11)
Accepted packet rate average = 0.0502812
	minimum = 0.039 (at node 15)
	maximum = 0.057 (at node 10)
Injected flit rate average = 0.0498437
	minimum = 0.0415 (at node 2)
	maximum = 0.057 (at node 11)
Accepted flit rate average= 0.0502812
	minimum = 0.039 (at node 15)
	maximum = 0.057 (at node 10)
Injected packet length average = 1
Accepted packet length average = 1
Total in-flight flits = 27 (27 measured)
latency change    = 0.00431099
throughput change = 0.0391548
Class 0:
Packet latency average = 33.0368
	minimum = 7
	maximum = 75
Network latency average = 33.0368
	minimum = 7
	maximum = 75
Slowest packet = 32015
Flit latency average = 33.0998
	minimum = 7
	maximum = 75
Slowest flit = 32015
Fragmentation average = 0
	minimum = 0
	maximum = 0
Injected packet rate average = 0.0502083
	minimum = 0.041 (at node 15)
	maximum = 0.0566667 (at node 7)
Accepted packet rate average = 0.0507083
	minimum = 0.0453333 (at node 14)
	maximum = 0.0566667 (at node 0)
Injected flit rate average = 0.0502083
	minimum = 0.041 (at node 15)
	maximum = 0.0566667 (at node 7)
Accepted flit rate average= 0.0507083
	minimum = 0.0453333 (at node 14)
	maximum = 0.0566667 (at node 0)
Injected packet length average = 1
Accepted packet length average = 1
Total in-flight flits = 17 (17 measured)
latency change    = 0.00707194
throughput change = 0.00842235
Class 0:
Packet latency average = 32.9789
	minimum = 7
	maximum = 75
Network latency average = 32.9789
	minimum = 7
	maximum = 75
Slowest packet = 32015
Flit latency average = 33.0274
	minimum = 7
	maximum = 75
Slowest flit = 32015
Fragmentation average = 0
	minimum = 0
	maximum = 0
Injected packet rate average = 0.0500781
	minimum = 0.04225 (at node 15)
	maximum = 0.05775 (at node 13)
Accepted packet rate average = 0.0502344
	minimum = 0.045 (at node 14)
	maximum = 0.05575 (at node 4)
Injected flit rate average = 0.0500781
	minimum = 0.04225 (at node 15)
	maximum = 0.05775 (at node 13)
Accepted flit rate average= 0.0502344
	minimum = 0.045 (at node 14)
	maximum = 0.05575 (at node 4)
Injected packet length average = 1
Accepted packet length average = 1
Total in-flight flits = 31 (31 measured)
latency change    = 0.00175515
throughput change = 0.00943494
Draining all recorded packets ...
Draining remaining packets ...
Time taken is 7093 cycles
Class 0:
Packet latency average = 33.2927
	minimum = 7
	maximum = 71
Network latency average = 33.2927
	minimum = 7
	maximum = 71
Slowest packet = 34417
Flit latency average = 33.2927
	minimum = 7
	maximum = 71
Slowest flit = 34417
Fragmentation average = 0
	minimum = 0
	maximum = 0
Injected packet rate average = 0.0520625
	minimum = 0.042 (at node 11)
	maximum = 0.067 (at node 15)
Accepted packet rate average = 0.0501875
	minimum = 0.035 (at node 7)
	maximum = 0.066 (at node 4)
Injected flit rate average = 0.0520625
	minimum = 0.042 (at node 11)
	maximum = 0.067 (at node 15)
Accepted flit rate average= 0.0501875
	minimum = 0.035 (at node 7)
	maximum = 0.066 (at node 4)
Injected packet length average = 1
Accepted packet length average = 1
Total in-flight flits = 30 (0 measured)
latency change    = 1
throughput change = 1
Class 0:
Packet latency average = 33.1363
	minimum = 7
	maximum = 71
Network latency average = 33.1363
	minimum = 7
	maximum = 71
Slowest packet = 34417
Flit latency average = 33.1363
	minimum = 7
	maximum = 71
Slowest flit = 34417
Fragmentation average = 0
	minimum = 0
	maximum = 0
Injected packet rate average = 0.0512188
	minimum = 0.0415 (at node 10)
	maximum = 0.0595 (at node 14)
Accepted packet rate average = 0.0504375
	minimum = 0.0425 (at node 14)
	maximum = 0.0595 (at node 1)
Injected flit rate average = 0.0512188
	minimum = 0.0415 (at node 10)
	maximum = 0.0595 (at node 14)
Accepted flit rate average= 0.0504375
	minimum = 0.0425 (at node 14)
	maximum = 0.0595 (at node 1)
Injected packet length average = 1
Accepted packet length average = 1
Total in-flight flits = 25 (0 measured)
latency change    = 0.00471825
throughput change = 0.00495663
Class 0:
Packet latency average = 32.985
	minimum = 7
	maximum = 68
Network latency average = 32.985
	minimum = 7
	maximum = 68
Slowest packet = 36115
Flit latency average = 32.985
	minimum = 7
	maximum = 68
Slowest flit = 36115
Fragmentation average = 0
	minimum = 0
	maximum = 0
Injected packet rate average = 0.049875
	minimum = 0.035 (at node 6)
	maximum = 0.057 (at node 11)
Accepted packet rate average = 0.0500625
	minimum = 0.036 (at node 13)
	maximum = 0.064 (at node 9)
Injected flit rate average = 0.049875
	minimum = 0.035 (at node 6)
	maximum = 0.057 (at node 11)
Accepted flit rate average= 0.0500625
	minimum = 0.036 (at node 13)
	maximum = 0.064 (at node 9)
Injected packet length average = 1
Accepted packet length average = 1
Total in-flight flits = 22 (0 measured)
latency change    = 0.00458658
throughput change = 0.00749064
Warmed up ...Time used is 3000 cycles
Class 0:
Packet latency average = 33.0994
	minimum = 7
	maximum = 69
Network latency average = 33.0994
	minimum = 7
	maximum = 69
Slowest packet = 36248
Flit latency average = 33.27
	minimum = 7
	maximum = 69
Slowest flit = 36248
Fragmentation average = 0
	minimum = 0
	maximum = 0
Injected packet rate average = 0.0523125
	minimum = 0.039 (at node 13)
	maximum = 0.069 (at node 7)
Accepted packet rate average = 0.0523125
	minimum = 0.047 (at node 5)
	maximum = 0.058 (at node 7)
Injected flit rate average = 0.0523125
	minimum = 0.039 (at node 13)
	maximum = 0.069 (at node 7)
Accepted flit rate average= 0.0523125
	minimum = 0.047 (at node 5)
	maximum = 0.058 (at node 7)
Injected packet length average = 1
Accepted packet length average = 1
Total in-flight flits = 22 (22 measured)
latency change    = 0.00345528
throughput change = 0.0430108
Class 0:
Packet latency average = 33.4773
	minimum = 7
	maximum = 71
Network latency average = 33.4773
	minimum = 7
	maximum = 71
Slowest packet = 37568
Flit latency average = 33.5598
	minimum = 7
	maximum = 71
Slowest flit = 37568
Fragmentation average = 0
	minimum = 0
	maximum = 0
Injected packet rate average = 0.051125
	minimum = 0.0435 (at node 5)
	maximum = 0.0595 (at node 7)
Accepted packet rate average = 0.0509688
	minimum = 0.0465 (at node 14)
	maximum = 0.0595 (at node 7)
Injected flit rate average = 0.051125
	minimum = 0.0435 (at node 5)
	maximum = 0.0595 (at node 7)
Accepted flit rate average= 0.0509688
	minimum = 0.0465 (at node 14)
	maximum = 0.0595 (at node 7)
Injected packet length average = 1
Accepted packet length average = 1
Total in-flight flits = 27 (27 measured)
latency change    = 0.0112891
throughput change = 0.0263642
Class 0:
Packet latency average = 33.3973
	minimum = 7
	maximum = 78
Network latency average = 33.3969
	minimum = 7
	maximum = 78
Slowest packet = 38534
Flit latency average = 33.4526
	minimum = 7
	maximum = 78
Slowest flit = 38534
Fragmentation average = 0
	minimum = 0
	maximum = 0
Injected packet rate average = 0.051
	minimum = 0.045 (at node 1)
	maximum = 0.0576667 (at node 15)
Accepted packet rate average = 0.0509583
	minimum = 0.0466667 (at node 15)
	maximum = 0.0566667 (at node 7)
Injected flit rate average = 0.051
	minimum = 0.045 (at node 1)
	maximum = 0.0576667 (at node 15)
Accepted flit rate average= 0.0509583
	minimum = 0.0466667 (at node 15)
	maximum = 0.0566667 (at node 7)
Injected packet length average = 1
Accepted packet length average = 1
Total in-flight flits = 24 (24 measured)
latency change    = 0.00239654
throughput change = 0.000204415
Draining all recorded packets ...
Draining remaining packets ...
Time taken is 6085 cycles
Class 0:
Packet latency average = 33.3218
	minimum = 7
	maximum = 70
Network latency average = 33.3218
	minimum = 7
	maximum = 70
Slowest packet = 38806
Flit latency average = 33.3218
	minimum = 7
	maximum = 70
Slowest flit = 38806
Fragmentation average = 0
	minimum = 0
	maximum = 0
Injected packet rate average = 0.0495
	minimum = 0.035 (at node 0)
	maximum = 0.06 (at node 8)
Accepted packet rate average = 0.0485625
	minimum = 0.036 (at node 11)
	maximum = 0.063 (at node 0)
Injected flit rate average = 0.0495
	minimum = 0.035 (at node 0)
	maximum = 0.06 (at node 8)
Accepted flit rate average= 0.0485625
	minimum = 0.036 (at node 11)
	maximum = 0.063 (at node 0)
Injected packet length average = 1
Accepted packet length average = 1
Total in-flight flits = 15 (0 measured)
latency change    = 1
throughput change = 1
Class 0:
Packet latency average = 33.3655
	minimum = 7
	maximum = 70
Network latency average = 33.3655
	minimum = 7
	maximum = 70
Slowest packet = 38806
Flit latency average = 33.3655
	minimum = 7
	maximum = 70
Slowest flit = 38806
Fragmentation average = 0
	minimum = 0
	maximum = 0
Injected packet rate average = 0.049
	minimum = 0.041 (at node 2)
	maximum = 0.059 (at node 4)
Accepted packet rate average = 0.0482187
	minimum = 0.0395 (at node 7)
	maximum = 0.0575 (at node 6)
Injected flit rate average = 0.049
	minimum = 0.041 (at node 2)
	maximum = 0.059 (at node 4)
Accepted flit rate average= 0.0482187
	minimum = 0.0395 (at node 7)
	maximum = 0.0575 (at node 6)
Injected packet length average = 1
Accepted packet length average = 1
Total in-flight flits = 25 (0 measured)
latency change    = 0.00131187
throughput change = 0.00712897
Class 0:
Packet latency average = 33.7686
	minimum = 7
	maximum = 72
Network latency average = 33.7686
	minimum = 7
	maximum = 72
Slowest packet = 40749
Flit latency average = 33.7686
	minimum = 7
	maximum = 72
Slowest flit = 40749
Fragmentation average = 0
	minimum = 0
	maximum = 0
Injected packet rate average = 0.0490625
	minimum = 0.036 (at node 6)
	maximum = 0.056 (at node 2)
Accepted packet rate average = 0.048625
	minimum = 0.036 (at node 3)
	maximum = 0.059 (at node 14)
Injected flit rate average = 0.0490625
	minimum = 0.036 (at node 6)
	maximum = 0.056 (at node 2)
Accepted flit rate average= 0.048625
	minimum = 0.036 (at node 3)
	maximum = 0.059 (at node 14)
Injected packet length average = 1
Accepted packet length average = 1
Total in-flight flits = 32 (0 measured)
latency change    = 0.0119376
throughput change = 0.00835476
Warmed up ...Time used is 3000 cycles
Class 0:
Packet latency average = 33.2752
	minimum = 7
	maximum = 84
Network latency average = 33.2752
	minimum = 7
	maximum = 84
Slowest packet = 41162
Flit latency average = 33.3399
	minimum = 7
	maximum = 84
Slowest flit = 41162
Fragmentation average = 0
	minimum = 0
	maximum = 0
Injected packet rate average = 0.056625
	minimum = 0.043 (at node 14)
	maximum = 0.071 (at node 15)
Accepted packet rate average = 0.0571875
	minimum = 0.043 (at node 10)
	maximum = 0.076 (at node 7)
Injected flit rate average = 0.056625
	minimum = 0.043 (at node 14)
	maximum = 0.071 (at node 15)
Accepted flit rate average= 0.0571875
	minimum = 0.043 (at node 10)
	maximum = 0.076 (at node 7)
Injected packet length average = 1
Accepted packet length average = 1
Total in-flight flits = 23 (23 measured)
latency change    = 0.014829
throughput change = 0.149727
Class 0:
Packet latency average = 33.3136
	minimum = 7
	maximum = 84
Network latency average = 33.3136
	minimum = 7
	maximum = 84
Slowest packet = 41162
Flit latency average = 33.3476
	minimum = 7
	maximum = 84
Slowest flit = 41162
Fragmentation average = 0
	minimum = 0
	maximum = 0
Injected packet rate average = 0.0532813
	minimum = 0.047 (at node 1)
	maximum = 0.0655 (at node 15)
Accepted packet rate average = 0.0533125
	minimum = 0.0475 (at node 5)
	maximum = 0.066 (at node 7)
Injected flit rate average = 0.0532813
	minimum = 0.047 (at node 1)
	maximum = 0.0655 (at node 15)
Accepted flit rate average= 0.0533125
	minimum = 0.0475 (at node 5)
	maximum = 0.066 (at node 7)
Injected packet length average = 1
Accepted packet length average = 1
Total in-flight flits = 31 (31 measured)
latency change    = 0.00115334
throughput change = 0.0726846
Class 0:
Packet latency average = 33.3552
	minimum = 7
	maximum = 84
Network latency average = 33.3552
	minimum = 7
	maximum = 84
Slowest packet = 41162
Flit latency average = 33.3781
	minimum = 7
	maximum = 84
Slowest flit = 41162
Fragmentation average = 0
	minimum = 0
	maximum = 0
Injected packet rate average = 0.0514375
	minimum = 0.0453333 (at node 8)
	maximum = 0.0603333 (at node 2)
Accepted packet rate average = 0.0515208
	minimum = 0.044 (at node 10)
	maximum = 0.06 (at node 7)
Injected flit rate average = 0.0514375
	minimum = 0.0453333 (at node 8)
	maximum = 0.0603333 (at node 2)
Accepted flit rate average= 0.0515208
	minimum = 0.044 (at node 10)
	maximum = 0.06 (at node 7)
Injected packet length average = 1
Accepted packet length average = 1
Total in-flight flits = 28 (28 measured)
latency change    = 0.00124605
throughput change = 0.0347756
Class 0:
Packet latency average = 33.3574
	minimum = 7
	maximum = 84
Network latency average = 33.3574
	minimum = 7
	maximum = 84
Slowest packet = 41162
Flit latency average = 33.3749
	minimum = 7
	maximum = 84
Slowest flit = 41162
Fragmentation average = 0
	minimum = 0
	maximum = 0
Injected packet rate average = 0.0505937
	minimum = 0.04525 (at node 8)
	maximum = 0.057 (at node 2)
Accepted packet rate average = 0.0506406
	minimum = 0.0425 (at node 10)
	maximum = 0.0555 (at node 7)
Injected flit rate average = 0.0505937
	minimum = 0.04525 (at node 8)
	maximum = 0.057 (at node 2)
Accepted flit rate average= 0.0506406
	minimum = 0.0425 (at node 10)
	maximum = 0.0555 (at node 7)
Injected packet length average = 1
Accepted packet length average = 1
Total in-flight flits = 29 (29 measured)
latency change    = 6.74488e-05
throughput change = 0.0173815
Class 0:
Packet latency average = 33.2912
	minimum = 7
	maximum = 84
Network latency average = 33.2912
	minimum = 7
	maximum = 84
Slowest packet = 41162
Flit latency average = 33.3055
	minimum = 7
	maximum = 84
Slowest flit = 41162
Fragmentation average = 0
	minimum = 0
	maximum = 0
Injected packet rate average = 0.0508625
	minimum = 0.0466 (at node 0)
	maximum = 0.0546 (at node 15)
Accepted packet rate average = 0.050975
	minimum = 0.0438 (at node 10)
	maximum = 0.0556 (at node 4)
Injected flit rate average = 0.0508625
	minimum = 0.0466 (at node 0)
	maximum = 0.0546 (at node 15)
Accepted flit rate average= 0.050975
	minimum = 0.0438 (at node 10)
	maximum = 0.0556 (at node 4)
Injected packet length average = 1
Accepted packet length average = 1
Total in-flight flits = 23 (23 measured)
latency change    = 0.00199093
throughput change = 0.00655959
Draining all recorded packets ...
Draining remaining packets ...
Time taken is 8089 cycles
Class 0:
Packet latency average = 33.5346
	minimum = 7
	maximum = 71
Network latency average = 33.5346
	minimum = 7
	maximum = 71
Slowest packet = 45831
Flit latency average = 33.5346
	minimum = 7
	maximum = 71
Slowest flit = 45831
Fragmentation average = 0
	minimum = 0
	maximum = 0
Injected packet rate average = 0.048875
	minimum = 0.036 (at node 12)
	maximum = 0.062 (at node 7)
Accepted packet rate average = 0.0478125
	minimum = 0.033 (at node 9)
	maximum = 0.063 (at node 11)
Injected flit rate average = 0.048875
	minimum = 0.036 (at node 12)
	maximum = 0.062 (at node 7)
Accepted flit rate average= 0.0478125
	minimum = 0.033 (at node 9)
	maximum = 0.063 (at node 11)
Injected packet length average = 1
Accepted packet length average = 1
Total in-flight flits = 17 (0 measured)
latency change    = 1
throughput change = 1
Class 0:
Packet latency average = 33.4406
	minimum = 7
	maximum = 71
Network latency average = 33.4406
	minimum = 7
	maximum = 71
Slowest packet = 45831
Flit latency average = 33.4406
	minimum = 7
	maximum = 71
Slowest flit = 45831
Fragmentation average = 0
	minimum = 0
	maximum = 0
Injected packet rate average = 0.0492187
	minimum = 0.0405 (at node 2)
	maximum = 0.0565 (at node 15)
Accepted packet rate average = 0.0484375
	minimum = 0.0375 (at node 9)
	maximum = 0.0575 (at node 3)
Injected flit rate average = 0.0492187
	minimum = 0.0405 (at node 2)
	maximum = 0.0565 (at node 15)
Accepted flit rate average= 0.0484375
	minimum = 0.0375 (at node 9)
	maximum = 0.0575 (at node 3)
Injected packet length average = 1
Accepted packet length average = 1
Total in-flight flits = 25 (0 measured)
latency change    = 0.00281081
throughput change = 0.0129032
Class 0:
Packet latency average = 32.601
	minimum = 7
	maximum = 72
Network latency average = 32.601
	minimum = 7
	maximum = 72
Slowest packet = 46944
Flit latency average = 32.601
	minimum = 7
	maximum = 72
Slowest flit = 46944
Fragmentation average = 0
	minimum = 0
	maximum = 0
Injected packet rate average = 0.04875
	minimum = 0.03 (at node 3)
	maximum = 0.066 (at node 5)
Accepted packet rate average = 0.048875
	minimum = 0.039 (at node 2)
	maximum = 0.059 (at node 9)
Injected flit rate average = 0.04875
	minimum = 0.03 (at node 3)
	maximum = 0.066 (at node 5)
Accepted flit rate average= 0.048875
	minimum = 0.039 (at node 2)
	maximum = 0.059 (at node 9)
Injected packet length average = 1
Accepted packet length average = 1
Total in-flight flits = 23 (0 measured)
latency change    = 0.0257545
throughput change = 0.00895141
Warmed up ...Time used is 3000 cycles
Class 0:
Packet latency average = 34
	minimum = 7
	maximum = 67
Network latency average = 34
	minimum = 7
	maximum = 67
Slowest packet = 47604
Flit latency average = 34.1637
	minimum = 7
	maximum = 67
Slowest flit = 47604
Fragmentation average = 0
	minimum = 0
	maximum = 0
Injected packet rate average = 0.0498125
	minimum = 0.039 (at node 6)
	maximum = 0.057 (at node 4)
Accepted packet rate average = 0.049625
	minimum = 0.039 (at node 12)
	maximum = 0.059 (at node 7)
Injected flit rate average = 0.0498125
	minimum = 0.039 (at node 6)
	maximum = 0.057 (at node 4)
Accepted flit rate average= 0.049625
	minimum = 0.039 (at node 12)
	maximum = 0.059 (at node 7)
Injected packet length average = 1
Accepted packet length average = 1
Total in-flight flits = 26 (26 measured)
latency change    = 0.0411464
throughput change = 0.0151134
Class 0:
Packet latency average = 33.5175
	minimum = 7
	maximum = 67
Network latency average = 33.5175
	minimum = 7
	maximum = 67
Slowest packet = 47604
Flit latency average = 33.6059
	minimum = 7
	maximum = 67
Slowest flit = 47604
Fragmentation average = 0
	minimum = 0
	maximum = 0
Injected packet rate average = 0.05
	minimum = 0.0425 (at node 3)
	maximum = 0.056 (at node 12)
Accepted packet rate average = 0.049875
	minimum = 0.0425 (at node 10)
	maximum = 0.063 (at node 7)
Injected flit rate average = 0.05
	minimum = 0.0425 (at node 3)
	maximum = 0.056 (at node 12)
Accepted flit rate average= 0.049875
	minimum = 0.0425 (at node 10)
	maximum = 0.063 (at node 7)
Injected packet length average = 1
Accepted packet length average = 1
Total in-flight flits = 27 (27 measured)
latency change    = 0.014396
throughput change = 0.00501253
Class 0:
Packet latency average = 33.3425
	minimum = 7
	maximum = 70
Network latency average = 33.3425
	minimum = 7
	maximum = 70
Slowest packet = 49273
Flit latency average = 33.403
	minimum = 7
	maximum = 70
Slowest flit = 49273
Fragmentation average = 0
	minimum = 0
	maximum = 0
Injected packet rate average = 0.0501042
	minimum = 0.042 (at node 3)
	maximum = 0.057 (at node 4)
Accepted packet rate average = 0.0499375
	minimum = 0.0406667 (at node 10)
	maximum = 0.061 (at node 7)
Injected flit rate average = 0.0501042
	minimum = 0.042 (at node 3)
	maximum = 0.057 (at node 4)
Accepted flit rate average= 0.0499375
	minimum = 0.0406667 (at node 10)
	maximum = 0.061 (at node 7)
Injected packet length average = 1
Accepted packet length average = 1
Total in-flight flits = 31 (31 measured)
latency change    = 0.00524924
throughput change = 0.00125156
Draining all recorded packets ...
Draining remaining packets ...
Time taken is 6105 cycles
Class 0:
Packet latency average = 33.244
	minimum = 7
	maximum = 73
Network latency average = 33.244
	minimum = 7
	maximum = 73
Slowest packet = 50615
Flit latency average = 33.244
	minimum = 7
	maximum = 73
Slowest flit = 50615
Fragmentation average = 0
	minimum = 0
	maximum = 0
Injected packet rate average = 0.0504375
	minimum = 0.04 (at node 1)
	maximum = 0.061 (at node 4)
Accepted packet rate average = 0.0494375
	minimum = 0.027 (at node 12)
	maximum = 0.059 (at node 1)
Injected flit rate average = 0.0504375
	minimum = 0.04 (at node 1)
	maximum = 0.061 (at node 4)
Accepted flit rate average= 0.0494375
	minimum = 0.027 (at node 12)
	maximum = 0.059 (at node 1)
Injected packet length average = 1
Accepted packet length average = 1
Total in-flight flits = 16 (0 measured)
latency change    = 1
throughput change = 1
Class 0:
Packet latency average = 33.3141
	minimum = 7
	maximum = 78
Network latency average = 33.3141
	minimum = 7
	maximum = 78
Slowest packet = 51121
Flit latency average = 33.3141
	minimum = 7
	maximum = 78
Slowest flit = 51121
Fragmentation average = 0
	minimum = 0
	maximum = 0
Injected packet rate average = 0.050375
	minimum = 0.0425 (at node 7)
	maximum = 0.0565 (at node 8)
Accepted packet rate average = 0.0499375
	minimum = 0.036 (at node 12)
	maximum = 0.06 (at node 1)
Injected flit rate average = 0.050375
	minimum = 0.0425 (at node 7)
	maximum = 0.0565 (at node 8)
Accepted flit rate average= 0.0499375
	minimum = 0.036 (at node 12)
	maximum = 0.06 (at node 1)
Injected packet length average = 1
Accepted packet length average = 1
Total in-flight flits = 14 (0 measured)
latency change    = 0.00210564
throughput change = 0.0100125
Class 0:
Packet latency average = 33.5305
	minimum = 7
	maximum = 76
Network latency average = 33.5305
	minimum = 7
	maximum = 76
Slowest packet = 52102
Flit latency average = 33.5305
	minimum = 7
	maximum = 76
Slowest flit = 52102
Fragmentation average = 0
	minimum = 0
	maximum = 0
Injected packet rate average = 0.0459375
	minimum = 0.037 (at node 13)
	maximum = 0.056 (at node 8)
Accepted packet rate average = 0.045125
	minimum = 0.035 (at node 12)
	maximum = 0.059 (at node 1)
Injected flit rate average = 0.0459375
	minimum = 0.037 (at node 13)
	maximum = 0.056 (at node 8)
Accepted flit rate average= 0.045125
	minimum = 0.035 (at node 12)
	maximum = 0.059 (at node 1)
Injected packet length average = 1
Accepted packet length average = 1
Total in-flight flits = 27 (0 measured)
latency change    = 0.00645169
throughput change = 0.106648
Warmed up ...Time used is 3000 cycles
Class 0:
Packet latency average = 32.6062
	minimum = 7
	maximum = 82
Network latency average = 32.6062
	minimum = 7
	maximum = 82
Slowest packet = 52561
Flit latency average = 32.7239
	minimum = 7
	maximum = 82
Slowest flit = 52561
Fragmentation average = 0
	minimum = 0
	maximum = 0
Injected packet rate average = 0.0503125
	minimum = 0.036 (at node 3)
	maximum = 0.068 (at node 9)
Accepted packet rate average = 0.05025
	minimum = 0.042 (at node 8)
	maximum = 0.062 (at node 9)
Injected flit rate average = 0.0503125
	minimum = 0.036 (at node 3)
	maximum = 0.068 (at node 9)
Accepted flit rate average= 0.05025
	minimum = 0.042 (at node 8)
	maximum = 0.062 (at node 9)
Injected packet length average = 1
Accepted packet length average = 1
Total in-flight flits = 28 (28 measured)
latency change    = 0.0283472
throughput change = 0.10199
Class 0:
Packet latency average = 33.2283
	minimum = 7
	maximum = 82
Network latency average = 33.2283
	minimum = 7
	maximum = 82
Slowest packet = 52561
Flit latency average = 33.2764
	minimum = 7
	maximum = 82
Slowest flit = 52561
Fragmentation average = 0
	minimum = 0
	maximum = 0
Injected packet rate average = 0.0505625
	minimum = 0.041 (at node 2)
	maximum = 0.0605 (at node 6)
Accepted packet rate average = 0.0505312
	minimum = 0.0445 (at node 10)
	maximum = 0.056 (at node 9)
Injected flit rate average = 0.0505625
	minimum = 0.041 (at node 2)
	maximum = 0.0605 (at node 6)
Accepted flit rate average= 0.0505312
	minimum = 0.0445 (at node 10)
	maximum = 0.056 (at node 9)
Injected packet length average = 1
Accepted packet length average = 1
Total in-flight flits = 28 (28 measured)
latency change    = 0.0187227
throughput change = 0.00556586
Class 0:
Packet latency average = 33.3921
	minimum = 7
	maximum = 82
Network latency average = 33.3921
	minimum = 7
	maximum = 82
Slowest packet = 52561
Flit latency average = 33.4223
	minimum = 7
	maximum = 82
Slowest flit = 52561
Fragmentation average = 0
	minimum = 0
	maximum = 0
Injected packet rate average = 0.0505208
	minimum = 0.044 (at node 3)
	maximum = 0.0573333 (at node 6)
Accepted packet rate average = 0.0505625
	minimum = 0.0443333 (at node 10)
	maximum = 0.0583333 (at node 9)
Injected flit rate average = 0.0505208
	minimum = 0.044 (at node 3)
	maximum = 0.0573333 (at node 6)
Accepted flit rate average= 0.0505625
	minimum = 0.0443333 (at node 10)
	maximum = 0.0583333 (at node 9)
Injected packet length average = 1
Accepted packet length average = 1
Total in-flight flits = 25 (25 measured)
latency change    = 0.0049048
throughput change = 0.000618047
Class 0:
Packet latency average = 33.5559
	minimum = 7
	maximum = 82
Network latency average = 33.5559
	minimum = 7
	maximum = 82
Slowest packet = 52561
Flit latency average = 33.5772
	minimum = 7
	maximum = 82
Slowest flit = 52561
Fragmentation average = 0
	minimum = 0
	maximum = 0
Injected packet rate average = 0.0504219
	minimum = 0.04475 (at node 2)
	maximum = 0.05625 (at node 6)
Accepted packet rate average = 0.0504844
	minimum = 0.0455 (at node 10)
	maximum = 0.05475 (at node 9)
Injected flit rate average = 0.0504219
	minimum = 0.04475 (at node 2)
	maximum = 0.05625 (at node 6)
Accepted flit rate average= 0.0504844
	minimum = 0.0455 (at node 10)
	maximum = 0.05475 (at node 9)
Injected packet length average = 1
Accepted packet length average = 1
Total in-flight flits = 23 (23 measured)
latency change    = 0.00488094
throughput change = 0.00154751
Draining all recorded packets ...
Draining remaining packets ...
Time taken is 7078 cycles
Class 0:
Packet latency average = 33.1856
	minimum = 7
	maximum = 68
Network latency average = 33.1856
	minimum = 7
	maximum = 68
Slowest packet = 56137
Flit latency average = 33.1856
	minimum = 7
	maximum = 68
Slowest flit = 56137
Fragmentation average = 0
	minimum = 0
	maximum = 0
Injected packet rate average = 0.051625
	minimum = 0.036 (at node 12)
	maximum = 0.066 (at node 0)
Accepted packet rate average = 0.0501875
	minimum = 0.04 (at node 0)
	maximum = 0.06 (at node 2)
Injected flit rate average = 0.051625
	minimum = 0.036 (at node 12)
	maximum = 0.066 (at node 0)
Accepted flit rate average= 0.0501875
	minimum = 0.04 (at node 0)
	maximum = 0.06 (at node 2)
Injected packet length average = 1
Accepted packet length average = 1
Total in-flight flits = 23 (0 measured)
latency change    = 1
throughput change = 1
Class 0:
Packet latency average = 33.0478
	minimum = 7
	maximum = 68
Network latency average = 33.0478
	minimum = 7
	maximum = 68
Slowest packet = 56137
Flit latency average = 33.0478
	minimum = 7
	maximum = 68
Slowest flit = 56137
Fragmentation average = 0
	minimum = 0
	maximum = 0
Injected packet rate average = 0.052
	minimum = 0.04 (at node 15)
	maximum = 0.0585 (at node 5)
Accepted packet rate average = 0.0510313
	minimum = 0.0425 (at node 13)
	maximum = 0.061 (at node 6)
Injected flit rate average = 0.052
	minimum = 0.04 (at node 15)
	maximum = 0.0585 (at node 5)
Accepted flit rate average= 0.0510313
	minimum = 0.0425 (at node 13)
	maximum = 0.061 (at node 6)
Injected packet length average = 1
Accepted packet length average = 1
Total in-flight flits = 31 (0 measured)
latency change    = 0.0041694
throughput change = 0.016534
Class 0:
Packet latency average = 33.6868
	minimum = 7
	maximum = 82
Network latency average = 33.6868
	minimum = 7
	maximum = 82
Slowest packet = 57671
Flit latency average = 33.6868
	minimum = 7
	maximum = 82
Slowest flit = 57671
Fragmentation average = 0
	minimum = 0
	maximum = 0
Injected packet rate average = 0.047125
	minimum = 0.038 (at node 0)
	maximum = 0.06 (at node 10)
Accepted packet rate average = 0.0475
	minimum = 0.03 (at node 13)
	maximum = 0.061 (at node 0)
Injected flit rate average = 0.047125
	minimum = 0.038 (at node 0)
	maximum = 0.06 (at node 10)
Accepted flit rate average= 0.0475
	minimum = 0.03 (at node 13)
	maximum = 0.061 (at node 0)
Injected packet length average = 1
Accepted packet length average = 1
Total in-flight flits = 25 (0 measured)
latency change    = 0.0189711
throughput change = 0.0743421
Warmed up ...Time used is 3000 cycles
Class 0:
Packet latency average = 32.8787
	minimum = 7
	maximum = 69
Network latency average = 32.8787
	minimum = 7
	maximum = 69
Slowest packet = 58244
Flit latency average = 33
	minimum = 7
	maximum = 69
Slowest flit = 58244
Fragmentation average = 0
	minimum = 0
	maximum = 0
Injected packet rate average = 0.0495625
	minimum = 0.035 (at node 2)
	maximum = 0.06 (at node 7)
Accepted packet rate average = 0.0495
	minimum = 0.037 (at node 13)
	maximum = 0.059 (at node 9)
Injected flit rate average = 0.0495625
	minimum = 0.035 (at node 2)
	maximum = 0.06 (at node 7)
Accepted flit rate average= 0.0495
	minimum = 0.037 (at node 13)
	maximum = 0.059 (at node 9)
Injected packet length average = 1
Accepted packet length average = 1
Total in-flight flits = 26 (26 measured)
latency change    = 0.024578
throughput change = 0.040404
Class 0:
Packet latency average = 33.0096
	minimum = 7
	maximum = 69
Network latency average = 33.0096
	minimum = 7
	maximum = 69
Slowest packet = 58244
Flit latency average = 33.0677
	minimum = 7
	maximum = 69
Slowest flit = 58244
Fragmentation average = 0
	minimum = 0
	maximum = 0
Injected packet rate average = 0.05
	minimum = 0.0415 (at node 2)
	maximum = 0.0615 (at node 12)
Accepted packet rate average = 0.0498437
	minimum = 0.0415 (at node 13)
	maximum = 0.059 (at node 9)
Injected flit rate average = 0.05
	minimum = 0.0415 (at node 2)
	maximum = 0.0615 (at node 12)
Accepted flit rate average= 0.0498437
	minimum = 0.0415 (at node 13)
	maximum = 0.059 (at node 9)
Injected packet length average = 1
Accepted packet length average = 1
Total in-flight flits = 30 (30 measured)
latency change    = 0.00396266
throughput change = 0.00689655
Class 0:
Packet latency average = 33.1191
	minimum = 7
	maximum = 69
Network latency average = 33.1191
	minimum = 7
	maximum = 69
Slowest packet = 58244
Flit latency average = 33.1565
	minimum = 7
	maximum = 69
Slowest flit = 58244
Fragmentation average = 0
	minimum = 0
	maximum = 0
Injected packet rate average = 0.0503125
	minimum = 0.044 (at node 14)
	maximum = 0.058 (at node 12)
Accepted packet rate average = 0.0501875
	minimum = 0.0413333 (at node 6)
	maximum = 0.0593333 (at node 9)
Injected flit rate average = 0.0503125
	minimum = 0.044 (at node 14)
	maximum = 0.058 (at node 12)
Accepted flit rate average= 0.0501875
	minimum = 0.0413333 (at node 6)
	maximum = 0.0593333 (at node 9)
Injected packet length average = 1
Accepted packet length average = 1
Total in-flight flits = 31 (31 measured)
latency change    = 0.00330846
throughput change = 0.00684932
Draining all recorded packets ...
Draining remaining packets ...
Time taken is 6106 cycles
Class 0:
Packet latency average = 33.2861
	minimum = 7
	maximum = 72
Network latency average = 33.2861
	minimum = 7
	maximum = 72
Slowest packet = 60960
Flit latency average = 33.2861
	minimum = 7
	maximum = 72
Slowest flit = 60960
Fragmentation average = 0
	minimum = 0
	maximum = 0
Injected packet rate average = 0.0518125
	minimum = 0.03 (at node 8)
	maximum = 0.068 (at node 3)
Accepted packet rate average = 0.0498125
	minimum = 0.035 (at node 11)
	maximum = 0.064 (at node 5)
Injected flit rate average = 0.0518125
	minimum = 0.03 (at node 8)
	maximum = 0.068 (at node 3)
Accepted flit rate average= 0.0498125
	minimum = 0.035 (at node 11)
	maximum = 0.064 (at node 5)
Injected packet length average = 1
Accepted packet length average = 1
Total in-flight flits = 32 (0 measured)
latency change    = 1
throughput change = 1
Class 0:
Packet latency average = 33.4083
	minimum = 7
	maximum = 78
Network latency average = 33.4083
	minimum = 7
	maximum = 78
Slowest packet = 61697
Flit latency average = 33.4083
	minimum = 7
	maximum = 78
Slowest flit = 61697
Fragmentation average = 0
	minimum = 0
	maximum = 0
Injected packet rate average = 0.0491875
	minimum = 0.03 (at node 8)
	maximum = 0.061 (at node 6)
Accepted packet rate average = 0.0482187
	minimum = 0.036 (at node 11)
	maximum = 0.0605 (at node 5)
Injected flit rate average = 0.0491875
	minimum = 0.03 (at node 8)
	maximum = 0.061 (at node 6)
Accepted flit rate average= 0.0482187
	minimum = 0.036 (at node 11)
	maximum = 0.0605 (at node 5)
Injected packet length average = 1
Accepted packet length average = 1
Total in-flight flits = 31 (0 measured)
latency change    = 0.00365846
throughput change = 0.0330525
Class 0:
Packet latency average = 32.5881
	minimum = 7
	maximum = 71
Network latency average = 32.5881
	minimum = 7
	maximum = 71
Slowest packet = 62010
Flit latency average = 32.5881
	minimum = 7
	maximum = 71
Slowest flit = 62010
Fragmentation average = 0
	minimum = 0
	maximum = 0
Injected packet rate average = 0.0515625
	minimum = 0.04 (at node 10)
	maximum = 0.062 (at node 9)
Accepted packet rate average = 0.0514375
	minimum = 0.039 (at node 1)
	maximum = 0.064 (at node 6)
Injected flit rate average = 0.0515625
	minimum = 0.04 (at node 10)
	maximum = 0.062 (at node 9)
Accepted flit rate average= 0.0514375
	minimum = 0.039 (at node 1)
	maximum = 0.064 (at node 6)
Injected packet length average = 1
Accepted packet length average = 1
Total in-flight flits = 33 (0 measured)
latency change    = 0.0251688
throughput change = 0.0625759
Warmed up ...Time used is 3000 cycles
Class 0:
Packet latency average = 32.8906
	minimum = 7
	maximum = 68
Network latency average = 32.8906
	minimum = 7
	maximum = 68
Slowest packet = 63556
Flit latency average = 32.9469
	minimum = 7
	maximum = 68
Slowest flit = 63556
Fragmentation average = 0
	minimum = 0
	maximum = 0
Injected packet rate average = 0.0514375
	minimum = 0.045 (at node 7)
	maximum = 0.065 (at node 8)
Accepted packet rate average = 0.05175
	minimum = 0.04 (at node 10)
	maximum = 0.066 (at node 14)
Injected flit rate average = 0.0514375
	minimum = 0.045 (at node 7)
	maximum = 0.065 (at node 8)
Accepted flit rate average= 0.05175
	minimum = 0.04 (at node 10)
	maximum = 0.066 (at node 14)
Injected packet length average = 1
Accepted packet length average = 1
Total in-flight flits = 28 (28 measured)
latency change    = 0.00919637
throughput change = 0.00603865
Class 0:
Packet latency average = 32.8942
	minimum = 7
	maximum = 71
Network latency average = 32.8942
	minimum = 7
	maximum = 71
Slowest packet = 64005
Flit latency average = 32.9232
	minimum = 7
	maximum = 71
Slowest flit = 64005
Fragmentation average = 0
	minimum = 0
	maximum = 0
Injected packet rate average = 0.049875
	minimum = 0.0415 (at node 10)
	maximum = 0.057 (at node 8)
Accepted packet rate average = 0.0500625
	minimum = 0.043 (at node 11)
	maximum = 0.058 (at node 15)
Injected flit rate average = 0.049875
	minimum = 0.0415 (at node 10)
	maximum = 0.057 (at node 8)
Accepted flit rate average= 0.0500625
	minimum = 0.043 (at node 11)
	maximum = 0.058 (at node 15)
Injected packet length average = 1
Accepted packet length average = 1
Total in-flight flits = 27 (27 measured)
latency change    = 0.000110478
throughput change = 0.0337079
Class 0:
Packet latency average = 32.9683
	minimum = 7
	maximum = 71
Network latency average = 32.9683
	minimum = 7
	maximum = 71
Slowest packet = 64005
Flit latency average = 32.9866
	minimum = 7
	maximum = 71
Slowest flit = 64005
Fragmentation average = 0
	minimum = 0
	maximum = 0
Injected packet rate average = 0.0497917
	minimum = 0.042 (at node 10)
	maximum = 0.0573333 (at node 12)
Accepted packet rate average = 0.0499375
	minimum = 0.0466667 (at node 12)
	maximum = 0.0556667 (at node 15)
Injected flit rate average = 0.0497917
	minimum = 0.042 (at node 10)
	maximum = 0.0573333 (at node 12)
Accepted flit rate average= 0.0499375
	minimum = 0.0466667 (at node 12)
	maximum = 0.0556667 (at node 15)
Injected packet length average = 1
Accepted packet length average = 1
Total in-flight flits = 26 (26 measured)
latency change    = 0.00224683
throughput change = 0.00250313
Draining all recorded packets ...
Draining remaining packets ...
Time taken is 6104 cycles
Class 0:
Packet latency average = 33.172
	minimum = 7
	maximum = 72
Network latency average = 33.172
	minimum = 7
	maximum = 72
Slowest packet = 65688
Flit latency average = 33.172
	minimum = 7
	maximum = 72
Slowest flit = 65688
Fragmentation average = 0
	minimum = 0
	maximum = 0
Injected packet rate average = 0.052125
	minimum = 0.04 (at node 11)
	maximum = 0.059 (at node 6)
Accepted packet rate average = 0.0505
	minimum = 0.038 (at node 2)
	maximum = 0.064 (at node 8)
Injected flit rate average = 0.052125
	minimum = 0.04 (at node 11)
	maximum = 0.059 (at node 6)
Accepted flit rate average= 0.0505
	minimum = 0.038 (at node 2)
	maximum = 0.064 (at node 8)
Injected packet length average = 1
Accepted packet length average = 1
Total in-flight flits = 26 (0 measured)
latency change    = 1
throughput change = 1
Class 0:
Packet latency average = 33.4097
	minimum = 7
	maximum = 81
Network latency average = 33.4097
	minimum = 7
	maximum = 81
Slowest packet = 66634
Flit latency average = 33.4097
	minimum = 7
	maximum = 81
Slowest flit = 66634
Fragmentation average = 0
	minimum = 0
	maximum = 0
Injected packet rate average = 0.0524063
	minimum = 0.047 (at node 9)
	maximum = 0.059 (at node 15)
Accepted packet rate average = 0.0517188
	minimum = 0.041 (at node 2)
	maximum = 0.0595 (at node 12)
Injected flit rate average = 0.0524063
	minimum = 0.047 (at node 9)
	maximum = 0.059 (at node 15)
Accepted flit rate average= 0.0517188
	minimum = 0.041 (at node 2)
	maximum = 0.0595 (at node 12)
Injected packet length average = 1
Accepted packet length average = 1
Total in-flight flits = 22 (0 measured)
latency change    = 0.00711285
throughput change = 0.023565
Class 0:
Packet latency average = 33.1191
	minimum = 7
	maximum = 72
Network latency average = 33.1191
	minimum = 7
	maximum = 72
Slowest packet = 67445
Flit latency average = 33.1191
	minimum = 7
	maximum = 72
Slowest flit = 67445
Fragmentation average = 0
	minimum = 0
	maximum = 0
Injected packet rate average = 0.05025
	minimum = 0.037 (at node 10)
	maximum = 0.064 (at node 15)
Accepted packet rate average = 0.0493125
	minimum = 0.035 (at node 3)
	maximum = 0.062 (at node 9)
Injected flit rate average = 0.05025
	minimum = 0.037 (at node 10)
	maximum = 0.064 (at node 15)
Accepted flit rate average= 0.0493125
	minimum = 0.035 (at node 3)
	maximum = 0.062 (at node 9)
Injected packet length average = 1
Accepted packet length average = 1
Total in-flight flits = 37 (0 measured)
latency change    = 0.00877225
throughput change = 0.0487959
Warmed up ...Time used is 3000 cycles
Class 0:
Packet latency average = 34.0875
	minimum = 7
	maximum = 72
Network latency average = 34.0875
	minimum = 7
	maximum = 72
Slowest packet = 68283
Flit latency average = 34.3
	minimum = 7
	maximum = 72
Slowest flit = 68283
Fragmentation average = 0
	minimum = 0
	maximum = 0
Injected packet rate average = 0.0530625
	minimum = 0.042 (at node 2)
	maximum = 0.069 (at node 0)
Accepted packet rate average = 0.05375
	minimum = 0.042 (at node 0)
	maximum = 0.064 (at node 8)
Injected flit rate average = 0.0530625
	minimum = 0.042 (at node 2)
	maximum = 0.069 (at node 0)
Accepted flit rate average= 0.05375
	minimum = 0.042 (at node 0)
	maximum = 0.064 (at node 8)
Injected packet length average = 1
Accepted packet length average = 1
Total in-flight flits = 26 (26 measured)
latency change    = 0.0284077
throughput change = 0.0825581
Class 0:
Packet latency average = 33.8368
	minimum = 7
	maximum = 84
Network latency average = 33.8368
	minimum = 7
	maximum = 84
Slowest packet = 69002
Flit latency average = 33.9507
	minimum = 7
	maximum = 84
Slowest flit = 69002
Fragmentation average = 0
	minimum = 0
	maximum = 0
Injected packet rate average = 0.0523125
	minimum = 0.043 (at node 8)
	maximum = 0.062 (at node 4)
Accepted packet rate average = 0.0526563
	minimum = 0.0425 (at node 7)
	maximum = 0.0595 (at node 4)
Injected flit rate average = 0.0523125
	minimum = 0.043 (at node 8)
	maximum = 0.062 (at node 4)
Accepted flit rate average= 0.0526563
	minimum = 0.0425 (at node 7)
	maximum = 0.0595 (at node 4)
Injected packet length average = 1
Accepted packet length average = 1
Total in-flight flits = 26 (26 measured)
latency change    = 0.00740948
throughput change = 0.0207715
Class 0:
Packet latency average = 33.8666
	minimum = 7
	maximum = 84
Network latency average = 33.8666
	minimum = 7
	maximum = 84
Slowest packet = 69002
Flit latency average = 33.9422
	minimum = 7
	maximum = 84
Slowest flit = 69002
Fragmentation average = 0
	minimum = 0
	maximum = 0
Injected packet rate average = 0.052375
	minimum = 0.047 (at node 2)
	maximum = 0.059 (at node 4)
Accepted packet rate average = 0.0526042
	minimum = 0.0453333 (at node 10)
	maximum = 0.0596667 (at node 4)
Injected flit rate average = 0.052375
	minimum = 0.047 (at node 2)
	maximum = 0.059 (at node 4)
Accepted flit rate average= 0.0526042
	minimum = 0.0453333 (at node 10)
	maximum = 0.0596667 (at node 4)
Injected packet length average = 1
Accepted packet length average = 1
Total in-flight flits = 26 (26 measured)
latency change    = 0.000879559
throughput change = 0.000990099
Class 0:
Packet latency average = 33.8423
	minimum = 7
	maximum = 84
Network latency average = 33.8423
	minimum = 7
	maximum = 84
Slowest packet = 69002
Flit latency average = 33.8997
	minimum = 7
	maximum = 84
Slowest flit = 69002
Fragmentation average = 0
	minimum = 0
	maximum = 0
Injected packet rate average = 0.0521563
	minimum = 0.04525 (at node 2)
	maximum = 0.06 (at node 6)
Accepted packet rate average = 0.0522031
	minimum = 0.04725 (at node 0)
	maximum = 0.058 (at node 4)
Injected flit rate average = 0.0521563
	minimum = 0.04525 (at node 2)
	maximum = 0.06 (at node 6)
Accepted flit rate average= 0.0522031
	minimum = 0.04725 (at node 0)
	maximum = 0.058 (at node 4)
Injected packet length average = 1
Accepted packet length average = 1
Total in-flight flits = 34 (34 measured)
latency change    = 0.000716474
throughput change = 0.00768233
Draining all recorded packets ...
Draining remaining packets ...
Time taken is 7079 cycles
Class 0:
Packet latency average = 32.8327
	minimum = 7
	maximum = 70
Network latency average = 32.8327
	minimum = 7
	maximum = 70
Slowest packet = 71555
Flit latency average = 32.8327
	minimum = 7
	maximum = 70
Slowest flit = 71555
Fragmentation average = 0
	minimum = 0
	maximum = 0
Injected packet rate average = 0.0501875
	minimum = 0.041 (at node 12)
	maximum = 0.065 (at node 6)
Accepted packet rate average = 0.0485625
	minimum = 0.038 (at node 8)
	maximum = 0.061 (at node 4)
Injected flit rate average = 0.0501875
	minimum = 0.041 (at node 12)
	maximum = 0.065 (at node 6)
Accepted flit rate average= 0.0485625
	minimum = 0.038 (at node 8)
	maximum = 0.061 (at node 4)
Injected packet length average = 1
Accepted packet length average = 1
Total in-flight flits = 26 (0 measured)
latency change    = 1
throughput change = 1
Class 0:
Packet latency average = 33.2173
	minimum = 7
	maximum = 70
Network latency average = 33.2173
	minimum = 7
	maximum = 70
Slowest packet = 71555
Flit latency average = 33.2173
	minimum = 7
	maximum = 70
Slowest flit = 71555
Fragmentation average = 0
	minimum = 0
	maximum = 0
Injected packet rate average = 0.049125
	minimum = 0.043 (at node 11)
	maximum = 0.0545 (at node 8)
Accepted packet rate average = 0.0484687
	minimum = 0.041 (at node 8)
	maximum = 0.0575 (at node 7)
Injected flit rate average = 0.049125
	minimum = 0.043 (at node 11)
	maximum = 0.0545 (at node 8)
Accepted flit rate average= 0.0484687
	minimum = 0.041 (at node 8)
	maximum = 0.0575 (at node 7)
Injected packet length average = 1
Accepted packet length average = 1
Total in-flight flits = 21 (0 measured)
latency change    = 0.011578
throughput change = 0.00193424
Class 0:
Packet latency average = 33.1644
	minimum = 7
	maximum = 70
Network latency average = 33.1644
	minimum = 7
	maximum = 70
Slowest packet = 72741
Flit latency average = 33.1644
	minimum = 7
	maximum = 70
Slowest flit = 72741
Fragmentation average = 0
	minimum = 0
	maximum = 0
Injected packet rate average = 0.0466875
	minimum = 0.032 (at node 15)
	maximum = 0.068 (at node 8)
Accepted packet rate average = 0.046375
	minimum = 0.035 (at node 7)
	maximum = 0.058 (at node 3)
Injected flit rate average = 0.0466875
	minimum = 0.032 (at node 15)
	maximum = 0.068 (at node 8)
Accepted flit rate average= 0.046375
	minimum = 0.035 (at node 7)
	maximum = 0.058 (at node 3)
Injected packet length average = 1
Accepted packet length average = 1
Total in-flight flits = 26 (0 measured)
latency change    = 0.00159384
throughput change = 0.0451482
Warmed up ...Time used is 3000 cycles
Class 0:
Packet latency average = 32.9671
	minimum = 7
	maximum = 70
Network latency average = 32.9671
	minimum = 7
	maximum = 70
Slowest packet = 73558
Flit latency average = 33.0946
	minimum = 7
	maximum = 70
Slowest flit = 73558
Fragmentation average = 0
	minimum = 0
	maximum = 0
Injected packet rate average = 0.0530625
	minimum = 0.04 (at node 15)
	maximum = 0.065 (at node 13)
Accepted packet rate average = 0.052875
	minimum = 0.043 (at node 14)
	maximum = 0.066 (at node 15)
Injected flit rate average = 0.0530625
	minimum = 0.04 (at node 15)
[...]
	maximum = 0.059 (at node 14)
Accepted packet rate average = 0.05025
	minimum = 0.04 (at node 0)
	maximum = 0.062 (at node 7)
Injected flit rate average = 0.05
	minimum = 0.038 (at node 8)
	maximum = 0.059 (at node 14)
Accepted flit rate average= 0.05025
	minimum = 0.04 (at node 0)
	maximum = 0.062 (at node 7)
Injected packet length average = 1
Accepted packet length average = 1
Total in-flight flits = 28 (28 measured)
latency change    = 0.00206468
throughput change = 0.028607
Class 0:
Packet latency average = 32.8869
	minimum = 7
	maximum = 73
Network latency average = 32.8869
	minimum = 7
	maximum = 73
Slowest packet = 499769
Flit latency average = 32.9406
	minimum = 7
	maximum = 73
Slowest flit = 499769
Fragmentation average = 0
	minimum = 0
	maximum = 0
Injected packet rate average = 0.0501562
	minimum = 0.042 (at node 0)
	maximum = 0.0575 (at node 2)
Accepted packet rate average = 0.0504687
	minimum = 0.0435 (at node 11)
	maximum = 0.0605 (at node 7)
Injected flit rate average = 0.0501562
	minimum = 0.042 (at node 0)
	maximum = 0.0575 (at node 2)
Accepted flit rate average= 0.0504687
	minimum = 0.0435 (at node 11)
	maximum = 0.0605 (at node 7)
Injected packet length average = 1
Accepted packet length average = 1
Total in-flight flits = 22 (22 measured)
latency change    = 0.00747202
throughput change = 0.00433437
Class 0:
Packet latency average = 32.7893
	minimum = 7
	maximum = 73
Network latency average = 32.7893
	minimum = 7
	maximum = 73
Slowest packet = 499769
Flit latency average = 32.8256
	minimum = 7
	maximum = 73
Slowest flit = 499769
Fragmentation average = 0
	minimum = 0
	maximum = 0
Injected packet rate average = 0.0513125
	minimum = 0.0443333 (at node 0)
	maximum = 0.0573333 (at node 6)
Accepted packet rate average = 0.0514792
	minimum = 0.047 (at node 9)
	maximum = 0.0603333 (at node 10)
Injected flit rate average = 0.0513125
	minimum = 0.0443333 (at node 0)
	maximum = 0.0573333 (at node 6)
Accepted flit rate average= 0.0514792
	minimum = 0.047 (at node 9)
	maximum = 0.0603333 (at node 10)
Injected packet length average = 1
Accepted packet length average = 1
Total in-flight flits = 24 (24 measured)
latency change    = 0.00297859
throughput change = 0.0196277
Draining all recorded packets ...
Draining remaining packets ...
Time taken is 6085 cycles
Class 0:
Packet latency average = 33.1053
	minimum = 7
	maximum = 71
Network latency average = 33.1053
	minimum = 7
	maximum = 71
Slowest packet = 502464
Flit latency average = 33.1053
	minimum = 7
	maximum = 71
Slowest flit = 502464
Fragmentation average = 0
	minimum = 0
	maximum = 0
Injected packet rate average = 0.0468125
	minimum = 0.037 (at node 8)
	maximum = 0.057 (at node 10)
Accepted packet rate average = 0.045125
	minimum = 0.033 (at node 15)
	maximum = 0.055 (at node 3)
Injected flit rate average = 0.0468125
	minimum = 0.037 (at node 8)
	maximum = 0.057 (at node 10)
Accepted flit rate average= 0.045125
	minimum = 0.033 (at node 15)
	maximum = 0.055 (at node 3)
Injected packet length average = 1
Accepted packet length average = 1
Total in-flight flits = 27 (0 measured)
latency change    = 1
throughput change = 1
Class 0:
Packet latency average = 33.3344
	minimum = 7
	maximum = 71
Network latency average = 33.3344
	minimum = 7
	maximum = 71
Slowest packet = 502464
Flit latency average = 33.3344
	minimum = 7
	maximum = 71
Slowest flit = 502464
Fragmentation average = 0
	minimum = 0
	maximum = 0
Injected packet rate average = 0.0489062
	minimum = 0.0415 (at node 9)
	maximum = 0.056 (at node 15)
Accepted packet rate average = 0.0482187
	minimum = 0.0425 (at node 9)
	maximum = 0.0555 (at node 0)
Injected flit rate average = 0.0489062
	minimum = 0.0415 (at node 9)
	maximum = 0.056 (at node 15)
Accepted flit rate average= 0.0482187
	minimum = 0.0425 (at node 9)
	maximum = 0.0555 (at node 0)
Injected packet length average = 1
Accepted packet length average = 1
Total in-flight flits = 22 (0 measured)
latency change    = 0.00687429
throughput change = 0.0641607
Class 0:
Packet latency average = 33.2244
	minimum = 7
	maximum = 80
Network latency average = 33.2244
	minimum = 7
	maximum = 80
Slowest packet = 503592
Flit latency average = 33.2244
	minimum = 7
	maximum = 80
Slowest flit = 503592
Fragmentation average = 0
	minimum = 0
	maximum = 0
Injected packet rate average = 0.0484375
	minimum = 0.037 (at node 3)
	maximum = 0.063 (at node 5)
Accepted packet rate average = 0.047625
	minimum = 0.033 (at node 12)
	maximum = 0.062 (at node 4)
Injected flit rate average = 0.0484375
	minimum = 0.037 (at node 3)
	maximum = 0.063 (at node 5)
Accepted flit rate average= 0.047625
	minimum = 0.033 (at node 12)
	maximum = 0.062 (at node 4)
Injected packet length average = 1
Accepted packet length average = 1
Total in-flight flits = 35 (0 measured)
latency change    = 0.00331094
throughput change = 0.0124672
Warmed up ...Time used is 3000 cycles
Class 0:
Packet latency average = 33.3607
	minimum = 7
	maximum = 70
Network latency average = 33.3607
	minimum = 7
	maximum = 70
Slowest packet = 504804
Flit latency average = 33.6058
	minimum = 7
	maximum = 71
Slowest flit = 504142
Fragmentation average = 0
	minimum = 0
	maximum = 0
Injected packet rate average = 0.0491875
	minimum = 0.041 (at node 1)
	maximum = 0.059 (at node 0)
Accepted packet rate average = 0.0493125
	minimum = 0.034 (at node 14)
	maximum = 0.061 (at node 1)
Injected flit rate average = 0.0491875
	minimum = 0.041 (at node 1)
	maximum = 0.059 (at node 0)
Accepted flit rate average= 0.0493125
	minimum = 0.034 (at node 14)
	maximum = 0.061 (at node 1)
Injected packet length average = 1
Accepted packet length average = 1
Total in-flight flits = 33 (33 measured)
latency change    = 0.00408664
throughput change = 0.0342205
Class 0:
Packet latency average = 32.9319
	minimum = 7
	maximum = 77
Network latency average = 32.9319
	minimum = 7
	maximum = 77
Slowest packet = 505138
Flit latency average = 33.064
	minimum = 7
	maximum = 77
Slowest flit = 505138
Fragmentation average = 0
	minimum = 0
	maximum = 0
Injected packet rate average = 0.0489375
	minimum = 0.042 (at node 7)
	maximum = 0.0555 (at node 14)
Accepted packet rate average = 0.0492812
	minimum = 0.0385 (at node 12)
	maximum = 0.064 (at node 1)
Injected flit rate average = 0.0489375
	minimum = 0.042 (at node 7)
	maximum = 0.0555 (at node 14)
Accepted flit rate average= 0.0492812
	minimum = 0.0385 (at node 12)
	maximum = 0.064 (at node 1)
Injected packet length average = 1
Accepted packet length average = 1
Total in-flight flits = 24 (24 measured)
latency change    = 0.0130219
throughput change = 0.000634115
Class 0:
Packet latency average = 33.0099
	minimum = 7
	maximum = 77
Network latency average = 33.0099
	minimum = 7
	maximum = 77
Slowest packet = 505138
Flit latency average = 33.097
	minimum = 7
	maximum = 77
Slowest flit = 505138
Fragmentation average = 0
	minimum = 0
	maximum = 0
Injected packet rate average = 0.049
	minimum = 0.044 (at node 1)
	maximum = 0.0533333 (at node 3)
Accepted packet rate average = 0.0491875
	minimum = 0.0416667 (at node 6)
	maximum = 0.0576667 (at node 1)
Injected flit rate average = 0.049
	minimum = 0.044 (at node 1)
	maximum = 0.0533333 (at node 3)
Accepted flit rate average= 0.0491875
	minimum = 0.0416667 (at node 6)
	maximum = 0.0576667 (at node 1)
Injected packet length average = 1
Accepted packet length average = 1
Total in-flight flits = 26 (26 measured)
latency change    = 0.00236237
throughput change = 0.00190597
Draining all recorded packets ...
Draining remaining packets ...
Time taken is 6112 cycles
Class 0:
Packet latency average = 33.5431
	minimum = 7
	maximum = 68
Network latency average = 33.5431
	minimum = 7
	maximum = 68
Slowest packet = 507177
Flit latency average = 33.5431
	minimum = 7
	maximum = 68
Slowest flit = 507177
Fragmentation average = 0
	minimum = 0
	maximum = 0
Injected packet rate average = 0.0498125
	minimum = 0.034 (at node 5)
	maximum = 0.062 (at node 2)
Accepted packet rate average = 0.047875
	minimum = 0.037 (at node 1)
	maximum = 0.063 (at node 10)
Injected flit rate average = 0.0498125
	minimum = 0.034 (at node 5)
	maximum = 0.062 (at node 2)
Accepted flit rate average= 0.047875
	minimum = 0.037 (at node 1)
	maximum = 0.063 (at node 10)
Injected packet length average = 1
Accepted packet length average = 1
Total in-flight flits = 31 (0 measured)
latency change    = 1
throughput change = 1
Class 0:
Packet latency average = 33.602
	minimum = 7
	maximum = 68
Network latency average = 33.602
	minimum = 7
	maximum = 68
Slowest packet = 507177
Flit latency average = 33.602
	minimum = 7
	maximum = 68
Slowest flit = 507177
Fragmentation average = 0
	minimum = 0
	maximum = 0
Injected packet rate average = 0.0508125
	minimum = 0.04 (at node 5)
	maximum = 0.06 (at node 3)
Accepted packet rate average = 0.0500937
	minimum = 0.042 (at node 2)
	maximum = 0.058 (at node 10)
Injected flit rate average = 0.0508125
	minimum = 0.04 (at node 5)
	maximum = 0.06 (at node 3)
Accepted flit rate average= 0.0500937
	minimum = 0.042 (at node 2)
	maximum = 0.058 (at node 10)
Injected packet length average = 1
Accepted packet length average = 1
Total in-flight flits = 23 (0 measured)
latency change    = 0.00175333
throughput change = 0.044292
Class 0:
Packet latency average = 33.3321
	minimum = 7
	maximum = 71
Network latency average = 33.3321
	minimum = 7
	maximum = 71
Slowest packet = 508541
Flit latency average = 33.3321
	minimum = 7
	maximum = 71
Slowest flit = 508541
Fragmentation average = 0
	minimum = 0
	maximum = 0
Injected packet rate average = 0.0505625
	minimum = 0.039 (at node 15)
	maximum = 0.063 (at node 6)
Accepted packet rate average = 0.0504375
	minimum = 0.04 (at node 5)
	maximum = 0.064 (at node 14)
Injected flit rate average = 0.0505625
	minimum = 0.039 (at node 15)
	maximum = 0.063 (at node 6)
Accepted flit rate average= 0.0504375
	minimum = 0.04 (at node 5)
	maximum = 0.064 (at node 14)
Injected packet length average = 1
Accepted packet length average = 1
Total in-flight flits = 25 (0 measured)
latency change    = 0.00809736
throughput change = 0.00681537
Warmed up ...Time used is 3000 cycles
Class 0:
Packet latency average = 33.0318
	minimum = 12
	maximum = 69
Network latency average = 33.0318
	minimum = 12
	maximum = 69
Slowest packet = 509118
Flit latency average = 33.1
	minimum = 12
	maximum = 69
Slowest flit = 509118
Fragmentation average = 0
	minimum = 0
	maximum = 0
Injected packet rate average = 0.0489375
	minimum = 0.039 (at node 13)
	maximum = 0.063 (at node 12)
Accepted packet rate average = 0.04875
	minimum = 0.04 (at node 11)
	maximum = 0.056 (at node 0)
Injected flit rate average = 0.0489375
	minimum = 0.039 (at node 13)
	maximum = 0.063 (at node 12)
Accepted flit rate average= 0.04875
	minimum = 0.04 (at node 11)
	maximum = 0.056 (at node 0)
Injected packet length average = 1
Accepted packet length average = 1
Total in-flight flits = 28 (28 measured)
latency change    = 0.00909143
throughput change = 0.0346154
Class 0:
Packet latency average = 33.2559
	minimum = 7
	maximum = 75
Network latency average = 33.2559
	minimum = 7
	maximum = 75
Slowest packet = 510143
Flit latency average = 33.2865
	minimum = 7
	maximum = 75
Slowest flit = 510143
Fragmentation average = 0
	minimum = 0
	maximum = 0
Injected packet rate average = 0.0486562
	minimum = 0.039 (at node 13)
	maximum = 0.058 (at node 12)
Accepted packet rate average = 0.0485312
	minimum = 0.041 (at node 11)
	maximum = 0.0605 (at node 3)
Injected flit rate average = 0.0486562
	minimum = 0.039 (at node 13)
	maximum = 0.058 (at node 12)
Accepted flit rate average= 0.0485312
	minimum = 0.041 (at node 11)
	maximum = 0.0605 (at node 3)
Injected packet length average = 1
Accepted packet length average = 1
Total in-flight flits = 29 (29 measured)
latency change    = 0.00673872
throughput change = 0.00450741
Class 0:
Packet latency average = 33.3453
	minimum = 7
	maximum = 75
Network latency average = 33.3453
	minimum = 7
	maximum = 75
Slowest packet = 510143
Flit latency average = 33.3648
	minimum = 7
	maximum = 75
Slowest flit = 510143
Fragmentation average = 0
	minimum = 0
	maximum = 0
Injected packet rate average = 0.0485833
	minimum = 0.0403333 (at node 13)
	maximum = 0.0553333 (at node 12)
Accepted packet rate average = 0.0486042
	minimum = 0.0423333 (at node 14)
	maximum = 0.054 (at node 0)
Injected flit rate average = 0.0485833
	minimum = 0.0403333 (at node 13)
	maximum = 0.0553333 (at node 12)
Accepted flit rate average= 0.0486042
	minimum = 0.0423333 (at node 14)
	maximum = 0.054 (at node 0)
Injected packet length average = 1
Accepted packet length average = 1
Total in-flight flits = 24 (24 measured)
latency change    = 0.00268195
throughput change = 0.00150021
Draining all recorded packets ...
Draining remaining packets ...
Time taken is 6088 cycles
Class 0:
Packet latency average = 32.17
	minimum = 7
	maximum = 62
Network latency average = 32.1687
	minimum = 7
	maximum = 62
Slowest packet = 511694
Flit latency average = 32.1687
	minimum = 7
	maximum = 62
Slowest flit = 511694
Fragmentation average = 0
	minimum = 0
	maximum = 0
Injected packet rate average = 0.0523125
	minimum = 0.036 (at node 14)
	maximum = 0.07 (at node 8)
Accepted packet rate average = 0.050375
	minimum = 0.041 (at node 1)
	maximum = 0.066 (at node 4)
Injected flit rate average = 0.0523125
	minimum = 0.036 (at node 14)
	maximum = 0.07 (at node 8)
Accepted flit rate average= 0.050375
	minimum = 0.041 (at node 1)
	maximum = 0.066 (at node 4)
Injected packet length average = 1
Accepted packet length average = 1
Total in-flight flits = 31 (0 measured)
latency change    = 1
throughput change = 1
Class 0:
Packet latency average = 32.9091
	minimum = 7
	maximum = 66
Network latency average = 32.9085
	minimum = 7
	maximum = 66
Slowest packet = 512180
Flit latency average = 32.9085
	minimum = 7
	maximum = 66
Slowest flit = 512180
Fragmentation average = 0
	minimum = 0
	maximum = 0
Injected packet rate average = 0.0504062
	minimum = 0.0385 (at node 14)
	maximum = 0.0685 (at node 8)
Accepted packet rate average = 0.0495
	minimum = 0.0425 (at node 7)
	maximum = 0.0615 (at node 4)
Injected flit rate average = 0.0504062
	minimum = 0.0385 (at node 14)
	maximum = 0.0685 (at node 8)
Accepted flit rate average= 0.0495
	minimum = 0.0425 (at node 7)
	maximum = 0.0615 (at node 4)
Injected packet length average = 1
Accepted packet length average = 1
Total in-flight flits = 29 (0 measured)
latency change    = 0.0224593
throughput change = 0.0176768
Class 0:
Packet latency average = 33.0248
	minimum = 7
	maximum = 67
Network latency average = 33.0248
	minimum = 7
	maximum = 67
Slowest packet = 512996
Flit latency average = 33.0248
	minimum = 7
	maximum = 67
Slowest flit = 512996
Fragmentation average = 0
	minimum = 0
	maximum = 0
Injected packet rate average = 0.0475
	minimum = 0.036 (at node 8)
	maximum = 0.055 (at node 12)
Accepted packet rate average = 0.0479375
	minimum = 0.037 (at node 7)
	maximum = 0.061 (at node 3)
Injected flit rate average = 0.0475
	minimum = 0.036 (at node 8)
	maximum = 0.055 (at node 12)
Accepted flit rate average= 0.0479375
	minimum = 0.037 (at node 7)
	maximum = 0.061 (at node 3)
Injected packet length average = 1
Accepted packet length average = 1
Total in-flight flits = 22 (0 measured)
latency change    = 0.00350285
throughput change = 0.0325945
Warmed up ...Time used is 3000 cycles
Class 0:
Packet latency average = 32.8847
	minimum = 7
	maximum = 75
Network latency average = 32.8847
	minimum = 7
	maximum = 75
Slowest packet = 514114
Flit latency average = 32.9988
	minimum = 7
	maximum = 75
Slowest flit = 514114
Fragmentation average = 0
	minimum = 0
	maximum = 0
Injected packet rate average = 0.0513125
	minimum = 0.044 (at node 9)
	maximum = 0.064 (at node 6)
Accepted packet rate average = 0.05125
	minimum = 0.039 (at node 15)
	maximum = 0.069 (at node 9)
Injected flit rate average = 0.0513125
	minimum = 0.044 (at node 9)
	maximum = 0.064 (at node 6)
Accepted flit rate average= 0.05125
	minimum = 0.039 (at node 15)
	maximum = 0.069 (at node 9)
Injected packet length average = 1
Accepted packet length average = 1
Total in-flight flits = 23 (23 measured)
latency change    = 0.00425912
throughput change = 0.0646341
Class 0:
Packet latency average = 32.7366
	minimum = 7
	maximum = 75
Network latency average = 32.7366
	minimum = 7
	maximum = 75
Slowest packet = 514114
Flit latency average = 32.7981
	minimum = 7
	maximum = 75
Slowest flit = 514114
Fragmentation average = 0
	minimum = 0
	maximum = 0
Injected packet rate average = 0.0495
	minimum = 0.043 (at node 1)
	maximum = 0.057 (at node 10)
Accepted packet rate average = 0.0492187
	minimum = 0.0385 (at node 2)
	maximum = 0.0615 (at node 0)
Injected flit rate average = 0.0495
	minimum = 0.043 (at node 1)
	maximum = 0.057 (at node 10)
Accepted flit rate average= 0.0492187
	minimum = 0.0385 (at node 2)
	maximum = 0.0615 (at node 0)
Injected packet length average = 1
Accepted packet length average = 1
Total in-flight flits = 31 (31 measured)
latency change    = 0.00452316
throughput change = 0.0412698
Class 0:
Packet latency average = 33.0815
	minimum = 7
	maximum = 75
Network latency average = 33.0815
	minimum = 7
	maximum = 75
Slowest packet = 514114
Flit latency average = 33.1194
	minimum = 7
	maximum = 75
Slowest flit = 514114
Fragmentation average = 0
	minimum = 0
	maximum = 0
Injected packet rate average = 0.0489583
	minimum = 0.0433333 (at node 1)
	maximum = 0.056 (at node 7)
Accepted packet rate average = 0.0490417
	minimum = 0.042 (at node 15)
	maximum = 0.0596667 (at node 0)
Injected flit rate average = 0.0489583
	minimum = 0.0433333 (at node 1)
	maximum = 0.056 (at node 7)
Accepted flit rate average= 0.0490417
	minimum = 0.042 (at node 15)
	maximum = 0.0596667 (at node 0)
Injected packet length average = 1
Accepted packet length average = 1
Total in-flight flits = 18 (18 measured)
latency change    = 0.0104239
throughput change = 0.00361088
Class 0:
Packet latency average = 33.078
	minimum = 7
	maximum = 76
Network latency average = 33.078
	minimum = 7
	maximum = 76
Slowest packet = 516221
Flit latency average = 33.1063
	minimum = 7
	maximum = 76
Slowest flit = 516221
Fragmentation average = 0
	minimum = 0
	maximum = 0
Injected packet rate average = 0.0493594
	minimum = 0.044 (at node 9)
	maximum = 0.059 (at node 12)
Accepted packet rate average = 0.04925
	minimum = 0.04325 (at node 15)
	maximum = 0.0585 (at node 0)
Injected flit rate average = 0.0493594
	minimum = 0.044 (at node 9)
	maximum = 0.059 (at node 12)
Accepted flit rate average= 0.04925
	minimum = 0.04325 (at node 15)
	maximum = 0.0585 (at node 0)
Injected packet length average = 1
Accepted packet length average = 1
Total in-flight flits = 29 (29 measured)
latency change    = 0.000106411
throughput change = 0.00423012
Draining all recorded packets ...
Draining remaining packets ...
Time taken is 7088 cycles
====== Overall Traffic Statistics ======
====== Traffic class 0 ======
Packet latency average = 33.178 (100 samples)
	minimum = 7 (100 samples)
	maximum = 76.37 (100 samples)
Network latency average = 33.178 (100 samples)
	minimum = 7 (100 samples)
	maximum = 76.36 (100 samples)
Flit latency average = 33.2116 (100 samples)
	minimum = 7 (100 samples)
	maximum = 76.44 (100 samples)
Fragmentation average = 0 (100 samples)
	minimum = 0 (100 samples)
	maximum = 0 (100 samples)
Injected packet rate average = 0.0500189 (100 samples)
	minimum = 0.0436493 (100 samples)
	maximum = 0.0565387 (100 samples)
Accepted packet rate average = 0.0500357 (100 samples)
	minimum = 0.0434763 (100 samples)
	maximum = 0.0571087 (100 samples)
Injected flit rate average = 0.0500189 (100 samples)
	minimum = 0.0436493 (100 samples)
	maximum = 0.0565387 (100 samples)
Accepted flit rate average = 0.0500357 (100 samples)
	minimum = 0.0434763 (100 samples)
	maximum = 0.0571087 (100 samples)
Injected packet size average = 1 (100 samples)
Accepted packet size average = 1 (100 samples)
Hops average = 6.00049 (100 samples)
Total run time 9.77422
