BEGIN Configuration File: /tmp/bs_1138183_841262.cfg
topology = mesh;
k = 4;
n = 2;
routing_function = min_adapt;
num_vcs = 4;
vc_buf_size = 4;
wait_for_tail_credit = 1;
vc_allocator = islip;
sw_allocator = islip;
alloc_iters = 1;
credit_delay = 2;
routing_delay = 1;
vc_alloc_delay = 1;
sw_alloc_delay = 1;
input_speedup = 2;
output_speedup = 1;
internal_speedup = 1.0;
traffic = transpose;
packet_size = 1;
sim_type = latency;
injection_rate = 0.05;
warmup_periods = 3;
sample_period = 1000;
sim_count = 100;
seed = 1;

END Configuration File: /tmp/bs_1138183_841262.cfg
Class 0:
Packet latency average = 20.005
	minimum = 7
	maximum = 64
Network latency average = 20.005
	minimum = 7
	maximum = 64
Slowest packet = 92
Flit latency average = 20.005
	minimum = 7
	maximum = 64
Slowest flit = 92
Fragmentation average = 0
	minimum = 0
	maximum = 0
Injected packet rate average = 0.0505
	minimum = 0.038 (at node 9)
	maximum = 0.073 (at node 1)
Accepted packet rate average = 0.049625
	minimum = 0.036 (at node 6)
	maximum = 0.072 (at node 4)
Injected flit rate average = 0.0505
	minimum = 0.038 (at node 9)
	maximum = 0.073 (at node 1)
Accepted flit rate average= 0.049625
	minimum = 0.036 (at node 6)
	maximum = 0.072 (at node 4)
Injected packet length average = 1
Accepted packet length average = 1
Total in-flight flits = 14 (0 measured)
latency change    = 1
throughput change = 1
Class 0:
Packet latency average = 20.1064
	minimum = 7
	maximum = 68
Network latency average = 20.1064
	minimum = 7
	maximum = 68
Slowest packet = 1411
Flit latency average = 20.1064
	minimum = 7
	maximum = 68
Slowest flit = 1411
Fragmentation average = 0
	minimum = 0
	maximum = 0
Injected packet rate average = 0.0509688
	minimum = 0.0425 (at node 3)
	maximum = 0.064 (at node 1)
Accepted packet rate average = 0.0505312
	minimum = 0.042 (at node 12)
	maximum = 0.063 (at node 4)
Injected flit rate average = 0.0509688
	minimum = 0.0425 (at node 3)
	maximum = 0.064 (at node 1)
Accepted flit rate average= 0.0505312
	minimum = 0.042 (at node 12)
	maximum = 0.063 (at node 4)
Injected packet length average = 1
Accepted packet length average = 1
Total in-flight flits = 14 (0 measured)
latency change    = 0.0050398
throughput change = 0.0179344
Class 0:
Packet latency average = 20.4692
	minimum = 7
	maximum = 62
Network latency average = 20.4692
	minimum = 7
	maximum = 62
Slowest packet = 2418
Flit latency average = 20.4692
	minimum = 7
	maximum = 62
Slowest flit = 2418
Fragmentation average = 0
	minimum = 0
	maximum = 0
Injected packet rate average = 0.0524375
	minimum = 0.042 (at node 0)
	maximum = 0.064 (at node 1)
Accepted packet rate average = 0.05275
	minimum = 0.042 (at node 0)
	maximum = 0.064 (at node 4)
Injected flit rate average = 0.0524375
	minimum = 0.042 (at node 0)
	maximum = 0.064 (at node 1)
Accepted flit rate average= 0.05275
	minimum = 0.042 (at node 0)
	maximum = 0.064 (at node 4)
Injected packet length average = 1
Accepted packet length average = 1
Total in-flight flits = 9 (0 measured)
latency change    = 0.0177254
throughput change = 0.0420616
Warmed up ...Time used is 3000 cycles
Class 0:
Packet latency average = 20.0013
	minimum = 7
	maximum = 69
Network latency average = 20
	minimum = 7
	maximum = 69
Slowest packet = 3081
Flit latency average = 20.0501
	minimum = 7
	maximum = 69
Slowest flit = 3081
Fragmentation average = 0
	minimum = 0
	maximum = 0
Injected packet rate average = 0.05075
	minimum = 0.041 (at node 6)
	maximum = 0.065 (at node 5)
Accepted packet rate average = 0.0499375
	minimum = 0.037 (at node 9)
	maximum = 0.066 (at node 5)
Injected flit rate average = 0.05075
	minimum = 0.041 (at node 6)
	maximum = 0.065 (at node 5)
Accepted flit rate average= 0.0499375
	minimum = 0.037 (at node 9)
	maximum = 0.066 (at node 5)
Injected packet length average = 1
Accepted packet length average = 1
Total in-flight flits = 22 (22 measured)
latency change    = 0.0233949
throughput change = 0.0563204
Class 0:
Packet latency average = 20.6938
	minimum = 7
	maximum = 76
Network latency average = 20.6932
	minimum = 7
	maximum = 76
Slowest packet = 3407
Flit latency average = 20.7136
	minimum = 7
	maximum = 76
Slowest flit = 3407
Fragmentation average = 0
	minimum = 0
	maximum = 0
Injected packet rate average = 0.0520938
	minimum = 0.0415 (at node 6)
	maximum = 0.0615 (at node 2)
Accepted packet rate average = 0.0517188
	minimum = 0.0405 (at node 9)
	maximum = 0.061 (at node 5)
Injected flit rate average = 0.0520938
	minimum = 0.0415 (at node 6)
	maximum = 0.0615 (at node 2)
Accepted flit rate average= 0.0517188
	minimum = 0.0405 (at node 9)
	maximum = 0.061 (at node 5)
Injected packet length average = 1
Accepted packet length average = 1
Total in-flight flits = 21 (21 measured)
latency change    = 0.0334659
throughput change = 0.0344411
Class 0:
Packet latency average = 20.5076
	minimum = 7
	maximum = 76
Network latency average = 20.5072
	minimum = 7
	maximum = 76
Slowest packet = 3407
Flit latency average = 20.5217
	minimum = 7
	maximum = 76
Slowest flit = 3407
Fragmentation average = 0
	minimum = 0
	maximum = 0
Injected packet rate average = 0.0512708
	minimum = 0.0443333 (at node 11)
	maximum = 0.0606667 (at node 5)
Accepted packet rate average = 0.051
	minimum = 0.0443333 (at node 14)
	maximum = 0.0606667 (at node 5)
Injected flit rate average = 0.0512708
	minimum = 0.0443333 (at node 11)
	maximum = 0.0606667 (at node 5)
Accepted flit rate average= 0.051
	minimum = 0.0443333 (at node 14)
	maximum = 0.0606667 (at node 5)
Injected packet length average = 1
Accepted packet length average = 1
Total in-flight flits = 22 (22 measured)
latency change    = 0.00908045
throughput change = 0.0140931
Class 0:
Packet latency average = 20.3778
	minimum = 7
	maximum = 76
Network latency average = 20.3775
	minimum = 7
	maximum = 76
Slowest packet = 3407
Flit latency average = 20.3887
	minimum = 7
	maximum = 76
Slowest flit = 3407
Fragmentation average = 0
	minimum = 0
	maximum = 0
Injected packet rate average = 0.0509844
	minimum = 0.045 (at node 11)
	maximum = 0.06 (at node 2)
Accepted packet rate average = 0.0508906
	minimum = 0.04475 (at node 14)
	maximum = 0.05925 (at node 8)
Injected flit rate average = 0.0509844
	minimum = 0.045 (at node 11)
	maximum = 0.06 (at node 2)
Accepted flit rate average= 0.0508906
	minimum = 0.04475 (at node 14)
	maximum = 0.05925 (at node 8)
Injected packet length average = 1
Accepted packet length average = 1
Total in-flight flits = 15 (15 measured)
latency change    = 0.00637038
throughput change = 0.00214922
Draining all recorded packets ...
Draining remaining packets ...
Time taken is 7064 cycles
Class 0:
Packet latency average = 20.3393
	minimum = 7
	maximum = 61
Network latency average = 20.3393
	minimum = 7
	maximum = 61
Slowest packet = 6309
Flit latency average = 20.3393
	minimum = 7
	maximum = 61
Slowest flit = 6309
Fragmentation average = 0
	minimum = 0
	maximum = 0
Injected packet rate average = 0.0493125
	minimum = 0.041 (at node 12)
	maximum = 0.064 (at node 4)
Accepted packet rate average = 0.048625
	minimum = 0.041 (at node 3)
	maximum = 0.063 (at node 1)
Injected flit rate average = 0.0493125
	minimum = 0.041 (at node 12)
	maximum = 0.064 (at node 4)
Accepted flit rate average= 0.048625
	minimum = 0.041 (at node 3)
	maximum = 0.063 (at node 1)
Injected packet length average = 1
Accepted packet length average = 1
Total in-flight flits = 11 (0 measured)
latency change    = 1
throughput change = 1
Class 0:
Packet latency average = 20.3923
	minimum = 7
	maximum = 61
Network latency average = 20.3923
	minimum = 7
	maximum = 61
Slowest packet = 6309
Flit latency average = 20.3923
	minimum = 7
	maximum = 61
Slowest flit = 6309
Fragmentation average = 0
	minimum = 0
	maximum = 0
Injected packet rate average = 0.0490625
	minimum = 0.042 (at node 10)
	maximum = 0.054 (at node 14)
Accepted packet rate average = 0.0485937
	minimum = 0.042 (at node 10)
	maximum = 0.0535 (at node 1)
Injected flit rate average = 0.0490625
	minimum = 0.042 (at node 10)
	maximum = 0.054 (at node 14)
Accepted flit rate average= 0.0485937
	minimum = 0.042 (at node 10)
	maximum = 0.0535 (at node 1)
Injected packet length average = 1
Accepted packet length average = 1
Total in-flight flits = 15 (0 measured)
latency change    = 0.00259664
throughput change = 0.000643087
Class 0:
Packet latency average = 19.94
	minimum = 7
	maximum = 59
Network latency average = 19.94
	minimum = 7
	maximum = 59
Slowest packet = 7314
Flit latency average = 19.94
	minimum = 7
	maximum = 59
Slowest flit = 7314
Fragmentation average = 0
	minimum = 0
	maximum = 0
Injected packet rate average = 0.050375
	minimum = 0.033 (at node 3)
	maximum = 0.07 (at node 14)
Accepted packet rate average = 0.05
	minimum = 0.034 (at node 12)
	maximum = 0.069 (at node 11)
Injected flit rate average = 0.050375
	minimum = 0.033 (at node 3)
	maximum = 0.07 (at node 14)
Accepted flit rate average= 0.05
	minimum = 0.034 (at node 12)
	maximum = 0.069 (at node 11)
Injected packet length average = 1
Accepted packet length average = 1
Total in-flight flits = 21 (0 measured)
latency change    = 0.0226822
throughput change = 0.028125
Warmed up ...Time used is 3000 cycles
Class 0:
Packet latency average = 19.8376
	minimum = 7
	maximum = 58
Network latency average = 19.8376
	minimum = 7
	maximum = 58
Slowest packet = 8679
Flit latency average = 19.9961
	minimum = 7
	maximum = 58
Slowest flit = 8679
Fragmentation average = 0
	minimum = 0
	maximum = 0
Injected packet rate average = 0.04775
	minimum = 0.037 (at node 7)
	maximum = 0.056 (at node 9)
Accepted packet rate average = 0.047875
	minimum = 0.04 (at node 13)
	maximum = 0.058 (at node 6)
Injected flit rate average = 0.04775
	minimum = 0.037 (at node 7)
	maximum = 0.056 (at node 9)
Accepted flit rate average= 0.047875
	minimum = 0.04 (at node 13)
	maximum = 0.058 (at node 6)
Injected packet length average = 1
Accepted packet length average = 1
Total in-flight flits = 19 (19 measured)
latency change    = 0.00516273
throughput change = 0.0443864
Class 0:
Packet latency average = 20.1684
	minimum = 7
	maximum = 58
Network latency average = 20.1684
	minimum = 7
	maximum = 58
Slowest packet = 8679
Flit latency average = 20.2421
	minimum = 7
	maximum = 58
Slowest flit = 8679
Fragmentation average = 0
	minimum = 0
	maximum = 0
Injected packet rate average = 0.0484687
	minimum = 0.0425 (at node 0)
	maximum = 0.0605 (at node 9)
Accepted packet rate average = 0.0485312
	minimum = 0.0415 (at node 0)
	maximum = 0.0615 (at node 6)
Injected flit rate average = 0.0484687
	minimum = 0.0425 (at node 0)
	maximum = 0.0605 (at node 9)
Accepted flit rate average= 0.0485312
	minimum = 0.0415 (at node 0)
	maximum = 0.0615 (at node 6)
Injected packet length average = 1
Accepted packet length average = 1
Total in-flight flits = 19 (19 measured)
latency change    = 0.0164031
throughput change = 0.0135222
Class 0:
Packet latency average = 20.2466
	minimum = 7
	maximum = 58
Network latency average = 20.2466
	minimum = 7
	maximum = 58
Slowest packet = 8679
Flit latency average = 20.2953
	minimum = 7
	maximum = 58
Slowest flit = 8679
Fragmentation average = 0
	minimum = 0
	maximum = 0
Injected packet rate average = 0.0483542
	minimum = 0.042 (at node 0)
	maximum = 0.0576667 (at node 9)
Accepted packet rate average = 0.0483333
	minimum = 0.0416667 (at node 0)
	maximum = 0.0576667 (at node 6)
Injected flit rate average = 0.0483542
	minimum = 0.042 (at node 0)
	maximum = 0.0576667 (at node 9)
Accepted flit rate average= 0.0483333
	minimum = 0.0416667 (at node 0)
	maximum = 0.0576667 (at node 6)
Injected packet length average = 1
Accepted packet length average = 1
Total in-flight flits = 22 (22 measured)
latency change    = 0.00386344
throughput change = 0.00409483
Draining all recorded packets ...
Draining remaining packets ...
Time taken is 6084 cycles
Class 0:
Packet latency average = 19.5979
	minimum = 7
	maximum = 51
Network latency average = 19.5979
	minimum = 7
	maximum = 51
Slowest packet = 10800
Flit latency average = 19.5979
	minimum = 7
	maximum = 51
Slowest flit = 10800
Fragmentation average = 0
	minimum = 0
	maximum = 0
Injected packet rate average = 0.0474375
	minimum = 0.039 (at node 7)
	maximum = 0.057 (at node 1)
Accepted packet rate average = 0.046625
	minimum = 0.035 (at node 13)
	maximum = 0.056 (at node 4)
Injected flit rate average = 0.0474375
	minimum = 0.039 (at node 7)
	maximum = 0.057 (at node 1)
Accepted flit rate average= 0.046625
	minimum = 0.035 (at node 13)
	maximum = 0.056 (at node 4)
Injected packet length average = 1
Accepted packet length average = 1
Total in-flight flits = 13 (0 measured)
latency change    = 1
throughput change = 1
Class 0:
Packet latency average = 20.1484
	minimum = 7
	maximum = 62
Network latency average = 20.1484
	minimum = 7
	maximum = 62
Slowest packet = 11698
Flit latency average = 20.1484
	minimum = 7
	maximum = 62
Slowest flit = 11698
Fragmentation average = 0
	minimum = 0
	maximum = 0
Injected packet rate average = 0.049125
	minimum = 0.04 (at node 15)
	maximum = 0.0575 (at node 12)
Accepted packet rate average = 0.0486562
	minimum = 0.04 (at node 15)
	maximum = 0.057 (at node 3)
Injected flit rate average = 0.049125
	minimum = 0.04 (at node 15)
	maximum = 0.0575 (at node 12)
Accepted flit rate average= 0.0486562
	minimum = 0.04 (at node 15)
	maximum = 0.057 (at node 3)
Injected packet length average = 1
Accepted packet length average = 1
Total in-flight flits = 15 (0 measured)
latency change    = 0.0273227
throughput change = 0.0417469
Class 0:
Packet latency average = 20.1523
	minimum = 7
	maximum = 68
Network latency average = 20.1523
	minimum = 7
	maximum = 68
Slowest packet = 12305
Flit latency average = 20.1523
	minimum = 7
	maximum = 68
Slowest flit = 12305
Fragmentation average = 0
	minimum = 0
	maximum = 0
Injected packet rate average = 0.0506875
	minimum = 0.039 (at node 9)
	maximum = 0.07 (at node 2)
Accepted packet rate average = 0.050875
	minimum = 0.04 (at node 6)
	maximum = 0.07 (at node 8)
Injected flit rate average = 0.0506875
	minimum = 0.039 (at node 9)
	maximum = 0.07 (at node 2)
Accepted flit rate average= 0.050875
	minimum = 0.04 (at node 6)
	maximum = 0.07 (at node 8)
Injected packet length average = 1
Accepted packet length average = 1
Total in-flight flits = 12 (0 measured)
latency change    = 0.000197095
throughput change = 0.0436118
Warmed up ...Time used is 3000 cycles
Class 0:
Packet latency average = 19.9054
	minimum = 7
	maximum = 59
Network latency average = 19.9054
	minimum = 7
	maximum = 59
Slowest packet = 13147
Flit latency average = 20.0091
	minimum = 7
	maximum = 59
Slowest flit = 13147
Fragmentation average = 0
	minimum = 0
	maximum = 0
Injected packet rate average = 0.0486875
	minimum = 0.041 (at node 4)
	maximum = 0.059 (at node 15)
Accepted packet rate average = 0.0483125
	minimum = 0.041 (at node 1)
	maximum = 0.059 (at node 15)
Injected flit rate average = 0.0486875
	minimum = 0.041 (at node 4)
	maximum = 0.059 (at node 15)
Accepted flit rate average= 0.0483125
	minimum = 0.041 (at node 1)
	maximum = 0.059 (at node 15)
Injected packet length average = 1
Accepted packet length average = 1
Total in-flight flits = 18 (18 measured)
latency change    = 0.012406
throughput change = 0.0530401
Class 0:
Packet latency average = 19.9832
	minimum = 7
	maximum = 61
Network latency average = 19.9832
	minimum = 7
	maximum = 61
Slowest packet = 14272
Flit latency average = 20.034
	minimum = 7
	maximum = 61
Slowest flit = 14272
Fragmentation average = 0
	minimum = 0
	maximum = 0
Injected packet rate average = 0.0488437
	minimum = 0.0405 (at node 8)
	maximum = 0.055 (at node 12)
Accepted packet rate average = 0.0486562
	minimum = 0.04 (at node 2)
	maximum = 0.0545 (at node 3)
Injected flit rate average = 0.0488437
	minimum = 0.0405 (at node 8)
	maximum = 0.055 (at node 12)
Accepted flit rate average= 0.0486562
	minimum = 0.04 (at node 2)
	maximum = 0.0545 (at node 3)
Injected packet length average = 1
Accepted packet length average = 1
Total in-flight flits = 18 (18 measured)
latency change    = 0.00389247
throughput change = 0.00706487
Class 0:
Packet latency average = 20.1646
	minimum = 7
	maximum = 61
Network latency average = 20.1646
	minimum = 7
	maximum = 61
Slowest packet = 14272
Flit latency average = 20.1971
	minimum = 7
	maximum = 61
Slowest flit = 14272
Fragmentation average = 0
	minimum = 0
	maximum = 0
Injected packet rate average = 0.0494167
	minimum = 0.04 (at node 8)
	maximum = 0.0556667 (at node 12)
Accepted packet rate average = 0.0493542
	minimum = 0.04 (at node 2)
	maximum = 0.056 (at node 3)
Injected flit rate average = 0.0494167
	minimum = 0.04 (at node 8)
	maximum = 0.0556667 (at node 12)
Accepted flit rate average= 0.0493542
	minimum = 0.04 (at node 2)
	maximum = 0.056 (at node 3)
Injected packet length average = 1
Accepted packet length average = 1
Total in-flight flits = 15 (15 measured)
latency change    = 0.00899816
throughput change = 0.014141
Class 0:
Packet latency average = 20.145
	minimum = 7
	maximum = 61
Network latency average = 20.145
	minimum = 7
	maximum = 61
Slowest packet = 14272
Flit latency average = 20.1695
	minimum = 7
	maximum = 61
Slowest flit = 14272
Fragmentation average = 0
	minimum = 0
	maximum = 0
Injected packet rate average = 0.0492031
	minimum = 0.03925 (at node 8)
	maximum = 0.0545 (at node 7)
Accepted packet rate average = 0.049125
	minimum = 0.03925 (at node 2)
	maximum = 0.05475 (at node 13)
Injected flit rate average = 0.0492031
	minimum = 0.03925 (at node 8)
	maximum = 0.0545 (at node 7)
Accepted flit rate average= 0.049125
	minimum = 0.03925 (at node 2)
	maximum = 0.05475 (at node 13)
Injected packet length average = 1
Accepted packet length average = 1
Total in-flight flits = 17 (17 measured)
latency change    = 0.000975963
throughput change = 0.00466497
Draining all recorded packets ...
Draining remaining packets ...
Time taken is 7074 cycles
Class 0:
Packet latency average = 19.4634
	minimum = 7
	maximum = 59
Network latency average = 19.4634
	minimum = 7
	maximum = 59
Slowest packet = 16321
Flit latency average = 19.4634
	minimum = 7
	maximum = 59
Slowest flit = 16321
Fragmentation average = 0
	minimum = 0
	maximum = 0
Injected packet rate average = 0.049125
	minimum = 0.037 (at node 3)
	maximum = 0.059 (at node 2)
Accepted packet rate average = 0.047875
	minimum = 0.035 (at node 12)
	maximum = 0.057 (at node 8)
Injected flit rate average = 0.049125
	minimum = 0.037 (at node 3)
	maximum = 0.059 (at node 2)
Accepted flit rate average= 0.047875
	minimum = 0.035 (at node 12)
	maximum = 0.057 (at node 8)
Injected packet length average = 1
Accepted packet length average = 1
Total in-flight flits = 20 (0 measured)
latency change    = 1
throughput change = 1
Class 0:
Packet latency average = 20.0725
	minimum = 7
	maximum = 90
Network latency average = 20.0725
	minimum = 7
	maximum = 90
Slowest packet = 17094
Flit latency average = 20.0725
	minimum = 7
	maximum = 90
Slowest flit = 17094
Fragmentation average = 0
	minimum = 0
	maximum = 0
Injected packet rate average = 0.0509063
	minimum = 0.038 (at node 6)
	maximum = 0.0605 (at node 15)
Accepted packet rate average = 0.0504062
	minimum = 0.038 (at node 9)
	maximum = 0.0605 (at node 15)
Injected flit rate average = 0.0509063
	minimum = 0.038 (at node 6)
	maximum = 0.0605 (at node 15)
Accepted flit rate average= 0.0504062
	minimum = 0.038 (at node 9)
	maximum = 0.0605 (at node 15)
Injected packet length average = 1
Accepted packet length average = 1
Total in-flight flits = 16 (0 measured)
latency change    = 0.0303444
throughput change = 0.050217
Class 0:
Packet latency average = 20.5665
	minimum = 7
	maximum = 53
Network latency average = 20.5665
	minimum = 7
	maximum = 53
Slowest packet = 17723
Flit latency average = 20.5665
	minimum = 7
	maximum = 53
Slowest flit = 17723
Fragmentation average = 0
	minimum = 0
	maximum = 0
Injected packet rate average = 0.0491875
	minimum = 0.035 (at node 11)
	maximum = 0.058 (at node 2)
Accepted packet rate average = 0.0493125
	minimum = 0.035 (at node 14)
	maximum = 0.061 (at node 8)
Injected flit rate average = 0.0491875
	minimum = 0.035 (at node 11)
	maximum = 0.058 (at node 2)
Accepted flit rate average= 0.0493125
	minimum = 0.035 (at node 14)
	maximum = 0.061 (at node 8)
Injected packet length average = 1
Accepted packet length average = 1
Total in-flight flits = 14 (0 measured)
latency change    = 0.0240198
throughput change = 0.02218
Warmed up ...Time used is 3000 cycles
Class 0:
Packet latency average = 20.4651
	minimum = 7
	maximum = 64
Network latency average = 20.4651
	minimum = 7
	maximum = 64
Slowest packet = 19207
Flit latency average = 20.5824
	minimum = 7
	maximum = 64
Slowest flit = 19207
Fragmentation average = 0
	minimum = 0
	maximum = 0
Injected packet rate average = 0.0516875
	minimum = 0.037 (at node 0)
	maximum = 0.062 (at node 2)
Accepted packet rate average = 0.0519375
	minimum = 0.037 (at node 0)
	maximum = 0.063 (at node 8)
Injected flit rate average = 0.0516875
	minimum = 0.037 (at node 0)
	maximum = 0.062 (at node 2)
Accepted flit rate average= 0.0519375
	minimum = 0.037 (at node 0)
	maximum = 0.063 (at node 8)
Injected packet length average = 1
Accepted packet length average = 1
Total in-flight flits = 10 (10 measured)
latency change    = 0.00495593
throughput change = 0.0505415
Class 0:
Packet latency average = 20.0079
	minimum = 7
	maximum = 68
Network latency average = 20.0079
	minimum = 7
	maximum = 68
Slowest packet = 19294
Flit latency average = 20.0702
	minimum = 7
	maximum = 68
Slowest flit = 19294
Fragmentation average = 0
	minimum = 0
	maximum = 0
Injected packet rate average = 0.0521563
	minimum = 0.0445 (at node 3)
	maximum = 0.0635 (at node 5)
Accepted packet rate average = 0.0520938
	minimum = 0.044 (at node 12)
	maximum = 0.0635 (at node 5)
Injected flit rate average = 0.0521563
	minimum = 0.0445 (at node 3)
	maximum = 0.0635 (at node 5)
Accepted flit rate average= 0.0520938
	minimum = 0.044 (at node 12)
	maximum = 0.0635 (at node 5)
Injected packet length average = 1
Accepted packet length average = 1
Total in-flight flits = 16 (16 measured)
latency change    = 0.0228536
throughput change = 0.0029994
Class 0:
Packet latency average = 19.9971
	minimum = 7
	maximum = 76
Network latency average = 19.9971
	minimum = 7
	maximum = 76
Slowest packet = 20821
Flit latency average = 20.0397
	minimum = 7
	maximum = 76
Slowest flit = 20821
Fragmentation average = 0
	minimum = 0
	maximum = 0
Injected packet rate average = 0.0509583
	minimum = 0.0436667 (at node 9)
	maximum = 0.0603333 (at node 5)
Accepted packet rate average = 0.0508958
	minimum = 0.044 (at node 6)
	maximum = 0.0606667 (at node 5)
Injected flit rate average = 0.0509583
	minimum = 0.0436667 (at node 9)
	maximum = 0.0603333 (at node 5)
Accepted flit rate average= 0.0508958
	minimum = 0.044 (at node 6)
	maximum = 0.0606667 (at node 5)
Injected packet length average = 1
Accepted packet length average = 1
Total in-flight flits = 17 (17 measured)
latency change    = 0.000537394
throughput change = 0.0235366
Class 0:
Packet latency average = 20.2918
	minimum = 7
	maximum = 76
Network latency average = 20.2918
	minimum = 7
	maximum = 76
Slowest packet = 20821
Flit latency average = 20.3223
	minimum = 7
	maximum = 76
Slowest flit = 20821
Fragmentation average = 0
	minimum = 0
	maximum = 0
Injected packet rate average = 0.0511719
	minimum = 0.046 (at node 0)
	maximum = 0.0565 (at node 5)
Accepted packet rate average = 0.0511406
	minimum = 0.046 (at node 0)
	maximum = 0.05675 (at node 5)
Injected flit rate average = 0.0511719
	minimum = 0.046 (at node 0)
	maximum = 0.0565 (at node 5)
Accepted flit rate average= 0.0511406
	minimum = 0.046 (at node 0)
	maximum = 0.05675 (at node 5)
Injected packet length average = 1
Accepted packet length average = 1
Total in-flight flits = 16 (16 measured)
latency change    = 0.0145226
throughput change = 0.00478664
Draining all recorded packets ...
Draining remaining packets ...
Time taken is 7053 cycles
Class 0:
Packet latency average = 20.0212
	minimum = 7
	maximum = 58
Network latency average = 20.0212
	minimum = 7
	maximum = 58
Slowest packet = 22458
Flit latency average = 20.0212
	minimum = 7
	maximum = 58
Slowest flit = 22458
Fragmentation average = 0
	minimum = 0
	maximum = 0
Injected packet rate average = 0.051125
	minimum = 0.039 (at node 1)
	maximum = 0.07 (at node 11)
Accepted packet rate average = 0.0501875
	minimum = 0.039 (at node 1)
	maximum = 0.07 (at node 14)
Injected flit rate average = 0.051125
	minimum = 0.039 (at node 1)
	maximum = 0.07 (at node 11)
Accepted flit rate average= 0.0501875
	minimum = 0.039 (at node 1)
	maximum = 0.07 (at node 14)
Injected packet length average = 1
Accepted packet length average = 1
Total in-flight flits = 15 (0 measured)
latency change    = 1
throughput change = 1
Class 0:
Packet latency average = 20.247
	minimum = 7
	maximum = 65
Network latency average = 20.247
	minimum = 7
	maximum = 65
Slowest packet = 22876
Flit latency average = 20.247
	minimum = 7
	maximum = 65
Slowest flit = 22876
Fragmentation average = 0
	minimum = 0
	maximum = 0
Injected packet rate average = 0.050125
	minimum = 0.0435 (at node 5)
	maximum = 0.062 (at node 11)
Accepted packet rate average = 0.0495937
	minimum = 0.0435 (at node 5)
	maximum = 0.062 (at node 14)
Injected flit rate average = 0.050125
	minimum = 0.0435 (at node 5)
	maximum = 0.062 (at node 11)
Accepted flit rate average= 0.0495937
	minimum = 0.0435 (at node 5)
	maximum = 0.062 (at node 14)
Injected packet length average = 1
Accepted packet length average = 1
Total in-flight flits = 17 (0 measured)
latency change    = 0.0111541
throughput change = 0.0119723
Class 0:
Packet latency average = 20.4002
	minimum = 7
	maximum = 68
Network latency average = 20.4002
	minimum = 7
	maximum = 68
Slowest packet = 24147
Flit latency average = 20.4002
	minimum = 7
	maximum = 68
Slowest flit = 24147
Fragmentation average = 0
	minimum = 0
	maximum = 0
Injected packet rate average = 0.0546875
	minimum = 0.044 (at node 1)
	maximum = 0.068 (at node 8)
Accepted packet rate average = 0.0545
	minimum = 0.044 (at node 4)
	maximum = 0.069 (at node 2)
Injected flit rate average = 0.0546875
	minimum = 0.044 (at node 1)
	maximum = 0.068 (at node 8)
Accepted flit rate average= 0.0545
	minimum = 0.044 (at node 4)
	maximum = 0.069 (at node 2)
Injected packet length average = 1
Accepted packet length average = 1
Total in-flight flits = 20 (0 measured)
latency change    = 0.00751082
throughput change = 0.0900229
Warmed up ...Time used is 3000 cycles
Class 0:
Packet latency average = 20.2459
	minimum = 7
	maximum = 69
Network latency average = 20.2459
	minimum = 7
	maximum = 69
Slowest packet = 24423
Flit latency average = 20.3626
	minimum = 7
	maximum = 69
Slowest flit = 24423
Fragmentation average = 0
	minimum = 0
	maximum = 0
Injected packet rate average = 0.0534375
	minimum = 0.041 (at node 5)
	maximum = 0.061 (at node 3)
Accepted packet rate average = 0.054125
	minimum = 0.042 (at node 5)
	maximum = 0.064 (at node 12)
Injected flit rate average = 0.0534375
	minimum = 0.041 (at node 5)
	maximum = 0.061 (at node 3)
Accepted flit rate average= 0.054125
	minimum = 0.042 (at node 5)
	maximum = 0.064 (at node 12)
Injected packet length average = 1
Accepted packet length average = 1
Total in-flight flits = 9 (9 measured)
latency change    = 0.00762459
throughput change = 0.00692841
Class 0:
Packet latency average = 20.3622
	minimum = 7
	maximum = 73
Network latency average = 20.3622
	minimum = 7
	maximum = 73
Slowest packet = 25709
Flit latency average = 20.4218
	minimum = 7
	maximum = 73
Slowest flit = 25709
Fragmentation average = 0
	minimum = 0
	maximum = 0
Injected packet rate average = 0.05175
	minimum = 0.042 (at node 5)
	maximum = 0.065 (at node 13)
Accepted packet rate average = 0.0517813
	minimum = 0.042 (at node 5)
	maximum = 0.064 (at node 7)
Injected flit rate average = 0.05175
	minimum = 0.042 (at node 5)
	maximum = 0.065 (at node 13)
Accepted flit rate average= 0.0517813
	minimum = 0.042 (at node 5)
	maximum = 0.064 (at node 7)
Injected packet length average = 1
Accepted packet length average = 1
Total in-flight flits = 19 (19 measured)
latency change    = 0.00571573
throughput change = 0.0452625
Class 0:
Packet latency average = 20.514
	minimum = 7
	maximum = 86
Network latency average = 20.514
	minimum = 7
	maximum = 86
Slowest packet = 26316
Flit latency average = 20.5531
	minimum = 7
	maximum = 86
Slowest flit = 26316
Fragmentation average = 0
	minimum = 0
	maximum = 0
Injected packet rate average = 0.051
	minimum = 0.0413333 (at node 5)
	maximum = 0.0586667 (at node 13)
Accepted packet rate average = 0.051
	minimum = 0.0416667 (at node 5)
	maximum = 0.0586667 (at node 7)
Injected flit rate average = 0.051
	minimum = 0.0413333 (at node 5)
	maximum = 0.0586667 (at node 13)
Accepted flit rate average= 0.051
	minimum = 0.0416667 (at node 5)
	maximum = 0.0586667 (at node 7)
Injected packet length average = 1
Accepted packet length average = 1
Total in-flight flits = 20 (20 measured)
latency change    = 0.00739764
throughput change = 0.0153186
Draining all recorded packets ...
Draining remaining packets ...
Time taken is 6061 cycles
Class 0:
Packet latency average = 19.7336
	minimum = 7
	maximum = 65
Network latency average = 19.7336
	minimum = 7
	maximum = 65
Slowest packet = 27030
Flit latency average = 19.7336
	minimum = 7
	maximum = 65
Slowest flit = 27030
Fragmentation average = 0
	minimum = 0
	maximum = 0
Injected packet rate average = 0.0515625
	minimum = 0.039 (at node 13)
	maximum = 0.065 (at node 15)
Accepted packet rate average = 0.0504375
	minimum = 0.038 (at node 7)
	maximum = 0.065 (at node 15)
Injected flit rate average = 0.0515625
	minimum = 0.039 (at node 13)
	maximum = 0.065 (at node 15)
Accepted flit rate average= 0.0504375
	minimum = 0.038 (at node 7)
	maximum = 0.065 (at node 15)
Injected packet length average = 1
Accepted packet length average = 1
Total in-flight flits = 18 (0 measured)
latency change    = 1
throughput change = 1
Class 0:
Packet latency average = 20.3379
	minimum = 7
	maximum = 65
Network latency average = 20.3379
	minimum = 7
	maximum = 65
Slowest packet = 27030
Flit latency average = 20.3379
	minimum = 7
	maximum = 65
Slowest flit = 27030
Fragmentation average = 0
	minimum = 0
	maximum = 0
Injected packet rate average = 0.0509688
	minimum = 0.0425 (at node 9)
	maximum = 0.064 (at node 11)
Accepted packet rate average = 0.0504062
	minimum = 0.0425 (at node 6)
	maximum = 0.063 (at node 2)
Injected flit rate average = 0.0509688
	minimum = 0.0425 (at node 9)
	maximum = 0.064 (at node 11)
Accepted flit rate average= 0.0504062
	minimum = 0.0425 (at node 6)
	maximum = 0.063 (at node 2)
Injected packet length average = 1
Accepted packet length average = 1
Total in-flight flits = 18 (0 measured)
latency change    = 0.029713
throughput change = 0.000619963
Class 0:
Packet latency average = 20.718
	minimum = 7
	maximum = 70
Network latency average = 20.718
	minimum = 7
	maximum = 70
Slowest packet = 28309
Flit latency average = 20.718
	minimum = 7
	maximum = 70
Slowest flit = 28309
Fragmentation average = 0
	minimum = 0
	maximum = 0
Injected packet rate average = 0.0503125
	minimum = 0.035 (at node 11)
	maximum = 0.062 (at node 10)
Accepted packet rate average = 0.05075
	minimum = 0.037 (at node 14)
	maximum = 0.062 (at node 10)
Injected flit rate average = 0.0503125
	minimum = 0.035 (at node 11)
	maximum = 0.062 (at node 10)
Accepted flit rate average= 0.05075
	minimum = 0.037 (at node 14)
	maximum = 0.062 (at node 10)
Injected packet length average = 1
Accepted packet length average = 1
Total in-flight flits = 11 (0 measured)
latency change    = 0.0183464
throughput change = 0.0067734
Warmed up ...Time used is 3000 cycles
Class 0:
Packet latency average = 19.4567
	minimum = 7
	maximum = 77
Network latency average = 19.4554
	minimum = 7
	maximum = 77
Slowest packet = 29646
Flit latency average = 19.5971
	minimum = 7
	maximum = 77
Slowest flit = 29646
Fragmentation average = 0
	minimum = 0
	maximum = 0
Injected packet rate average = 0.0480625
	minimum = 0.038 (at node 12)
	maximum = 0.056 (at node 14)
Accepted packet rate average = 0.047625
	minimum = 0.039 (at node 3)
	maximum = 0.055 (at node 11)
Injected flit rate average = 0.0480625
	minimum = 0.038 (at node 12)
	maximum = 0.056 (at node 14)
Accepted flit rate average= 0.047625
	minimum = 0.039 (at node 3)
	maximum = 0.055 (at node 11)
Injected packet length average = 1
Accepted packet length average = 1
Total in-flight flits = 18 (18 measured)
latency change    = 0.0648237
throughput change = 0.0656168
Class 0:
Packet latency average = 19.7436
	minimum = 7
	maximum = 77
Network latency average = 19.743
	minimum = 7
	maximum = 77
Slowest packet = 29646
Flit latency average = 19.8109
	minimum = 7
	maximum = 77
Slowest flit = 29646
Fragmentation average = 0
	minimum = 0
	maximum = 0
Injected packet rate average = 0.0483437
	minimum = 0.043 (at node 6)
	maximum = 0.055 (at node 5)
Accepted packet rate average = 0.04825
	minimum = 0.0435 (at node 8)
	maximum = 0.055 (at node 5)
Injected flit rate average = 0.0483437
	minimum = 0.043 (at node 6)
	maximum = 0.055 (at node 5)
Accepted flit rate average= 0.04825
	minimum = 0.0435 (at node 8)
	maximum = 0.055 (at node 5)
Injected packet length average = 1
Accepted packet length average = 1
Total in-flight flits = 14 (14 measured)
latency change    = 0.014532
throughput change = 0.0129534
Class 0:
Packet latency average = 19.6469
	minimum = 7
	maximum = 77
Network latency average = 19.6465
	minimum = 7
	maximum = 77
Slowest packet = 29646
Flit latency average = 19.6917
	minimum = 7
	maximum = 77
Slowest flit = 29646
Fragmentation average = 0
	minimum = 0
	maximum = 0
Injected packet rate average = 0.0489375
	minimum = 0.0383333 (at node 2)
	maximum = 0.0556667 (at node 0)
Accepted packet rate average = 0.0487917
	minimum = 0.039 (at node 8)
	maximum = 0.0556667 (at node 0)
Injected flit rate average = 0.0489375
	minimum = 0.0383333 (at node 2)
	maximum = 0.0556667 (at node 0)
Accepted flit rate average= 0.0487917
	minimum = 0.039 (at node 8)
	maximum = 0.0556667 (at node 0)
Injected packet length average = 1
Accepted packet length average = 1
Total in-flight flits = 18 (18 measured)
latency change    = 0.00492226
throughput change = 0.0111016
Class 0:
Packet latency average = 19.6824
	minimum = 7
	maximum = 77
Network latency average = 19.6821
	minimum = 7
	maximum = 77
Slowest packet = 29646
Flit latency average = 19.7163
	minimum = 7
	maximum = 77
Slowest flit = 29646
Fragmentation average = 0
	minimum = 0
	maximum = 0
Injected packet rate average = 0.0482187
	minimum = 0.0405 (at node 2)
	maximum = 0.05475 (at node 0)
Accepted packet rate average = 0.0481406
	minimum = 0.04075 (at node 8)
	maximum = 0.0545 (at node 0)
Injected flit rate average = 0.0482187
	minimum = 0.0405 (at node 2)
	maximum = 0.05475 (at node 0)
Accepted flit rate average= 0.0481406
	minimum = 0.04075 (at node 8)
	maximum = 0.0545 (at node 0)
Injected packet length average = 1
Accepted packet length average = 1
Total in-flight flits = 16 (16 measured)
latency change    = 0.00180251
throughput change = 0.0135237
Draining all recorded packets ...
Draining remaining packets ...
Time taken is 7072 cycles
Class 0:
Packet latency average = 20.0257
	minimum = 7
	maximum = 61
Network latency average = 20.0257
	minimum = 7
	maximum = 61
Slowest packet = 32674
Flit latency average = 20.0257
	minimum = 7
	maximum = 61
Slowest flit = 32674
Fragmentation average = 0
	minimum = 0
	maximum = 0
Injected packet rate average = 0.0498125
	minimum = 0.035 (at node 6)
	maximum = 0.058 (at node 2)
Accepted packet rate average = 0.0485625
	minimum = 0.035 (at node 9)
	maximum = 0.056 (at node 4)
Injected flit rate average = 0.0498125
	minimum = 0.035 (at node 6)
	maximum = 0.058 (at node 2)
Accepted flit rate average= 0.0485625
	minimum = 0.035 (at node 9)
	maximum = 0.056 (at node 4)
Injected packet length average = 1
Accepted packet length average = 1
Total in-flight flits = 20 (0 measured)
latency change    = 1
throughput change = 1
Class 0:
Packet latency average = 20.102
	minimum = 7
	maximum = 62
Network latency average = 20.102
	minimum = 7
	maximum = 62
Slowest packet = 33165
Flit latency average = 20.102
	minimum = 7
	maximum = 62
Slowest flit = 33165
Fragmentation average = 0
	minimum = 0
	maximum = 0
Injected packet rate average = 0.050375
	minimum = 0.0375 (at node 6)
	maximum = 0.0585 (at node 4)
Accepted packet rate average = 0.0499375
	minimum = 0.0375 (at node 9)
	maximum = 0.058 (at node 1)
Injected flit rate average = 0.050375
	minimum = 0.0375 (at node 6)
	maximum = 0.0585 (at node 4)
Accepted flit rate average= 0.0499375
	minimum = 0.0375 (at node 9)
	maximum = 0.058 (at node 1)
Injected packet length average = 1
Accepted packet length average = 1
Total in-flight flits = 14 (0 measured)
latency change    = 0.00379378
throughput change = 0.0275344
Class 0:
Packet latency average = 20.2516
	minimum = 7
	maximum = 62
Network latency average = 20.2516
	minimum = 7
	maximum = 62
Slowest packet = 34133
Flit latency average = 20.2516
	minimum = 7
	maximum = 62
Slowest flit = 34133
Fragmentation average = 0
	minimum = 0
	maximum = 0
Injected packet rate average = 0.048
	minimum = 0.042 (at node 0)
	maximum = 0.055 (at node 12)
Accepted packet rate average = 0.0476875
	minimum = 0.04 (at node 12)
	maximum = 0.057 (at node 3)
Injected flit rate average = 0.048
	minimum = 0.042 (at node 0)
	maximum = 0.055 (at node 12)
Accepted flit rate average= 0.0476875
	minimum = 0.04 (at node 12)
	maximum = 0.057 (at node 3)
Injected packet length average = 1
Accepted packet length average = 1
Total in-flight flits = 19 (0 measured)
latency change    = 0.00738882
throughput change = 0.0471822
Warmed up ...Time used is 3000 cycles
Class 0:
Packet latency average = 20.0531
	minimum = 7
	maximum = 62
Network latency average = 20.0531
	minimum = 7
	maximum = 62
Slowest packet = 35217
Flit latency average = 20.2087
	minimum = 7
	maximum = 62
Slowest flit = 35217
Fragmentation average = 0
	minimum = 0
	maximum = 0
Injected packet rate average = 0.0516875
	minimum = 0.043 (at node 13)
	maximum = 0.063 (at node 7)
Accepted packet rate average = 0.0518125
	minimum = 0.042 (at node 7)
	maximum = 0.064 (at node 13)
Injected flit rate average = 0.0516875
	minimum = 0.043 (at node 13)
	maximum = 0.063 (at node 7)
Accepted flit rate average= 0.0518125
	minimum = 0.042 (at node 7)
	maximum = 0.064 (at node 13)
Injected packet length average = 1
Accepted packet length average = 1
Total in-flight flits = 17 (17 measured)
latency change    = 0.00990131
throughput change = 0.079614
Class 0:
Packet latency average = 20.1377
	minimum = 7
	maximum = 62
Network latency average = 20.1377
	minimum = 7
	maximum = 62
Slowest packet = 35217
Flit latency average = 20.2154
	minimum = 7
	maximum = 62
Slowest flit = 35217
Fragmentation average = 0
	minimum = 0
	maximum = 0
Injected packet rate average = 0.0511875
	minimum = 0.0415 (at node 13)
	maximum = 0.0555 (at node 0)
Accepted packet rate average = 0.0512188
	minimum = 0.041 (at node 7)
	maximum = 0.057 (at node 13)
Injected flit rate average = 0.0511875
	minimum = 0.0415 (at node 13)
	maximum = 0.0555 (at node 0)
Accepted flit rate average= 0.0512188
	minimum = 0.041 (at node 7)
	maximum = 0.057 (at node 13)
Injected packet length average = 1
Accepted packet length average = 1
Total in-flight flits = 18 (18 measured)
latency change    = 0.00419949
throughput change = 0.0115924
Class 0:
Packet latency average = 20.3833
	minimum = 7
	maximum = 66
Network latency average = 20.3833
	minimum = 7
	maximum = 66
Slowest packet = 36282
Flit latency average = 20.4338
	minimum = 7
	maximum = 66
Slowest flit = 36282
Fragmentation average = 0
	minimum = 0
	maximum = 0
Injected packet rate average = 0.0505208
	minimum = 0.0463333 (at node 11)
	maximum = 0.0546667 (at node 0)
Accepted packet rate average = 0.0506667
	minimum = 0.046 (at node 14)
	maximum = 0.055 (at node 0)
Injected flit rate average = 0.0505208
	minimum = 0.0463333 (at node 11)
	maximum = 0.0546667 (at node 0)
Accepted flit rate average= 0.0506667
	minimum = 0.046 (at node 14)
	maximum = 0.055 (at node 0)
Injected packet length average = 1
Accepted packet length average = 1
Total in-flight flits = 12 (12 measured)
latency change    = 0.0120533
throughput change = 0.0108964
Class 0:
Packet latency average = 20.4983
	minimum = 7
	maximum = 68
Network latency average = 20.4983
	minimum = 7
	maximum = 68
Slowest packet = 37325
Flit latency average = 20.5356
	minimum = 7
	maximum = 68
Slowest flit = 37325
Fragmentation average = 0
	minimum = 0
	maximum = 0
Injected packet rate average = 0.0504375
	minimum = 0.04675 (at node 4)
	maximum = 0.0545 (at node 12)
Accepted packet rate average = 0.0504687
	minimum = 0.04675 (at node 1)
	maximum = 0.05425 (at node 3)
Injected flit rate average = 0.0504375
	minimum = 0.04675 (at node 4)
	maximum = 0.0545 (at node 12)
Accepted flit rate average= 0.0504687
	minimum = 0.04675 (at node 1)
	maximum = 0.05425 (at node 3)
Injected packet length average = 1
Accepted packet length average = 1
Total in-flight flits = 17 (17 measured)
latency change    = 0.00560763
throughput change = 0.00392157
Draining all recorded packets ...
Draining remaining packets ...
Time taken is 7075 cycles
Class 0:
Packet latency average = 20.6587
	minimum = 7
	maximum = 65
Network latency average = 20.6587
	minimum = 7
	maximum = 65
Slowest packet = 38427
Flit latency average = 20.6587
	minimum = 7
	maximum = 65
Slowest flit = 38427
Fragmentation average = 0
	minimum = 0
	maximum = 0
Injected packet rate average = 0.0504375
	minimum = 0.043 (at node 6)
	maximum = 0.059 (at node 0)
Accepted packet rate average = 0.049625
	minimum = 0.043 (at node 9)
	maximum = 0.058 (at node 0)
Injected flit rate average = 0.0504375
	minimum = 0.043 (at node 6)
	maximum = 0.059 (at node 0)
Accepted flit rate average= 0.049625
	minimum = 0.043 (at node 9)
	maximum = 0.058 (at node 0)
Injected packet length average = 1
Accepted packet length average = 1
Total in-flight flits = 13 (0 measured)
latency change    = 1
throughput change = 1
Class 0:
Packet latency average = 20.3724
	minimum = 7
	maximum = 69
Network latency average = 20.3724
	minimum = 7
	maximum = 69
Slowest packet = 39181
Flit latency average = 20.3724
	minimum = 7
	maximum = 69
Slowest flit = 39181
Fragmentation average = 0
	minimum = 0
	maximum = 0
Injected packet rate average = 0.0492812
	minimum = 0.0415 (at node 13)
	maximum = 0.059 (at node 5)
Accepted packet rate average = 0.04875
	minimum = 0.041 (at node 15)
	maximum = 0.0585 (at node 5)
Injected flit rate average = 0.0492812
	minimum = 0.0415 (at node 13)
	maximum = 0.059 (at node 5)
Accepted flit rate average= 0.04875
	minimum = 0.041 (at node 15)
	maximum = 0.0585 (at node 5)
Injected packet length average = 1
Accepted packet length average = 1
Total in-flight flits = 17 (0 measured)
latency change    = 0.0140511
throughput change = 0.0179487
Class 0:
Packet latency average = 19.7422
	minimum = 7
	maximum = 73
Network latency average = 19.7422
	minimum = 7
	maximum = 73
Slowest packet = 40096
Flit latency average = 19.7422
	minimum = 7
	maximum = 73
Slowest flit = 40096
Fragmentation average = 0
	minimum = 0
	maximum = 0
Injected packet rate average = 0.0538125
	minimum = 0.038 (at node 14)
	maximum = 0.078 (at node 10)
Accepted packet rate average = 0.0538125
	minimum = 0.038 (at node 11)
	maximum = 0.079 (at node 10)
Injected flit rate average = 0.0538125
	minimum = 0.038 (at node 14)
	maximum = 0.078 (at node 10)
Accepted flit rate average= 0.0538125
	minimum = 0.038 (at node 11)
	maximum = 0.079 (at node 10)
Injected packet length average = 1
Accepted packet length average = 1
Total in-flight flits = 17 (0 measured)
latency change    = 0.0319254
throughput change = 0.0940767
Warmed up ...Time used is 3000 cycles
Class 0:
Packet latency average = 20.0322
	minimum = 7
	maximum = 62
Network latency average = 20.0322
	minimum = 7
	maximum = 62
Slowest packet = 40662
Flit latency average = 20.2303
	minimum = 7
	maximum = 62
Slowest flit = 40662
Fragmentation average = 0
	minimum = 0
	maximum = 0
Injected packet rate average = 0.0511875
	minimum = 0.038 (at node 12)
	maximum = 0.065 (at node 4)
Accepted packet rate average = 0.0515625
	minimum = 0.039 (at node 10)
	maximum = 0.063 (at node 1)
Injected flit rate average = 0.0511875
	minimum = 0.038 (at node 12)
	maximum = 0.065 (at node 4)
Accepted flit rate average= 0.0515625
	minimum = 0.039 (at node 10)
	maximum = 0.063 (at node 1)
Injected packet length average = 1
Accepted packet length average = 1
Total in-flight flits = 11 (11 measured)
latency change    = 0.0144776
throughput change = 0.0436364
Class 0:
Packet latency average = 20.1725
	minimum = 7
	maximum = 62
Network latency average = 20.1725
	minimum = 7
	maximum = 62
Slowest packet = 40662
Flit latency average = 20.2721
	minimum = 7
	maximum = 62
Slowest flit = 40662
Fragmentation average = 0
	minimum = 0
	maximum = 0
Injected packet rate average = 0.0504375
	minimum = 0.042 (at node 12)
	maximum = 0.056 (at node 4)
Accepted packet rate average = 0.0505312
	minimum = 0.0435 (at node 3)
	maximum = 0.056 (at node 1)
Injected flit rate average = 0.0504375
	minimum = 0.042 (at node 12)
	maximum = 0.056 (at node 4)
Accepted flit rate average= 0.0505312
	minimum = 0.0435 (at node 3)
	maximum = 0.056 (at node 1)
Injected packet length average = 1
Accepted packet length average = 1
Total in-flight flits = 14 (14 measured)
latency change    = 0.00695609
throughput change = 0.0204082
Class 0:
Packet latency average = 20.1964
	minimum = 7
	maximum = 68
Network latency average = 20.1964
	minimum = 7
	maximum = 68
Slowest packet = 42554
Flit latency average = 20.2633
	minimum = 7
	maximum = 68
Slowest flit = 42554
Fragmentation average = 0
	minimum = 0
	maximum = 0
Injected packet rate average = 0.05
	minimum = 0.044 (at node 10)
	maximum = 0.0553333 (at node 8)
Accepted packet rate average = 0.05
	minimum = 0.044 (at node 10)
	maximum = 0.055 (at node 2)
Injected flit rate average = 0.05
	minimum = 0.044 (at node 10)
	maximum = 0.0553333 (at node 8)
Accepted flit rate average= 0.05
	minimum = 0.044 (at node 10)
	maximum = 0.055 (at node 2)
Injected packet length average = 1
Accepted packet length average = 1
Total in-flight flits = 17 (17 measured)
latency change    = 0.00118294
throughput change = 0.010625
Draining all recorded packets ...
Draining remaining packets ...
Time taken is 6053 cycles
Class 0:
Packet latency average = 20.0976
	minimum = 7
	maximum = 58
Network latency average = 20.0976
	minimum = 7
	maximum = 58
Slowest packet = 42788
Flit latency average = 20.0976
	minimum = 7
	maximum = 58
Slowest flit = 42788
Fragmentation average = 0
	minimum = 0
	maximum = 0
Injected packet rate average = 0.0499375
	minimum = 0.035 (at node 10)
	maximum = 0.06 (at node 9)
Accepted packet rate average = 0.0493125
	minimum = 0.035 (at node 10)
	maximum = 0.06 (at node 6)
Injected flit rate average = 0.0499375
	minimum = 0.035 (at node 10)
	maximum = 0.06 (at node 9)
Accepted flit rate average= 0.0493125
	minimum = 0.035 (at node 10)
	maximum = 0.06 (at node 6)
Injected packet length average = 1
Accepted packet length average = 1
Total in-flight flits = 10 (0 measured)
latency change    = 1
throughput change = 1
Class 0:
Packet latency average = 19.9078
	minimum = 7
	maximum = 58
Network latency average = 19.9078
	minimum = 7
	maximum = 58
Slowest packet = 42788
Flit latency average = 19.9078
	minimum = 7
	maximum = 58
Slowest flit = 42788
Fragmentation average = 0
	minimum = 0
	maximum = 0
Injected packet rate average = 0.0503125
	minimum = 0.0415 (at node 10)
	maximum = 0.06 (at node 15)
Accepted packet rate average = 0.0498125
	minimum = 0.0405 (at node 10)
	maximum = 0.0595 (at node 15)
Injected flit rate average = 0.0503125
	minimum = 0.0415 (at node 10)
	maximum = 0.06 (at node 15)
Accepted flit rate average= 0.0498125
	minimum = 0.0405 (at node 10)
	maximum = 0.0595 (at node 15)
Injected packet length average = 1
Accepted packet length average = 1
Total in-flight flits = 16 (0 measured)
latency change    = 0.0095346
throughput change = 0.0100376
Class 0:
Packet latency average = 20.7259
	minimum = 7
	maximum = 67
Network latency average = 20.7259
	minimum = 7
	maximum = 67
Slowest packet = 45060
Flit latency average = 20.7259
	minimum = 7
	maximum = 67
Slowest flit = 45060
Fragmentation average = 0
	minimum = 0
	maximum = 0
Injected packet rate average = 0.05075
	minimum = 0.041 (at node 15)
	maximum = 0.064 (at node 13)
Accepted packet rate average = 0.0513125
	minimum = 0.041 (at node 15)
	maximum = 0.063 (at node 1)
Injected flit rate average = 0.05075
	minimum = 0.041 (at node 15)
	maximum = 0.064 (at node 13)
Accepted flit rate average= 0.0513125
	minimum = 0.041 (at node 15)
	maximum = 0.063 (at node 1)
Injected packet length average = 1
Accepted packet length average = 1
Total in-flight flits = 7 (0 measured)
latency change    = 0.0394754
throughput change = 0.0292326
Warmed up ...Time used is 3000 cycles
Class 0:
Packet latency average = 20.2092
	minimum = 7
	maximum = 75
Network latency average = 20.2092
	minimum = 7
	maximum = 75
Slowest packet = 45934
Flit latency average = 20.2063
	minimum = 7
	maximum = 75
Slowest flit = 45934
Fragmentation average = 0
	minimum = 0
	maximum = 0
Injected packet rate average = 0.0525
	minimum = 0.044 (at node 8)
	maximum = 0.061 (at node 13)
Accepted packet rate average = 0.0518125
	minimum = 0.042 (at node 3)
	maximum = 0.061 (at node 7)
Injected flit rate average = 0.0525
	minimum = 0.044 (at node 8)
	maximum = 0.061 (at node 13)
Accepted flit rate average= 0.0518125
	minimum = 0.042 (at node 3)
	maximum = 0.061 (at node 7)
Injected packet length average = 1
Accepted packet length average = 1
Total in-flight flits = 18 (18 measured)
latency change    = 0.0255674
throughput change = 0.00965018
Class 0:
Packet latency average = 20.2447
	minimum = 7
	maximum = 75
Network latency average = 20.2447
	minimum = 7
	maximum = 75
Slowest packet = 45934
Flit latency average = 20.243
	minimum = 7
	maximum = 75
Slowest flit = 45934
Fragmentation average = 0
	minimum = 0
	maximum = 0
Injected packet rate average = 0.0502187
	minimum = 0.0445 (at node 7)
	maximum = 0.056 (at node 6)
Accepted packet rate average = 0.0499062
	minimum = 0.0435 (at node 13)
	maximum = 0.0555 (at node 9)
Injected flit rate average = 0.0502187
	minimum = 0.0445 (at node 7)
	maximum = 0.056 (at node 6)
Accepted flit rate average= 0.0499062
	minimum = 0.0435 (at node 13)
	maximum = 0.0555 (at node 9)
Injected packet length average = 1
Accepted packet length average = 1
Total in-flight flits = 17 (17 measured)
latency change    = 0.00174902
throughput change = 0.0381966
Class 0:
Packet latency average = 20.3452
	minimum = 7
	maximum = 75
Network latency average = 20.3452
	minimum = 7
	maximum = 75
Slowest packet = 45934
Flit latency average = 20.3437
	minimum = 7
	maximum = 75
Slowest flit = 45934
Fragmentation average = 0
	minimum = 0
	maximum = 0
Injected packet rate average = 0.04975
	minimum = 0.0423333 (at node 8)
	maximum = 0.056 (at node 3)
Accepted packet rate average = 0.0494583
	minimum = 0.042 (at node 2)
	maximum = 0.056 (at node 12)
Injected flit rate average = 0.04975
	minimum = 0.0423333 (at node 8)
	maximum = 0.056 (at node 3)
Accepted flit rate average= 0.0494583
	minimum = 0.042 (at node 2)
	maximum = 0.056 (at node 12)
Injected packet length average = 1
Accepted packet length average = 1
Total in-flight flits = 21 (21 measured)
latency change    = 0.00494017
throughput change = 0.00905644
Draining all recorded packets ...
Draining remaining packets ...
Time taken is 6082 cycles
Class 0:
Packet latency average = 19.8201
	minimum = 7
	maximum = 53
Network latency average = 19.8201
	minimum = 7
	maximum = 53
Slowest packet = 47991
Flit latency average = 19.8201
	minimum = 7
	maximum = 53
Slowest flit = 47991
Fragmentation average = 0
	minimum = 0
	maximum = 0
Injected packet rate average = 0.046375
	minimum = 0.034 (at node 10)
	maximum = 0.065 (at node 9)
Accepted packet rate average = 0.0455
	minimum = 0.034 (at node 10)
	maximum = 0.065 (at node 6)
Injected flit rate average = 0.046375
	minimum = 0.034 (at node 10)
	maximum = 0.065 (at node 9)
Accepted flit rate average= 0.0455
	minimum = 0.034 (at node 10)
	maximum = 0.065 (at node 6)
Injected packet length average = 1
Accepted packet length average = 1
Total in-flight flits = 14 (0 measured)
latency change    = 1
throughput change = 1
Class 0:
Packet latency average = 19.8984
	minimum = 7
	maximum = 60
Network latency average = 19.8984
	minimum = 7
	maximum = 60
Slowest packet = 48970
Flit latency average = 19.8984
	minimum = 7
	maximum = 60
Slowest flit = 48970
Fragmentation average = 0
	minimum = 0
	maximum = 0
Injected packet rate average = 0.0486875
	minimum = 0.0375 (at node 13)
	maximum = 0.06 (at node 1)
Accepted packet rate average = 0.0483125
	minimum = 0.037 (at node 7)
	maximum = 0.0585 (at node 4)
Injected flit rate average = 0.0486875
	minimum = 0.0375 (at node 13)
	maximum = 0.06 (at node 1)
Accepted flit rate average= 0.0483125
	minimum = 0.037 (at node 7)
	maximum = 0.0585 (at node 4)
Injected packet length average = 1
Accepted packet length average = 1
Total in-flight flits = 12 (0 measured)
latency change    = 0.00393964
throughput change = 0.0582147
Class 0:
Packet latency average = 20.3933
	minimum = 7
	maximum = 61
Network latency average = 20.3933
	minimum = 7
	maximum = 61
Slowest packet = 49675
Flit latency average = 20.3933
	minimum = 7
	maximum = 61
Slowest flit = 49675
Fragmentation average = 0
	minimum = 0
	maximum = 0
Injected packet rate average = 0.050125
	minimum = 0.04 (at node 13)
	maximum = 0.06 (at node 6)
Accepted packet rate average = 0.0500625
	minimum = 0.039 (at node 7)
	maximum = 0.059 (at node 8)
Injected flit rate average = 0.050125
	minimum = 0.04 (at node 13)
	maximum = 0.06 (at node 6)
Accepted flit rate average= 0.0500625
	minimum = 0.039 (at node 7)
	maximum = 0.059 (at node 8)
Injected packet length average = 1
Accepted packet length average = 1
Total in-flight flits = 13 (0 measured)
latency change    = 0.0242635
throughput change = 0.0349563
Warmed up ...Time used is 3000 cycles
Class 0:
Packet latency average = 20.2896
	minimum = 7
	maximum = 65
Network latency average = 20.2896
	minimum = 7
	maximum = 65
Slowest packet = 50254
Flit latency average = 20.4238
	minimum = 7
	maximum = 65
Slowest flit = 50254
Fragmentation average = 0
	minimum = 0
	maximum = 0
Injected packet rate average = 0.0508125
	minimum = 0.04 (at node 6)
	maximum = 0.072 (at node 2)
Accepted packet rate average = 0.050875
	minimum = 0.041 (at node 9)
	maximum = 0.071 (at node 8)
Injected flit rate average = 0.0508125
	minimum = 0.04 (at node 6)
	maximum = 0.072 (at node 2)
Accepted flit rate average= 0.050875
	minimum = 0.041 (at node 9)
	maximum = 0.071 (at node 8)
Injected packet length average = 1
Accepted packet length average = 1
Total in-flight flits = 12 (12 measured)
latency change    = 0.00510706
throughput change = 0.0159705
Class 0:
Packet latency average = 20.4845
	minimum = 7
	maximum = 67
Network latency average = 20.4845
	minimum = 7
	maximum = 67
Slowest packet = 51230
Flit latency average = 20.5502
	minimum = 7
	maximum = 67
Slowest flit = 51230
Fragmentation average = 0
	minimum = 0
	maximum = 0
Injected packet rate average = 0.0508438
	minimum = 0.045 (at node 9)
	maximum = 0.0585 (at node 2)
Accepted packet rate average = 0.0507187
	minimum = 0.045 (at node 6)
	maximum = 0.059 (at node 8)
Injected flit rate average = 0.0508438
	minimum = 0.045 (at node 9)
	maximum = 0.0585 (at node 2)
Accepted flit rate average= 0.0507187
	minimum = 0.045 (at node 6)
	maximum = 0.059 (at node 8)
Injected packet length average = 1
Accepted packet length average = 1
Total in-flight flits = 17 (17 measured)
latency change    = 0.00951131
throughput change = 0.00308071
Class 0:
Packet latency average = 20.4795
	minimum = 7
	maximum = 67
Network latency average = 20.4791
	minimum = 7
	maximum = 67
Slowest packet = 51230
Flit latency average = 20.523
	minimum = 7
	maximum = 67
Slowest flit = 51230
Fragmentation average = 0
	minimum = 0
	maximum = 0
Injected packet rate average = 0.0506458
	minimum = 0.047 (at node 0)
	maximum = 0.0543333 (at node 4)
Accepted packet rate average = 0.050625
	minimum = 0.0466667 (at node 14)
	maximum = 0.0543333 (at node 1)
Injected flit rate average = 0.0506458
	minimum = 0.047 (at node 0)
	maximum = 0.0543333 (at node 4)
Accepted flit rate average= 0.050625
	minimum = 0.0466667 (at node 14)
	maximum = 0.0543333 (at node 1)
Injected packet length average = 1
Accepted packet length average = 1
Total in-flight flits = 14 (14 measured)
latency change    = 0.000241802
throughput change = 0.00185185
Draining all recorded packets ...
Draining remaining packets ...
Time taken is 6071 cycles
Class 0:
Packet latency average = 20.4308
	minimum = 7
	maximum = 73
Network latency average = 20.4308
	minimum = 7
	maximum = 73
Slowest packet = 52904
Flit latency average = 20.4308
	minimum = 7
	maximum = 73
Slowest flit = 52904
Fragmentation average = 0
	minimum = 0
	maximum = 0
Injected packet rate average = 0.052625
	minimum = 0.036 (at node 5)
	maximum = 0.064 (at node 9)
Accepted packet rate average = 0.0515
	minimum = 0.036 (at node 5)
	maximum = 0.063 (at node 6)
Injected flit rate average = 0.052625
	minimum = 0.036 (at node 5)
	maximum = 0.064 (at node 9)
Accepted flit rate average= 0.0515
	minimum = 0.036 (at node 5)
	maximum = 0.063 (at node 6)
Injected packet length average = 1
Accepted packet length average = 1
Total in-flight flits = 18 (0 measured)
latency change    = 1
throughput change = 1
Class 0:
Packet latency average = 20.3146
	minimum = 7
	maximum = 73
Network latency average = 20.3146
	minimum = 7
	maximum = 73
Slowest packet = 52904
Flit latency average = 20.3146
	minimum = 7
	maximum = 73
Slowest flit = 52904
Fragmentation average = 0
	minimum = 0
	maximum = 0
Injected packet rate average = 0.0511875
	minimum = 0.0415 (at node 5)
	maximum = 0.059 (at node 9)
Accepted packet rate average = 0.0506562
	minimum = 0.0415 (at node 5)
	maximum = 0.059 (at node 6)
Injected flit rate average = 0.0511875
	minimum = 0.0415 (at node 5)
	maximum = 0.059 (at node 9)
Accepted flit rate average= 0.0506562
	minimum = 0.0415 (at node 5)
	maximum = 0.059 (at node 6)
Injected packet length average = 1
Accepted packet length average = 1
Total in-flight flits = 17 (0 measured)
latency change    = 0.00572025
throughput change = 0.0166564
Class 0:
Packet latency average = 20.2699
	minimum = 7
	maximum = 72
Network latency average = 20.2699
	minimum = 7
	maximum = 72
Slowest packet = 54396
Flit latency average = 20.2699
	minimum = 7
	maximum = 72
Slowest flit = 54396
Fragmentation average = 0
	minimum = 0
	maximum = 0
Injected packet rate average = 0.049
	minimum = 0.039 (at node 13)
	maximum = 0.061 (at node 8)
Accepted packet rate average = 0.0495625
	minimum = 0.04 (at node 7)
	maximum = 0.062 (at node 2)
Injected flit rate average = 0.049
	minimum = 0.039 (at node 13)
	maximum = 0.061 (at node 8)
Accepted flit rate average= 0.0495625
	minimum = 0.04 (at node 7)
	maximum = 0.062 (at node 2)
Injected packet length average = 1
Accepted packet length average = 1
Total in-flight flits = 8 (0 measured)
latency change    = 0.00220817
throughput change = 0.0220681
Warmed up ...Time used is 3000 cycles
Class 0:
Packet latency average = 19.7765
	minimum = 7
	maximum = 69
Network latency average = 19.7765
	minimum = 7
	maximum = 69
Slowest packet = 55237
Flit latency average = 19.8146
	minimum = 7
	maximum = 69
Slowest flit = 55237
Fragmentation average = 0
	minimum = 0
	maximum = 0
Injected packet rate average = 0.051
	minimum = 0.035 (at node 8)
	maximum = 0.067 (at node 4)
Accepted packet rate average = 0.0505625
	minimum = 0.034 (at node 2)
	maximum = 0.068 (at node 1)
Injected flit rate average = 0.051
	minimum = 0.035 (at node 8)
	maximum = 0.067 (at node 4)
Accepted flit rate average= 0.0505625
	minimum = 0.034 (at node 2)
	maximum = 0.068 (at node 1)
Injected packet length average = 1
Accepted packet length average = 1
Total in-flight flits = 15 (15 measured)
latency change    = 0.0249453
throughput change = 0.0197775
Class 0:
Packet latency average = 20.1582
	minimum = 7
	maximum = 69
Network latency average = 20.1582
	minimum = 7
	maximum = 69
Slowest packet = 55237
Flit latency average = 20.1755
	minimum = 7
	maximum = 69
Slowest flit = 55237
Fragmentation average = 0
	minimum = 0
	maximum = 0
Injected packet rate average = 0.0501875
	minimum = 0.0355 (at node 8)
	maximum = 0.0655 (at node 4)
Accepted packet rate average = 0.0500312
	minimum = 0.0345 (at node 2)
	maximum = 0.0655 (at node 1)
Injected flit rate average = 0.0501875
	minimum = 0.0355 (at node 8)
	maximum = 0.0655 (at node 4)
Accepted flit rate average= 0.0500312
	minimum = 0.0345 (at node 2)
	maximum = 0.0655 (at node 1)
Injected packet length average = 1
Accepted packet length average = 1
Total in-flight flits = 13 (13 measured)
latency change    = 0.0189334
throughput change = 0.0106184
Class 0:
Packet latency average = 19.9552
	minimum = 7
	maximum = 69
Network latency average = 19.9552
	minimum = 7
	maximum = 69
Slowest packet = 55237
Flit latency average = 19.9674
	minimum = 7
	maximum = 69
Slowest flit = 55237
Fragmentation average = 0
	minimum = 0
	maximum = 0
Injected packet rate average = 0.0500625
	minimum = 0.039 (at node 13)
	maximum = 0.06 (at node 4)
Accepted packet rate average = 0.049875
	minimum = 0.038 (at node 7)
	maximum = 0.06 (at node 1)
Injected flit rate average = 0.0500625
	minimum = 0.039 (at node 13)
	maximum = 0.06 (at node 4)
Accepted flit rate average= 0.049875
	minimum = 0.038 (at node 7)
	maximum = 0.06 (at node 1)
Injected packet length average = 1
Accepted packet length average = 1
Total in-flight flits = 17 (17 measured)
latency change    = 0.0101747
throughput change = 0.00313283
Draining all recorded packets ...
Draining remaining packets ...
Time taken is 6069 cycles
Class 0:
Packet latency average = 20.4732
	minimum = 7
	maximum = 65
Network latency average = 20.4732
	minimum = 7
	maximum = 65
Slowest packet = 57685
Flit latency average = 20.4732
	minimum = 7
	maximum = 65
Slowest flit = 57685
Fragmentation average = 0
	minimum = 0
	maximum = 0
Injected packet rate average = 0.0511875
	minimum = 0.039 (at node 1)
	maximum = 0.07 (at node 3)
Accepted packet rate average = 0.0501875
	minimum = 0.038 (at node 4)
	maximum = 0.065 (at node 12)
Injected flit rate average = 0.0511875
	minimum = 0.039 (at node 1)
	maximum = 0.07 (at node 3)
Accepted flit rate average= 0.0501875
	minimum = 0.038 (at node 4)
	maximum = 0.065 (at node 12)
Injected packet length average = 1
Accepted packet length average = 1
Total in-flight flits = 16 (0 measured)
latency change    = 1
throughput change = 1
Class 0:
Packet latency average = 20.0512
	minimum = 7
	maximum = 65
Network latency average = 20.0512
	minimum = 7
	maximum = 65
Slowest packet = 57685
Flit latency average = 20.0512
	minimum = 7
	maximum = 65
Slowest flit = 57685
Fragmentation average = 0
	minimum = 0
	maximum = 0
Injected packet rate average = 0.0499375
	minimum = 0.0425 (at node 14)
	maximum = 0.064 (at node 15)
Accepted packet rate average = 0.0494375
	minimum = 0.0425 (at node 11)
	maximum = 0.064 (at node 15)
Injected flit rate average = 0.0499375
	minimum = 0.0425 (at node 14)
	maximum = 0.064 (at node 15)
Accepted flit rate average= 0.0494375
	minimum = 0.0425 (at node 11)
	maximum = 0.064 (at node 15)
Injected packet length average = 1
Accepted packet length average = 1
Total in-flight flits = 16 (0 measured)
latency change    = 0.0210473
throughput change = 0.0151707
Class 0:
Packet latency average = 20.2424
	minimum = 7
	maximum = 76
Network latency average = 20.2424
	minimum = 7
	maximum = 76
Slowest packet = 59292
Flit latency average = 20.2424
	minimum = 7
	maximum = 76
Slowest flit = 59292
Fragmentation average = 0
	minimum = 0
	maximum = 0
Injected packet rate average = 0.0515625
	minimum = 0.039 (at node 4)
	maximum = 0.06 (at node 11)
Accepted packet rate average = 0.0515625
	minimum = 0.039 (at node 9)
	maximum = 0.06 (at node 14)
Injected flit rate average = 0.0515625
	minimum = 0.039 (at node 4)
	maximum = 0.06 (at node 11)
Accepted flit rate average= 0.0515625
	minimum = 0.039 (at node 9)
	maximum = 0.06 (at node 14)
Injected packet length average = 1
Accepted packet length average = 1
Total in-flight flits = 16 (0 measured)
latency change    = 0.00944666
throughput change = 0.0412121
Warmed up ...Time used is 3000 cycles
Class 0:
Packet latency average = 21.0443
	minimum = 7
	maximum = 68
Network latency average = 21.0443
	minimum = 7
	maximum = 68
Slowest packet = 60224
Flit latency average = 21.1616
	minimum = 7
	maximum = 68
Slowest flit = 60224
Fragmentation average = 0
	minimum = 0
	maximum = 0
Injected packet rate average = 0.0516875
	minimum = 0.037 (at node 2)
	maximum = 0.07 (at node 12)
Accepted packet rate average = 0.0518125
	minimum = 0.036 (at node 8)
	maximum = 0.07 (at node 3)
Injected flit rate average = 0.0516875
	minimum = 0.037 (at node 2)
	maximum = 0.07 (at node 12)
Accepted flit rate average= 0.0518125
	minimum = 0.036 (at node 8)
	maximum = 0.07 (at node 3)
Injected packet length average = 1
Accepted packet length average = 1
Total in-flight flits = 14 (14 measured)
latency change    = 0.0381033
throughput change = 0.00482509
Class 0:
Packet latency average = 20.4797
	minimum = 7
	maximum = 68
Network latency average = 20.4797
	minimum = 7
	maximum = 68
Slowest packet = 60224
Flit latency average = 20.5454
	minimum = 7
	maximum = 68
Slowest flit = 60224
Fragmentation average = 0
	minimum = 0
	maximum = 0
Injected packet rate average = 0.0505312
	minimum = 0.041 (at node 10)
	maximum = 0.0595 (at node 12)
Accepted packet rate average = 0.0505937
	minimum = 0.0415 (at node 10)
	maximum = 0.0605 (at node 3)
Injected flit rate average = 0.0505312
	minimum = 0.041 (at node 10)
	maximum = 0.0595 (at node 12)
Accepted flit rate average= 0.0505937
	minimum = 0.0415 (at node 10)
	maximum = 0.0605 (at node 3)
Injected packet length average = 1
Accepted packet length average = 1
Total in-flight flits = 14 (14 measured)
latency change    = 0.0275665
throughput change = 0.0240889
Class 0:
Packet latency average = 20.349
	minimum = 7
	maximum = 68
Network latency average = 20.349
	minimum = 7
	maximum = 68
Slowest packet = 60224
Flit latency average = 20.3934
	minimum = 7
	maximum = 68
Slowest flit = 60224
Fragmentation average = 0
	minimum = 0
	maximum = 0
Injected packet rate average = 0.050875
	minimum = 0.0446667 (at node 15)
	maximum = 0.057 (at node 0)
Accepted packet rate average = 0.0508333
	minimum = 0.0446667 (at node 15)
	maximum = 0.057 (at node 0)
Injected flit rate average = 0.050875
	minimum = 0.0446667 (at node 15)
	maximum = 0.057 (at node 0)
Accepted flit rate average= 0.0508333
	minimum = 0.0446667 (at node 15)
	maximum = 0.057 (at node 0)
Injected packet length average = 1
Accepted packet length average = 1
Total in-flight flits = 18 (18 measured)
latency change    = 0.00642368
throughput change = 0.00471311
Draining all recorded packets ...
Draining remaining packets ...
Time taken is 6073 cycles
Class 0:
Packet latency average = 20.4304
	minimum = 7
	maximum = 72
Network latency average = 20.4304
	minimum = 7
	maximum = 72
Slowest packet = 62225
Flit latency average = 20.4304
	minimum = 7
	maximum = 72
Slowest flit = 62225
Fragmentation average = 0
	minimum = 0
	maximum = 0
Injected packet rate average = 0.0504375
	minimum = 0.043 (at node 3)
	maximum = 0.065 (at node 1)
Accepted packet rate average = 0.0498125
	minimum = 0.043 (at node 11)
	maximum = 0.065 (at node 4)
Injected flit rate average = 0.0504375
	minimum = 0.043 (at node 3)
	maximum = 0.065 (at node 1)
Accepted flit rate average= 0.0498125
	minimum = 0.043 (at node 11)
	maximum = 0.065 (at node 4)
Injected packet length average = 1
Accepted packet length average = 1
Total in-flight flits = 10 (0 measured)
latency change    = 1
throughput change = 1
Class 0:
Packet latency average = 20.5774
	minimum = 7
	maximum = 79
Network latency average = 20.5774
	minimum = 7
	maximum = 79
Slowest packet = 63241
Flit latency average = 20.5774
	minimum = 7
	maximum = 79
Slowest flit = 63241
Fragmentation average = 0
	minimum = 0
	maximum = 0
Injected packet rate average = 0.0492812
	minimum = 0.043 (at node 7)
	maximum = 0.058 (at node 12)
Accepted packet rate average = 0.0486562
	minimum = 0.042 (at node 13)
	maximum = 0.057 (at node 3)
Injected flit rate average = 0.0492812
	minimum = 0.043 (at node 7)
	maximum = 0.058 (at node 12)
Accepted flit rate average= 0.0486562
	minimum = 0.042 (at node 13)
	maximum = 0.057 (at node 3)
Injected packet length average = 1
Accepted packet length average = 1
Total in-flight flits = 20 (0 measured)
latency change    = 0.00714515
throughput change = 0.0237636
Class 0:
Packet latency average = 20.8707
	minimum = 7
	maximum = 77
Network latency average = 20.8707
	minimum = 7
	maximum = 77
Slowest packet = 64275
Flit latency average = 20.8707
	minimum = 7
	maximum = 77
Slowest flit = 64275
Fragmentation average = 0
	minimum = 0
	maximum = 0
Injected packet rate average = 0.0493125
	minimum = 0.036 (at node 4)
	maximum = 0.061 (at node 6)
Accepted packet rate average = 0.0493125
	minimum = 0.036 (at node 1)
	maximum = 0.061 (at node 9)
Injected flit rate average = 0.0493125
	minimum = 0.036 (at node 4)
	maximum = 0.061 (at node 6)
Accepted flit rate average= 0.0493125
	minimum = 0.036 (at node 1)
	maximum = 0.061 (at node 9)
Injected packet length average = 1
Accepted packet length average = 1
Total in-flight flits = 20 (0 measured)
latency change    = 0.0140546
throughput change = 0.013308
Warmed up ...Time used is 3000 cycles
Class 0:
Packet latency average = 20.5508
	minimum = 7
	maximum = 67
Network latency average = 20.5508
	minimum = 7
	maximum = 67
Slowest packet = 64714
Flit latency average = 20.6365
	minimum = 7
	maximum = 67
Slowest flit = 64714
Fragmentation average = 0
	minimum = 0
	maximum = 0
Injected packet rate average = 0.051375
	minimum = 0.038 (at node 11)
	maximum = 0.069 (at node 12)
Accepted packet rate average = 0.0510625
	minimum = 0.037 (at node 14)
	maximum = 0.065 (at node 3)
Injected flit rate average = 0.051375
	minimum = 0.038 (at node 11)
	maximum = 0.069 (at node 12)
Accepted flit rate average= 0.0510625
	minimum = 0.037 (at node 14)
	maximum = 0.065 (at node 3)
Injected packet length average = 1
Accepted packet length average = 1
Total in-flight flits = 25 (25 measured)
latency change    = 0.0155666
throughput change = 0.0342717
Class 0:
Packet latency average = 20.3882
	minimum = 7
	maximum = 75
Network latency average = 20.3882
	minimum = 7
	maximum = 75
Slowest packet = 65376
Flit latency average = 20.4327
	minimum = 7
	maximum = 75
Slowest flit = 65376
Fragmentation average = 0
	minimum = 0
	maximum = 0
Injected packet rate average = 0.0511563
	minimum = 0.043 (at node 10)
	maximum = 0.058 (at node 15)
Accepted packet rate average = 0.0513438
	minimum = 0.0425 (at node 10)
	maximum = 0.0585 (at node 4)
Injected flit rate average = 0.0511563
	minimum = 0.043 (at node 10)
	maximum = 0.058 (at node 15)
Accepted flit rate average= 0.0513438
	minimum = 0.0425 (at node 10)
	maximum = 0.0585 (at node 4)
Injected packet length average = 1
Accepted packet length average = 1
Total in-flight flits = 14 (14 measured)
latency change    = 0.00797744
throughput change = 0.00547778
Class 0:
Packet latency average = 20.3512
	minimum = 7
	maximum = 75
Network latency average = 20.3512
	minimum = 7
	maximum = 75
Slowest packet = 65376
Flit latency average = 20.3814
	minimum = 7
	maximum = 75
Slowest flit = 65376
Fragmentation average = 0
	minimum = 0
	maximum = 0
Injected packet rate average = 0.0508958
	minimum = 0.0446667 (at node 10)
	maximum = 0.058 (at node 1)
Accepted packet rate average = 0.0509583
	minimum = 0.0446667 (at node 10)
	maximum = 0.0583333 (at node 4)
Injected flit rate average = 0.0508958
	minimum = 0.0446667 (at node 10)
	maximum = 0.058 (at node 1)
Accepted flit rate average= 0.0509583
	minimum = 0.0446667 (at node 10)
	maximum = 0.0583333 (at node 4)
Injected packet length average = 1
Accepted packet length average = 1
Total in-flight flits = 17 (17 measured)
latency change    = 0.00181683
throughput change = 0.00756337
Draining all recorded packets ...
Draining remaining packets ...
Time taken is 6070 cycles
Class 0:
Packet latency average = 20.0666
	minimum = 7
	maximum = 57
Network latency average = 20.0666
	minimum = 7
	maximum = 57
Slowest packet = 67059
Flit latency average = 20.0666
	minimum = 7
	maximum = 57
Slowest flit = 67059
Fragmentation average = 0
	minimum = 0
	maximum = 0
Injected packet rate average = 0.051375
	minimum = 0.034 (at node 12)
	maximum = 0.062 (at node 2)
Accepted packet rate average = 0.0506875
	minimum = 0.033 (at node 3)
	maximum = 0.06 (at node 8)
Injected flit rate average = 0.051375
	minimum = 0.034 (at node 12)
	maximum = 0.062 (at node 2)
Accepted flit rate average= 0.0506875
	minimum = 0.033 (at node 3)
	maximum = 0.06 (at node 8)
Injected packet length average = 1
Accepted packet length average = 1
Total in-flight flits = 11 (0 measured)
latency change    = 1
throughput change = 1
Class 0:
Packet latency average = 19.7631
	minimum = 7
	maximum = 58
Network latency average = 19.7631
	minimum = 7
	maximum = 58
Slowest packet = 68271
Flit latency average = 19.7631
	minimum = 7
	maximum = 58
Slowest flit = 68271
Fragmentation average = 0
	minimum = 0
	maximum = 0
Injected packet rate average = 0.0524688
	minimum = 0.04 (at node 12)
	maximum = 0.058 (at node 1)
Accepted packet rate average = 0.0519688
	minimum = 0.0395 (at node 3)
	maximum = 0.0575 (at node 4)
Injected flit rate average = 0.0524688
	minimum = 0.04 (at node 12)
	maximum = 0.058 (at node 1)
Accepted flit rate average= 0.0519688
	minimum = 0.0395 (at node 3)
	maximum = 0.0575 (at node 4)
Injected packet length average = 1
Accepted packet length average = 1
Total in-flight flits = 16 (0 measured)
latency change    = 0.0153572
throughput change = 0.0246542
Class 0:
Packet latency average = 20.6767
	minimum = 7
	maximum = 61
Network latency average = 20.6767
	minimum = 7
	maximum = 61
Slowest packet = 68886
Flit latency average = 20.6767
	minimum = 7
	maximum = 61
Slowest flit = 68886
Fragmentation average = 0
	minimum = 0
	maximum = 0
Injected packet rate average = 0.0479375
	minimum = 0.037 (at node 1)
	maximum = 0.063 (at node 3)
Accepted packet rate average = 0.0479375
	minimum = 0.037 (at node 4)
	maximum = 0.061 (at node 12)
Injected flit rate average = 0.0479375
	minimum = 0.037 (at node 1)
	maximum = 0.063 (at node 3)
Accepted flit rate average= 0.0479375
	minimum = 0.037 (at node 4)
	maximum = 0.061 (at node 12)
Injected packet length average = 1
Accepted packet length average = 1
Total in-flight flits = 16 (0 measured)
latency change    = 0.0441843
throughput change = 0.0840939
Warmed up ...Time used is 3000 cycles
Class 0:
Packet latency average = 19.5531
	minimum = 7
	maximum = 58
Network latency average = 19.5531
	minimum = 7
	maximum = 58
Slowest packet = 69635
Flit latency average = 19.6713
	minimum = 7
	maximum = 58
Slowest flit = 69635
Fragmentation average = 0
	minimum = 0
	maximum = 0
Injected packet rate average = 0.0503125
	minimum = 0.04 (at node 2)
	maximum = 0.063 (at node 14)
Accepted packet rate average = 0.0498125
	minimum = 0.036 (at node 8)
	maximum = 0.064 (at node 11)
Injected flit rate average = 0.0503125
	minimum = 0.04 (at node 2)
	maximum = 0.063 (at node 14)
Accepted flit rate average= 0.0498125
	minimum = 0.036 (at node 8)
	maximum = 0.064 (at node 11)
Injected packet length average = 1
Accepted packet length average = 1
Total in-flight flits = 24 (24 measured)
latency change    = 0.0574601
throughput change = 0.0376412
Class 0:
Packet latency average = 19.9
	minimum = 7
	maximum = 58
Network latency average = 19.9
	minimum = 7
	maximum = 58
Slowest packet = 69635
Flit latency average = 19.9559
	minimum = 7
	maximum = 58
Slowest flit = 69635
Fragmentation average = 0
	minimum = 0
	maximum = 0
Injected packet rate average = 0.0495312
	minimum = 0.0425 (at node 2)
	maximum = 0.0615 (at node 1)
Accepted packet rate average = 0.0495625
	minimum = 0.042 (at node 8)
	maximum = 0.062 (at node 4)
Injected flit rate average = 0.0495312
	minimum = 0.0425 (at node 2)
	maximum = 0.0615 (at node 1)
Accepted flit rate average= 0.0495625
	minimum = 0.042 (at node 8)
	maximum = 0.062 (at node 4)
Injected packet length average = 1
Accepted packet length average = 1
Total in-flight flits = 15 (15 measured)
latency change    = 0.0174303
throughput change = 0.00504414
Class 0:
Packet latency average = 20.0593
	minimum = 7
	maximum = 58
Network latency average = 20.0593
	minimum = 7
	maximum = 58
Slowest packet = 69635
Flit latency average = 20.0953
	minimum = 7
	maximum = 58
Slowest flit = 69635
Fragmentation average = 0
	minimum = 0
	maximum = 0
Injected packet rate average = 0.04975
	minimum = 0.0433333 (at node 8)
	maximum = 0.059 (at node 1)
Accepted packet rate average = 0.0498542
	minimum = 0.044 (at node 2)
	maximum = 0.0593333 (at node 4)
Injected flit rate average = 0.04975
	minimum = 0.0433333 (at node 8)
	maximum = 0.059 (at node 1)
Accepted flit rate average= 0.0498542
	minimum = 0.044 (at node 2)
	maximum = 0.0593333 (at node 4)
Injected packet length average = 1
Accepted packet length average = 1
Total in-flight flits = 11 (11 measured)
latency change    = 0.00794237
throughput change = 0.0058504
Class 0:
Packet latency average = 20.0938
	minimum = 7
	maximum = 65
Network latency average = 20.0938
	minimum = 7
	maximum = 65
Slowest packet = 71948
Flit latency average = 20.1206
	minimum = 7
	maximum = 65
Slowest flit = 71948
Fragmentation average = 0
	minimum = 0
	maximum = 0
Injected packet rate average = 0.0498437
	minimum = 0.0445 (at node 9)
	maximum = 0.058 (at node 1)
Accepted packet rate average = 0.049875
	minimum = 0.045 (at node 6)
	maximum = 0.058 (at node 4)
Injected flit rate average = 0.0498437
	minimum = 0.0445 (at node 9)
	maximum = 0.058 (at node 1)
Accepted flit rate average= 0.049875
	minimum = 0.045 (at node 6)
	maximum = 0.058 (at node 4)
Injected packet length average = 1
Accepted packet length average = 1
Total in-flight flits = 14 (14 measured)
latency change    = 0.00171746
throughput change = 0.000417711
Draining all recorded packets ...
Draining remaining packets ...
Time taken is 7056 cycles
Class 0:
Packet latency average = 19.7406
	minimum = 7
	maximum = 60
Network latency average = 19.7406
	minimum = 7
	maximum = 60
Slowest packet = 72848
Flit latency average = 19.7406
	minimum = 7
	maximum = 60
Slowest flit = 72848
Fragmentation average = 0
	minimum = 0
	maximum = 0
Injected packet rate average = 0.0475
	minimum = 0.039 (at node 14)
	maximum = 0.056 (at node 15)
Accepted packet rate average = 0.0465
	minimum = 0.038 (at node 11)
	maximum = 0.056 (at node 15)
Injected flit rate average = 0.0475
	minimum = 0.039 (at node 14)
	maximum = 0.056 (at node 15)
Accepted flit rate average= 0.0465
	minimum = 0.038 (at node 11)
	maximum = 0.056 (at node 15)
Injected packet length average = 1
Accepted packet length average = 1
Total in-flight flits = 16 (0 measured)
latency change    = 1
throughput change = 1
Class 0:
Packet latency average = 20.084
	minimum = 7
	maximum = 60
Network latency average = 20.084
	minimum = 7
	maximum = 60
Slowest packet = 72848
Flit latency average = 20.084
	minimum = 7
	maximum = 60
Slowest flit = 72848
Fragmentation average = 0
	minimum = 0
	maximum = 0
Injected packet rate average = 0.0493125
	minimum = 0.0425 (at node 8)
	maximum = 0.056 (at node 12)
Accepted packet rate average = 0.0487187
	minimum = 0.042 (at node 2)
	maximum = 0.054 (at node 3)
Injected flit rate average = 0.0493125
	minimum = 0.0425 (at node 8)
[...]
	minimum = 0.042 (at node 11)
	maximum = 0.057 (at node 15)
Accepted packet rate average = 0.051
	minimum = 0.0425 (at node 14)
	maximum = 0.0575 (at node 15)
Injected flit rate average = 0.05075
	minimum = 0.042 (at node 11)
	maximum = 0.057 (at node 15)
Accepted flit rate average= 0.051
	minimum = 0.0425 (at node 14)
	maximum = 0.0575 (at node 15)
Injected packet length average = 1
Accepted packet length average = 1
Total in-flight flits = 14 (14 measured)
latency change    = 0.000793599
throughput change = 0.0306373
Class 0:
Packet latency average = 20.0224
	minimum = 7
	maximum = 89
Network latency average = 20.0224
	minimum = 7
	maximum = 89
Slowest packet = 494057
Flit latency average = 20.0498
	minimum = 7
	maximum = 89
Slowest flit = 494057
Fragmentation average = 0
	minimum = 0
	maximum = 0
Injected packet rate average = 0.0503958
	minimum = 0.045 (at node 7)
	maximum = 0.056 (at node 6)
Accepted packet rate average = 0.0506042
	minimum = 0.046 (at node 13)
	maximum = 0.0563333 (at node 9)
Injected flit rate average = 0.0503958
	minimum = 0.045 (at node 7)
	maximum = 0.056 (at node 6)
Accepted flit rate average= 0.0506042
	minimum = 0.046 (at node 13)
	maximum = 0.0563333 (at node 9)
Injected packet length average = 1
Accepted packet length average = 1
Total in-flight flits = 12 (12 measured)
latency change    = 0.00673529
throughput change = 0.00782215
Draining all recorded packets ...
Draining remaining packets ...
Time taken is 6069 cycles
Class 0:
Packet latency average = 20.8295
	minimum = 7
	maximum = 65
Network latency average = 20.8295
	minimum = 7
	maximum = 65
Slowest packet = 495713
Flit latency average = 20.8295
	minimum = 7
	maximum = 65
Slowest flit = 495713
Fragmentation average = 0
	minimum = 0
	maximum = 0
Injected packet rate average = 0.050125
	minimum = 0.041 (at node 5)
	maximum = 0.062 (at node 9)
Accepted packet rate average = 0.04875
	minimum = 0.04 (at node 5)
	maximum = 0.059 (at node 6)
Injected flit rate average = 0.050125
	minimum = 0.041 (at node 5)
	maximum = 0.062 (at node 9)
Accepted flit rate average= 0.04875
	minimum = 0.04 (at node 5)
	maximum = 0.059 (at node 6)
Injected packet length average = 1
Accepted packet length average = 1
Total in-flight flits = 22 (0 measured)
latency change    = 1
throughput change = 1
Class 0:
Packet latency average = 20.7957
	minimum = 7
	maximum = 73
Network latency average = 20.7957
	minimum = 7
	maximum = 73
Slowest packet = 496530
Flit latency average = 20.7957
	minimum = 7
	maximum = 73
Slowest flit = 496530
Fragmentation average = 0
	minimum = 0
	maximum = 0
Injected packet rate average = 0.0495625
	minimum = 0.0415 (at node 10)
	maximum = 0.06 (at node 12)
Accepted packet rate average = 0.0489375
	minimum = 0.0415 (at node 10)
	maximum = 0.059 (at node 3)
Injected flit rate average = 0.0495625
	minimum = 0.0415 (at node 10)
	maximum = 0.06 (at node 12)
Accepted flit rate average= 0.0489375
	minimum = 0.0415 (at node 10)
	maximum = 0.059 (at node 3)
Injected packet length average = 1
Accepted packet length average = 1
Total in-flight flits = 20 (0 measured)
latency change    = 0.00162676
throughput change = 0.00383142
Class 0:
Packet latency average = 20.1749
	minimum = 7
	maximum = 75
Network latency average = 20.1749
	minimum = 7
	maximum = 75
Slowest packet = 497734
Flit latency average = 20.1749
	minimum = 7
	maximum = 75
Slowest flit = 497734
Fragmentation average = 0
	minimum = 0
	maximum = 0
Injected packet rate average = 0.052
	minimum = 0.043 (at node 9)
	maximum = 0.065 (at node 14)
Accepted packet rate average = 0.0521875
	minimum = 0.044 (at node 6)
	maximum = 0.067 (at node 11)
Injected flit rate average = 0.052
	minimum = 0.043 (at node 9)
	maximum = 0.065 (at node 14)
Accepted flit rate average= 0.0521875
	minimum = 0.044 (at node 6)
	maximum = 0.067 (at node 11)
Injected packet length average = 1
Accepted packet length average = 1
Total in-flight flits = 17 (0 measured)
latency change    = 0.0307714
throughput change = 0.0622754
Warmed up ...Time used is 3000 cycles
Class 0:
Packet latency average = 20.3412
	minimum = 7
	maximum = 69
Network latency average = 20.3412
	minimum = 7
	maximum = 69
Slowest packet = 498585
Flit latency average = 20.4233
	minimum = 7
	maximum = 69
Slowest flit = 498585
Fragmentation average = 0
	minimum = 0
	maximum = 0
Injected packet rate average = 0.049
	minimum = 0.039 (at node 3)
	maximum = 0.064 (at node 7)
Accepted packet rate average = 0.048875
	minimum = 0.038 (at node 6)
	maximum = 0.061 (at node 8)
Injected flit rate average = 0.049
	minimum = 0.039 (at node 3)
	maximum = 0.064 (at node 7)
Accepted flit rate average= 0.048875
	minimum = 0.038 (at node 6)
	maximum = 0.061 (at node 8)
Injected packet length average = 1
Accepted packet length average = 1
Total in-flight flits = 19 (19 measured)
latency change    = 0.00817682
throughput change = 0.0677749
Class 0:
Packet latency average = 20.5939
	minimum = 7
	maximum = 69
Network latency average = 20.5939
	minimum = 7
	maximum = 69
Slowest packet = 498585
Flit latency average = 20.6313
	minimum = 7
	maximum = 69
Slowest flit = 498585
Fragmentation average = 0
	minimum = 0
	maximum = 0
Injected packet rate average = 0.0499062
	minimum = 0.0435 (at node 9)
	maximum = 0.059 (at node 7)
Accepted packet rate average = 0.0500937
	minimum = 0.0435 (at node 6)
	maximum = 0.059 (at node 13)
Injected flit rate average = 0.0499062
	minimum = 0.0435 (at node 9)
	maximum = 0.059 (at node 7)
Accepted flit rate average= 0.0500937
	minimum = 0.0435 (at node 6)
	maximum = 0.059 (at node 13)
Injected packet length average = 1
Accepted packet length average = 1
Total in-flight flits = 11 (11 measured)
latency change    = 0.012274
throughput change = 0.0243294
Class 0:
Packet latency average = 20.3884
	minimum = 7
	maximum = 69
Network latency average = 20.3884
	minimum = 7
	maximum = 69
Slowest packet = 498585
Flit latency average = 20.4151
	minimum = 7
	maximum = 69
Slowest flit = 498585
Fragmentation average = 0
	minimum = 0
	maximum = 0
Injected packet rate average = 0.0493958
	minimum = 0.0426667 (at node 15)
	maximum = 0.054 (at node 6)
Accepted packet rate average = 0.0494375
	minimum = 0.0426667 (at node 15)
	maximum = 0.0543333 (at node 9)
Injected flit rate average = 0.0493958
	minimum = 0.0426667 (at node 15)
	maximum = 0.054 (at node 6)
Accepted flit rate average= 0.0494375
	minimum = 0.0426667 (at node 15)
	maximum = 0.0543333 (at node 9)
Injected packet length average = 1
Accepted packet length average = 1
Total in-flight flits = 15 (15 measured)
latency change    = 0.010083
throughput change = 0.0132743
Class 0:
Packet latency average = 20.4973
	minimum = 7
	maximum = 82
Network latency average = 20.4973
	minimum = 7
	maximum = 82
Slowest packet = 500667
Flit latency average = 20.5166
	minimum = 7
	maximum = 82
Slowest flit = 500667
Fragmentation average = 0
	minimum = 0
	maximum = 0
Injected packet rate average = 0.0497969
	minimum = 0.043 (at node 15)
	maximum = 0.054 (at node 2)
Accepted packet rate average = 0.0498437
	minimum = 0.043 (at node 15)
	maximum = 0.05425 (at node 8)
Injected flit rate average = 0.0497969
	minimum = 0.043 (at node 15)
	maximum = 0.054 (at node 2)
Accepted flit rate average= 0.0498437
	minimum = 0.043 (at node 15)
	maximum = 0.05425 (at node 8)
Injected packet length average = 1
Accepted packet length average = 1
Total in-flight flits = 14 (14 measured)
latency change    = 0.00531538
throughput change = 0.00815047
Draining all recorded packets ...
Draining remaining packets ...
Time taken is 7064 cycles
Class 0:
Packet latency average = 19.6162
	minimum = 7
	maximum = 67
Network latency average = 19.6149
	minimum = 7
	maximum = 67
Slowest packet = 501783
Flit latency average = 19.6149
	minimum = 7
	maximum = 67
Slowest flit = 501783
Fragmentation average = 0
	minimum = 0
	maximum = 0
Injected packet rate average = 0.0498125
	minimum = 0.041 (at node 6)
	maximum = 0.061 (at node 14)
Accepted packet rate average = 0.0486875
	minimum = 0.04 (at node 7)
	maximum = 0.061 (at node 11)
Injected flit rate average = 0.0498125
	minimum = 0.041 (at node 6)
	maximum = 0.061 (at node 14)
Accepted flit rate average= 0.0486875
	minimum = 0.04 (at node 7)
	maximum = 0.061 (at node 11)
Injected packet length average = 1
Accepted packet length average = 1
Total in-flight flits = 18 (0 measured)
latency change    = 1
throughput change = 1
Class 0:
Packet latency average = 20.1748
	minimum = 7
	maximum = 76
Network latency average = 20.1741
	minimum = 7
	maximum = 76
Slowest packet = 502554
Flit latency average = 20.1741
	minimum = 7
	maximum = 76
Slowest flit = 502554
Fragmentation average = 0
	minimum = 0
	maximum = 0
Injected packet rate average = 0.0484687
	minimum = 0.043 (at node 6)
	maximum = 0.0545 (at node 5)
Accepted packet rate average = 0.0480937
	minimum = 0.0425 (at node 9)
	maximum = 0.0545 (at node 5)
Injected flit rate average = 0.0484687
	minimum = 0.043 (at node 6)
	maximum = 0.0545 (at node 5)
Accepted flit rate average= 0.0480937
	minimum = 0.0425 (at node 9)
	maximum = 0.0545 (at node 5)
Injected packet length average = 1
Accepted packet length average = 1
Total in-flight flits = 12 (0 measured)
latency change    = 0.0276887
throughput change = 0.0123457
Class 0:
Packet latency average = 20.5378
	minimum = 7
	maximum = 67
Network latency average = 20.5378
	minimum = 7
	maximum = 67
Slowest packet = 503126
Flit latency average = 20.5378
	minimum = 7
	maximum = 67
Slowest flit = 503126
Fragmentation average = 0
	minimum = 0
	maximum = 0
Injected packet rate average = 0.0493125
	minimum = 0.041 (at node 5)
	maximum = 0.061 (at node 3)
Accepted packet rate average = 0.0488125
	minimum = 0.041 (at node 5)
	maximum = 0.06 (at node 4)
Injected flit rate average = 0.0493125
	minimum = 0.041 (at node 5)
	maximum = 0.061 (at node 3)
Accepted flit rate average= 0.0488125
	minimum = 0.041 (at node 5)
	maximum = 0.06 (at node 4)
Injected packet length average = 1
Accepted packet length average = 1
Total in-flight flits = 20 (0 measured)
latency change    = 0.0176739
throughput change = 0.0147247
Warmed up ...Time used is 3000 cycles
Class 0:
Packet latency average = 20.2532
	minimum = 7
	maximum = 62
Network latency average = 20.2532
	minimum = 7
	maximum = 62
Slowest packet = 503958
Flit latency average = 20.399
	minimum = 7
	maximum = 62
Slowest flit = 503958
Fragmentation average = 0
	minimum = 0
	maximum = 0
Injected packet rate average = 0.049875
	minimum = 0.037 (at node 7)
	maximum = 0.066 (at node 13)
Accepted packet rate average = 0.050125
	minimum = 0.036 (at node 13)
	maximum = 0.069 (at node 7)
Injected flit rate average = 0.049875
	minimum = 0.037 (at node 7)
	maximum = 0.066 (at node 13)
Accepted flit rate average= 0.050125
	minimum = 0.036 (at node 13)
	maximum = 0.069 (at node 7)
Injected packet length average = 1
Accepted packet length average = 1
Total in-flight flits = 16 (16 measured)
latency change    = 0.0140509
throughput change = 0.0261845
Class 0:
Packet latency average = 20.1514
	minimum = 7
	maximum = 62
Network latency average = 20.1514
	minimum = 7
	maximum = 62
Slowest packet = 503958
Flit latency average = 20.2267
	minimum = 7
	maximum = 62
Slowest flit = 503958
Fragmentation average = 0
	minimum = 0
	maximum = 0
Injected packet rate average = 0.0489375
	minimum = 0.04 (at node 7)
	maximum = 0.056 (at node 12)
Accepted packet rate average = 0.0493437
	minimum = 0.04 (at node 13)
	maximum = 0.056 (at node 3)
Injected flit rate average = 0.0489375
	minimum = 0.04 (at node 7)
	maximum = 0.056 (at node 12)
Accepted flit rate average= 0.0493437
	minimum = 0.04 (at node 13)
	maximum = 0.056 (at node 3)
Injected packet length average = 1
Accepted packet length average = 1
Total in-flight flits = 7 (7 measured)
latency change    = 0.00505265
throughput change = 0.0158328
Class 0:
Packet latency average = 19.8714
	minimum = 7
	maximum = 62
Network latency average = 19.8714
	minimum = 7
	maximum = 62
Slowest packet = 503958
Flit latency average = 19.9233
	minimum = 7
	maximum = 62
Slowest flit = 503958
Fragmentation average = 0
	minimum = 0
	maximum = 0
Injected packet rate average = 0.049875
	minimum = 0.0426667 (at node 6)
	maximum = 0.0563333 (at node 14)
Accepted packet rate average = 0.0499792
	minimum = 0.043 (at node 9)
	maximum = 0.0566667 (at node 11)
Injected flit rate average = 0.049875
	minimum = 0.0426667 (at node 6)
	maximum = 0.0563333 (at node 14)
Accepted flit rate average= 0.0499792
	minimum = 0.043 (at node 9)
	maximum = 0.0566667 (at node 11)
Injected packet length average = 1
Accepted packet length average = 1
Total in-flight flits = 15 (15 measured)
latency change    = 0.0140909
throughput change = 0.0127136
Draining all recorded packets ...
Draining remaining packets ...
Time taken is 6072 cycles
Class 0:
Packet latency average = 19.6284
	minimum = 7
	maximum = 65
Network latency average = 19.6284
	minimum = 7
	maximum = 65
Slowest packet = 506117
Flit latency average = 19.6284
	minimum = 7
	maximum = 65
Slowest flit = 506117
Fragmentation average = 0
	minimum = 0
	maximum = 0
Injected packet rate average = 0.0501875
	minimum = 0.038 (at node 13)
	maximum = 0.067 (at node 5)
Accepted packet rate average = 0.0489375
	minimum = 0.037 (at node 7)
	maximum = 0.066 (at node 5)
Injected flit rate average = 0.0501875
	minimum = 0.038 (at node 13)
	maximum = 0.067 (at node 5)
Accepted flit rate average= 0.0489375
	minimum = 0.037 (at node 7)
	maximum = 0.066 (at node 5)
Injected packet length average = 1
Accepted packet length average = 1
Total in-flight flits = 20 (0 measured)
latency change    = 1
throughput change = 1
Class 0:
Packet latency average = 19.7842
	minimum = 7
	maximum = 65
Network latency average = 19.7842
	minimum = 7
	maximum = 65
Slowest packet = 506117
Flit latency average = 19.7842
	minimum = 7
	maximum = 65
Slowest flit = 506117
Fragmentation average = 0
	minimum = 0
	maximum = 0
Injected packet rate average = 0.0505312
	minimum = 0.0405 (at node 14)
	maximum = 0.06 (at node 5)
Accepted packet rate average = 0.0498125
	minimum = 0.0405 (at node 11)
	maximum = 0.06 (at node 5)
Injected flit rate average = 0.0505312
	minimum = 0.0405 (at node 14)
	maximum = 0.06 (at node 5)
Accepted flit rate average= 0.0498125
	minimum = 0.0405 (at node 11)
	maximum = 0.06 (at node 5)
Injected packet length average = 1
Accepted packet length average = 1
Total in-flight flits = 23 (0 measured)
latency change    = 0.00787691
throughput change = 0.0175659
Class 0:
Packet latency average = 21.0012
	minimum = 7
	maximum = 60
Network latency average = 21.0012
	minimum = 7
	maximum = 60
Slowest packet = 507959
Flit latency average = 21.0012
	minimum = 7
	maximum = 60
Slowest flit = 507959
Fragmentation average = 0
	minimum = 0
	maximum = 0
Injected packet rate average = 0.0505
	minimum = 0.037 (at node 15)
	maximum = 0.065 (at node 13)
Accepted packet rate average = 0.0509375
	minimum = 0.037 (at node 15)
	maximum = 0.067 (at node 7)
Injected flit rate average = 0.0505
	minimum = 0.037 (at node 15)
	maximum = 0.065 (at node 13)
Accepted flit rate average= 0.0509375
	minimum = 0.037 (at node 15)
	maximum = 0.067 (at node 7)
Injected packet length average = 1
Accepted packet length average = 1
Total in-flight flits = 16 (0 measured)
latency change    = 0.0579507
throughput change = 0.0220859
Warmed up ...Time used is 3000 cycles
Class 0:
Packet latency average = 19.7074
	minimum = 7
	maximum = 62
Network latency average = 19.7074
	minimum = 7
	maximum = 62
Slowest packet = 508815
Flit latency average = 19.7857
	minimum = 7
	maximum = 62
Slowest flit = 508815
Fragmentation average = 0
	minimum = 0
	maximum = 0
Injected packet rate average = 0.0515625
	minimum = 0.036 (at node 5)
	maximum = 0.067 (at node 0)
Accepted packet rate average = 0.051625
	minimum = 0.036 (at node 5)
	maximum = 0.065 (at node 0)
Injected flit rate average = 0.0515625
	minimum = 0.036 (at node 5)
	maximum = 0.067 (at node 0)
Accepted flit rate average= 0.051625
	minimum = 0.036 (at node 5)
	maximum = 0.065 (at node 0)
Injected packet length average = 1
Accepted packet length average = 1
Total in-flight flits = 15 (15 measured)
latency change    = 0.0656514
throughput change = 0.0133172
Class 0:
Packet latency average = 20.2604
	minimum = 7
	maximum = 62
Network latency average = 20.2604
	minimum = 7
	maximum = 62
Slowest packet = 508815
Flit latency average = 20.2945
	minimum = 7
	maximum = 62
Slowest flit = 508815
Fragmentation average = 0
	minimum = 0
	maximum = 0
Injected packet rate average = 0.0510938
	minimum = 0.0405 (at node 13)
	maximum = 0.0585 (at node 6)
Accepted packet rate average = 0.0510313
	minimum = 0.0405 (at node 7)
	maximum = 0.058 (at node 9)
Injected flit rate average = 0.0510938
	minimum = 0.0405 (at node 13)
	maximum = 0.0585 (at node 6)
Accepted flit rate average= 0.0510313
	minimum = 0.0405 (at node 7)
	maximum = 0.058 (at node 9)
Injected packet length average = 1
Accepted packet length average = 1
Total in-flight flits = 18 (18 measured)
latency change    = 0.0272923
throughput change = 0.011635
Class 0:
Packet latency average = 20.2448
	minimum = 7
	maximum = 63
Network latency average = 20.2448
	minimum = 7
	maximum = 63
Slowest packet = 510270
Flit latency average = 20.2676
	minimum = 7
	maximum = 63
Slowest flit = 510270
Fragmentation average = 0
	minimum = 0
	maximum = 0
Injected packet rate average = 0.051
	minimum = 0.042 (at node 5)
	maximum = 0.057 (at node 6)
Accepted packet rate average = 0.0510625
	minimum = 0.0423333 (at node 5)
	maximum = 0.0563333 (at node 9)
Injected flit rate average = 0.051
	minimum = 0.042 (at node 5)
	maximum = 0.057 (at node 6)
Accepted flit rate average= 0.0510625
	minimum = 0.0423333 (at node 5)
	maximum = 0.0563333 (at node 9)
Injected packet length average = 1
Accepted packet length average = 1
Total in-flight flits = 13 (13 measured)
latency change    = 0.000770314
throughput change = 0.000611995
Class 0:
Packet latency average = 20.3004
	minimum = 7
	maximum = 74
Network latency average = 20.3004
	minimum = 7
	maximum = 74
Slowest packet = 511571
Flit latency average = 20.3173
	minimum = 7
	maximum = 74
Slowest flit = 511571
Fragmentation average = 0
	minimum = 0
	maximum = 0
Injected packet rate average = 0.0509844
	minimum = 0.0425 (at node 13)
	maximum = 0.05525 (at node 14)
Accepted packet rate average = 0.0508125
	minimum = 0.043 (at node 5)
	maximum = 0.05525 (at node 11)
Injected flit rate average = 0.0509844
	minimum = 0.0425 (at node 13)
	maximum = 0.05525 (at node 14)
Accepted flit rate average= 0.0508125
	minimum = 0.043 (at node 5)
	maximum = 0.05525 (at node 11)
Injected packet length average = 1
Accepted packet length average = 1
Total in-flight flits = 27 (27 measured)
latency change    = 0.00273921
throughput change = 0.00492005
Draining all recorded packets ...
Draining remaining packets ...
Time taken is 7097 cycles
====== Overall Traffic Statistics ======
====== Traffic class 0 ======
Packet latency average = 20.2566 (100 samples)
	minimum = 7 (100 samples)
	maximum = 74.44 (100 samples)
Network latency average = 20.2566 (100 samples)
	minimum = 7 (100 samples)
	maximum = 74.44 (100 samples)
Flit latency average = 20.292 (100 samples)
	minimum = 7 (100 samples)
	maximum = 74.76 (100 samples)
Fragmentation average = 0 (100 samples)
	minimum = 0 (100 samples)
	maximum = 0 (100 samples)
Injected packet rate average = 0.0500822 (100 samples)
	minimum = 0.0432712 (100 samples)
	maximum = 0.0565323 (100 samples)
Accepted packet rate average = 0.0500725 (100 samples)
	minimum = 0.0433162 (100 samples)
	maximum = 0.0565495 (100 samples)
Injected flit rate average = 0.0500822 (100 samples)
	minimum = 0.0432712 (100 samples)
	maximum = 0.0565323 (100 samples)
Accepted flit rate average = 0.0500725 (100 samples)
	minimum = 0.0433162 (100 samples)
	maximum = 0.0565495 (100 samples)
Injected packet size average = 1 (100 samples)
Accepted packet size average = 1 (100 samples)
Hops average = 3.49883 (100 samples)
Total run time 7.99294
