BEGIN Configuration File: /tmp/bs_1138183_185070.cfg
topology = mesh;
k = 4;
n = 2;
routing_function = min_adapt;
num_vcs = 4;
vc_buf_size = 4;
wait_for_tail_credit = 1;
vc_allocator = islip;
sw_allocator = islip;
alloc_iters = 1;
credit_delay = 2;
routing_delay = 1;
vc_alloc_delay = 1;
sw_alloc_delay = 1;
input_speedup = 2;
output_speedup = 1;
internal_speedup = 1.0;
traffic = uniform;
packet_size = 1;
sim_type = latency;
injection_rate = 0.05;
warmup_periods = 3;
sample_period = 1000;
sim_count = 100;
seed = 4;

END Configuration File: /tmp/bs_1138183_185070.cfg
Class 0:
Packet latency average = 20.0825
	minimum = 7
	maximum = 59
Network latency average = 20.0825
	minimum = 7
	maximum = 59
Slowest packet = 540
Flit latency average = 20.0825
	minimum = 7
	maximum = 59
Slowest flit = 540
Fragmentation average = 0
	minimum = 0
	maximum = 0
Injected packet rate average = 0.051625
	minimum = 0.037 (at node 11)
	maximum = 0.062 (at node 2)
Accepted packet rate average = 0.05075
	minimum = 0.038 (at node 2)
	maximum = 0.061 (at node 3)
Injected flit rate average = 0.051625
	minimum = 0.037 (at node 11)
	maximum = 0.062 (at node 2)
Accepted flit rate average= 0.05075
	minimum = 0.038 (at node 2)
	maximum = 0.061 (at node 3)
Injected packet length average = 1
Accepted packet length average = 1
Total in-flight flits = 14 (0 measured)
latency change    = 1
throughput change = 1
Class 0:
Packet latency average = 20.388
	minimum = 7
	maximum = 67
Network latency average = 20.388
	minimum = 7
	maximum = 67
Slowest packet = 1018
Flit latency average = 20.388
	minimum = 7
	maximum = 67
Slowest flit = 1018
Fragmentation average = 0
	minimum = 0
	maximum = 0
Injected packet rate average = 0.0511875
	minimum = 0.042 (at node 11)
	maximum = 0.0595 (at node 9)
Accepted packet rate average = 0.0506562
	minimum = 0.044 (at node 2)
	maximum = 0.057 (at node 12)
Injected flit rate average = 0.0511875
	minimum = 0.042 (at node 11)
	maximum = 0.0595 (at node 9)
Accepted flit rate average= 0.0506562
	minimum = 0.044 (at node 2)
	maximum = 0.057 (at node 12)
Injected packet length average = 1
Accepted packet length average = 1
Total in-flight flits = 17 (0 measured)
latency change    = 0.0149853
throughput change = 0.00185071
Class 0:
Packet latency average = 20.6207
	minimum = 7
	maximum = 48
Network latency average = 20.6207
	minimum = 7
	maximum = 48
Slowest packet = 1815
Flit latency average = 20.6207
	minimum = 7
	maximum = 48
Slowest flit = 1815
Fragmentation average = 0
	minimum = 0
	maximum = 0
Injected packet rate average = 0.0509375
	minimum = 0.035 (at node 6)
	maximum = 0.064 (at node 2)
Accepted packet rate average = 0.05125
	minimum = 0.043 (at node 5)
	maximum = 0.064 (at node 0)
Injected flit rate average = 0.0509375
	minimum = 0.035 (at node 6)
	maximum = 0.064 (at node 2)
Accepted flit rate average= 0.05125
	minimum = 0.043 (at node 5)
	maximum = 0.064 (at node 0)
Injected packet length average = 1
Accepted packet length average = 1
Total in-flight flits = 12 (0 measured)
latency change    = 0.0112847
throughput change = 0.0115854
Warmed up ...Time used is 3000 cycles
Class 0:
Packet latency average = 20.8291
	minimum = 7
	maximum = 55
Network latency average = 20.8291
	minimum = 7
	maximum = 55
Slowest packet = 2558
Flit latency average = 20.8417
	minimum = 7
	maximum = 55
Slowest flit = 2558
Fragmentation average = 0
	minimum = 0
	maximum = 0
Injected packet rate average = 0.0501875
	minimum = 0.04 (at node 12)
	maximum = 0.059 (at node 10)
Accepted packet rate average = 0.04975
	minimum = 0.04 (at node 7)
	maximum = 0.065 (at node 14)
Injected flit rate average = 0.0501875
	minimum = 0.04 (at node 12)
	maximum = 0.059 (at node 10)
Accepted flit rate average= 0.04975
	minimum = 0.04 (at node 7)
	maximum = 0.065 (at node 14)
Injected packet length average = 1
Accepted packet length average = 1
Total in-flight flits = 19 (19 measured)
latency change    = 0.0100028
throughput change = 0.0301508
Class 0:
Packet latency average = 20.8313
	minimum = 7
	maximum = 66
Network latency average = 20.8313
	minimum = 7
	maximum = 66
Slowest packet = 3658
Flit latency average = 20.8375
	minimum = 7
	maximum = 66
Slowest flit = 3658
Fragmentation average = 0
	minimum = 0
	maximum = 0
Injected packet rate average = 0.050625
	minimum = 0.0405 (at node 4)
	maximum = 0.0595 (at node 13)
Accepted packet rate average = 0.0505625
	minimum = 0.0425 (at node 9)
	maximum = 0.0575 (at node 8)
Injected flit rate average = 0.050625
	minimum = 0.0405 (at node 4)
	maximum = 0.0595 (at node 13)
Accepted flit rate average= 0.0505625
	minimum = 0.0425 (at node 9)
	maximum = 0.0575 (at node 8)
Injected packet length average = 1
Accepted packet length average = 1
Total in-flight flits = 14 (14 measured)
latency change    = 0.000104466
throughput change = 0.0160692
Class 0:
Packet latency average = 20.6313
	minimum = 7
	maximum = 66
Network latency average = 20.6313
	minimum = 7
	maximum = 66
Slowest packet = 3658
Flit latency average = 20.6364
	minimum = 7
	maximum = 66
Slowest flit = 3658
Fragmentation average = 0
	minimum = 0
	maximum = 0
Injected packet rate average = 0.0506667
	minimum = 0.044 (at node 4)
	maximum = 0.0596667 (at node 13)
Accepted packet rate average = 0.0504792
	minimum = 0.0446667 (at node 9)
	maximum = 0.0556667 (at node 13)
Injected flit rate average = 0.0506667
	minimum = 0.044 (at node 4)
	maximum = 0.0596667 (at node 13)
Accepted flit rate average= 0.0504792
	minimum = 0.0446667 (at node 9)
	maximum = 0.0556667 (at node 13)
Injected packet length average = 1
Accepted packet length average = 1
Total in-flight flits = 21 (21 measured)
latency change    = 0.00969327
throughput change = 0.00165085
Draining all recorded packets ...
Draining remaining packets ...
Time taken is 6050 cycles
Class 0:
Packet latency average = 20.2005
	minimum = 7
	maximum = 64
Network latency average = 20.2005
	minimum = 7
	maximum = 64
Slowest packet = 5350
Flit latency average = 20.2005
	minimum = 7
	maximum = 64
Slowest flit = 5350
Fragmentation average = 0
	minimum = 0
	maximum = 0
Injected packet rate average = 0.0483125
	minimum = 0.037 (at node 6)
	maximum = 0.057 (at node 15)
Accepted packet rate average = 0.0470625
	minimum = 0.033 (at node 5)
	maximum = 0.058 (at node 13)
Injected flit rate average = 0.0483125
	minimum = 0.037 (at node 6)
	maximum = 0.057 (at node 15)
Accepted flit rate average= 0.0470625
	minimum = 0.033 (at node 5)
	maximum = 0.058 (at node 13)
Injected packet length average = 1
Accepted packet length average = 1
Total in-flight flits = 20 (0 measured)
latency change    = 1
throughput change = 1
Class 0:
Packet latency average = 20.567
	minimum = 7
	maximum = 64
Network latency average = 20.567
	minimum = 7
	maximum = 64
Slowest packet = 5350
Flit latency average = 20.567
	minimum = 7
	maximum = 64
Slowest flit = 5350
Fragmentation average = 0
	minimum = 0
	maximum = 0
Injected packet rate average = 0.0497812
	minimum = 0.0385 (at node 6)
	maximum = 0.057 (at node 10)
Accepted packet rate average = 0.0494375
	minimum = 0.0415 (at node 1)
	maximum = 0.058 (at node 13)
Injected flit rate average = 0.0497812
	minimum = 0.0385 (at node 6)
	maximum = 0.057 (at node 10)
Accepted flit rate average= 0.0494375
	minimum = 0.0415 (at node 1)
	maximum = 0.058 (at node 13)
Injected packet length average = 1
Accepted packet length average = 1
Total in-flight flits = 11 (0 measured)
latency change    = 0.0178185
throughput change = 0.0480405
Class 0:
Packet latency average = 20.5742
	minimum = 7
	maximum = 52
Network latency average = 20.5742
	minimum = 7
	maximum = 52
Slowest packet = 6815
Flit latency average = 20.5742
	minimum = 7
	maximum = 52
Slowest flit = 6815
Fragmentation average = 0
	minimum = 0
	maximum = 0
Injected packet rate average = 0.0489375
	minimum = 0.037 (at node 0)
	maximum = 0.059 (at node 7)
Accepted packet rate average = 0.0484375
	minimum = 0.039 (at node 4)
	maximum = 0.06 (at node 0)
Injected flit rate average = 0.0489375
	minimum = 0.037 (at node 0)
	maximum = 0.059 (at node 7)
Accepted flit rate average= 0.0484375
	minimum = 0.039 (at node 4)
	maximum = 0.06 (at node 0)
Injected packet length average = 1
Accepted packet length average = 1
Total in-flight flits = 19 (0 measured)
latency change    = 0.000349455
throughput change = 0.0206452
Warmed up ...Time used is 3000 cycles
Class 0:
Packet latency average = 20.5661
	minimum = 7
	maximum = 47
Network latency average = 20.5661
	minimum = 7
	maximum = 47
Slowest packet = 7871
Flit latency average = 20.6911
	minimum = 7
	maximum = 59
Slowest flit = 7278
Fragmentation average = 0
	minimum = 0
	maximum = 0
Injected packet rate average = 0.0456875
	minimum = 0.034 (at node 0)
	maximum = 0.058 (at node 12)
Accepted packet rate average = 0.046125
	minimum = 0.032 (at node 11)
	maximum = 0.057 (at node 1)
Injected flit rate average = 0.0456875
	minimum = 0.034 (at node 0)
	maximum = 0.058 (at node 12)
Accepted flit rate average= 0.046125
	minimum = 0.032 (at node 11)
	maximum = 0.057 (at node 1)
Injected packet length average = 1
Accepted packet length average = 1
Total in-flight flits = 12 (12 measured)
latency change    = 0.000395291
throughput change = 0.0501355
Class 0:
Packet latency average = 20.3946
	minimum = 7
	maximum = 55
Network latency average = 20.3946
	minimum = 7
	maximum = 55
Slowest packet = 8482
Flit latency average = 20.4579
	minimum = 7
	maximum = 59
Slowest flit = 7278
Fragmentation average = 0
	minimum = 0
	maximum = 0
Injected packet rate average = 0.0470937
	minimum = 0.04 (at node 14)
	maximum = 0.059 (at node 15)
Accepted packet rate average = 0.0471562
	minimum = 0.04 (at node 8)
	maximum = 0.053 (at node 1)
Injected flit rate average = 0.0470937
	minimum = 0.04 (at node 14)
	maximum = 0.059 (at node 15)
Accepted flit rate average= 0.0471562
	minimum = 0.04 (at node 8)
	maximum = 0.053 (at node 1)
Injected packet length average = 1
Accepted packet length average = 1
Total in-flight flits = 17 (17 measured)
latency change    = 0.0084058
throughput change = 0.0218688
Class 0:
Packet latency average = 20.4436
	minimum = 7
	maximum = 56
Network latency average = 20.4436
	minimum = 7
	maximum = 56
Slowest packet = 8951
Flit latency average = 20.4838
	minimum = 7
	maximum = 59
Slowest flit = 7278
Fragmentation average = 0
	minimum = 0
	maximum = 0
Injected packet rate average = 0.049
	minimum = 0.042 (at node 2)
	maximum = 0.0616667 (at node 15)
Accepted packet rate average = 0.0489583
	minimum = 0.04 (at node 8)
	maximum = 0.055 (at node 7)
Injected flit rate average = 0.049
	minimum = 0.042 (at node 2)
	maximum = 0.0616667 (at node 15)
Accepted flit rate average= 0.0489583
	minimum = 0.04 (at node 8)
	maximum = 0.055 (at node 7)
Injected packet length average = 1
Accepted packet length average = 1
Total in-flight flits = 21 (21 measured)
latency change    = 0.00239467
throughput change = 0.0368085
Class 0:
Packet latency average = 20.543
	minimum = 7
	maximum = 67
Network latency average = 20.543
	minimum = 7
	maximum = 67
Slowest packet = 9652
Flit latency average = 20.5726
	minimum = 7
	maximum = 67
Slowest flit = 9652
Fragmentation average = 0
	minimum = 0
	maximum = 0
Injected packet rate average = 0.0489844
	minimum = 0.0425 (at node 0)
	maximum = 0.05925 (at node 15)
Accepted packet rate average = 0.0489844
	minimum = 0.04075 (at node 8)
	maximum = 0.0535 (at node 0)
Injected flit rate average = 0.0489844
	minimum = 0.0425 (at node 0)
	maximum = 0.05925 (at node 15)
Accepted flit rate average= 0.0489844
	minimum = 0.04075 (at node 8)
	maximum = 0.0535 (at node 0)
Injected packet length average = 1
Accepted packet length average = 1
Total in-flight flits = 19 (19 measured)
latency change    = 0.00483948
throughput change = 0.000531632
Draining all recorded packets ...
Draining remaining packets ...
Time taken is 7076 cycles
Class 0:
Packet latency average = 20.5006
	minimum = 7
	maximum = 60
Network latency average = 20.4981
	minimum = 7
	maximum = 60
Slowest packet = 11197
Flit latency average = 20.4981
	minimum = 7
	maximum = 60
Slowest flit = 11197
Fragmentation average = 0
	minimum = 0
	maximum = 0
Injected packet rate average = 0.051375
	minimum = 0.04 (at node 1)
	maximum = 0.061 (at node 13)
Accepted packet rate average = 0.0504375
	minimum = 0.04 (at node 15)
	maximum = 0.063 (at node 7)
Injected flit rate average = 0.051375
	minimum = 0.04 (at node 1)
	maximum = 0.061 (at node 13)
Accepted flit rate average= 0.0504375
	minimum = 0.04 (at node 15)
	maximum = 0.063 (at node 7)
Injected packet length average = 1
Accepted packet length average = 1
Total in-flight flits = 15 (0 measured)
latency change    = 1
throughput change = 1
Class 0:
Packet latency average = 20.7678
	minimum = 7
	maximum = 60
Network latency average = 20.7665
	minimum = 7
	maximum = 60
Slowest packet = 11197
Flit latency average = 20.7665
	minimum = 7
	maximum = 60
Slowest flit = 11197
Fragmentation average = 0
	minimum = 0
	maximum = 0
Injected packet rate average = 0.0495312
	minimum = 0.043 (at node 12)
	maximum = 0.0625 (at node 8)
Accepted packet rate average = 0.0488437
	minimum = 0.041 (at node 2)
	maximum = 0.056 (at node 8)
Injected flit rate average = 0.0495312
	minimum = 0.043 (at node 12)
	maximum = 0.0625 (at node 8)
Accepted flit rate average= 0.0488437
	minimum = 0.041 (at node 2)
	maximum = 0.056 (at node 8)
Injected packet length average = 1
Accepted packet length average = 1
Total in-flight flits = 22 (0 measured)
latency change    = 0.012863
throughput change = 0.0326296
Class 0:
Packet latency average = 19.4073
	minimum = 7
	maximum = 51
Network latency average = 19.4073
	minimum = 7
	maximum = 51
Slowest packet = 11985
Flit latency average = 19.4073
	minimum = 7
	maximum = 51
Slowest flit = 11985
Fragmentation average = 0
	minimum = 0
	maximum = 0
Injected packet rate average = 0.0481875
	minimum = 0.038 (at node 0)
	maximum = 0.056 (at node 14)
Accepted packet rate average = 0.0481875
	minimum = 0.039 (at node 4)
	maximum = 0.057 (at node 8)
Injected flit rate average = 0.0481875
	minimum = 0.038 (at node 0)
	maximum = 0.056 (at node 14)
Accepted flit rate average= 0.0481875
	minimum = 0.039 (at node 4)
	maximum = 0.057 (at node 8)
Injected packet length average = 1
Accepted packet length average = 1
Total in-flight flits = 22 (0 measured)
latency change    = 0.0701022
throughput change = 0.0136187
Warmed up ...Time used is 3000 cycles
Class 0:
Packet latency average = 20.5829
	minimum = 7
	maximum = 50
Network latency average = 20.5829
	minimum = 7
	maximum = 50
Slowest packet = 12902
Flit latency average = 20.7072
	minimum = 7
	maximum = 50
Slowest flit = 12902
Fragmentation average = 0
	minimum = 0
	maximum = 0
Injected packet rate average = 0.049875
	minimum = 0.04 (at node 1)
	maximum = 0.067 (at node 15)
Accepted packet rate average = 0.050375
	minimum = 0.033 (at node 7)
	maximum = 0.061 (at node 5)
Injected flit rate average = 0.049875
	minimum = 0.04 (at node 1)
	maximum = 0.067 (at node 15)
Accepted flit rate average= 0.050375
	minimum = 0.033 (at node 7)
	maximum = 0.061 (at node 5)
Injected packet length average = 1
Accepted packet length average = 1
Total in-flight flits = 14 (14 measured)
latency change    = 0.0571175
throughput change = 0.0434243
Class 0:
Packet latency average = 20.7896
	minimum = 7
	maximum = 62
Network latency average = 20.7896
	minimum = 7
	maximum = 62
Slowest packet = 14074
Flit latency average = 20.8499
	minimum = 7
	maximum = 62
Slowest flit = 14074
Fragmentation average = 0
	minimum = 0
	maximum = 0
Injected packet rate average = 0.0496875
	minimum = 0.0415 (at node 1)
	maximum = 0.0605 (at node 15)
Accepted packet rate average = 0.0495625
	minimum = 0.0405 (at node 13)
	maximum = 0.0565 (at node 2)
Injected flit rate average = 0.0496875
	minimum = 0.0415 (at node 1)
	maximum = 0.0605 (at node 15)
Accepted flit rate average= 0.0495625
	minimum = 0.0405 (at node 13)
	maximum = 0.0565 (at node 2)
Injected packet length average = 1
Accepted packet length average = 1
Total in-flight flits = 26 (26 measured)
latency change    = 0.00994408
throughput change = 0.0163934
Class 0:
Packet latency average = 20.5753
	minimum = 7
	maximum = 63
Network latency average = 20.5753
	minimum = 7
	maximum = 63
Slowest packet = 14831
Flit latency average = 20.6166
	minimum = 7
	maximum = 63
Slowest flit = 14831
Fragmentation average = 0
	minimum = 0
	maximum = 0
Injected packet rate average = 0.0505833
	minimum = 0.0436667 (at node 2)
	maximum = 0.0576667 (at node 15)
Accepted packet rate average = 0.0506458
	minimum = 0.046 (at node 13)
	maximum = 0.0566667 (at node 2)
Injected flit rate average = 0.0505833
	minimum = 0.0436667 (at node 2)
	maximum = 0.0576667 (at node 15)
Accepted flit rate average= 0.0506458
	minimum = 0.046 (at node 13)
	maximum = 0.0566667 (at node 2)
Injected packet length average = 1
Accepted packet length average = 1
Total in-flight flits = 19 (19 measured)
latency change    = 0.0104154
throughput change = 0.0213904
Class 0:
Packet latency average = 20.5461
	minimum = 7
	maximum = 63
Network latency average = 20.5461
	minimum = 7
	maximum = 63
Slowest packet = 14831
Flit latency average = 20.5774
	minimum = 7
	maximum = 63
Slowest flit = 14831
Fragmentation average = 0
	minimum = 0
	maximum = 0
Injected packet rate average = 0.0502812
	minimum = 0.0435 (at node 2)
	maximum = 0.05575 (at node 9)
Accepted packet rate average = 0.0503594
	minimum = 0.046 (at node 14)
	maximum = 0.05575 (at node 2)
Injected flit rate average = 0.0502812
	minimum = 0.0435 (at node 2)
	maximum = 0.05575 (at node 9)
Accepted flit rate average= 0.0503594
	minimum = 0.046 (at node 14)
	maximum = 0.05575 (at node 2)
Injected packet length average = 1
Accepted packet length average = 1
Total in-flight flits = 17 (17 measured)
latency change    = 0.00142427
throughput change = 0.00568828
Draining all recorded packets ...
Draining remaining packets ...
Time taken is 7070 cycles
Class 0:
Packet latency average = 20.4656
	minimum = 7
	maximum = 64
Network latency average = 20.4656
	minimum = 7
	maximum = 64
Slowest packet = 16319
Flit latency average = 20.4656
	minimum = 7
	maximum = 64
Slowest flit = 16319
Fragmentation average = 0
	minimum = 0
	maximum = 0
Injected packet rate average = 0.049875
	minimum = 0.038 (at node 2)
	maximum = 0.058 (at node 8)
Accepted packet rate average = 0.049
	minimum = 0.039 (at node 1)
	maximum = 0.063 (at node 7)
Injected flit rate average = 0.049875
	minimum = 0.038 (at node 2)
	maximum = 0.058 (at node 8)
Accepted flit rate average= 0.049
	minimum = 0.039 (at node 1)
	maximum = 0.063 (at node 7)
Injected packet length average = 1
Accepted packet length average = 1
Total in-flight flits = 14 (0 measured)
latency change    = 1
throughput change = 1
Class 0:
Packet latency average = 20.509
	minimum = 7
	maximum = 64
Network latency average = 20.509
	minimum = 7
	maximum = 64
Slowest packet = 16319
Flit latency average = 20.509
	minimum = 7
	maximum = 64
Slowest flit = 16319
Fragmentation average = 0
	minimum = 0
	maximum = 0
Injected packet rate average = 0.050625
	minimum = 0.0425 (at node 2)
	maximum = 0.06 (at node 4)
Accepted packet rate average = 0.0500937
	minimum = 0.042 (at node 13)
	maximum = 0.059 (at node 0)
Injected flit rate average = 0.050625
	minimum = 0.0425 (at node 2)
	maximum = 0.06 (at node 4)
Accepted flit rate average= 0.0500937
	minimum = 0.042 (at node 13)
	maximum = 0.059 (at node 0)
Injected packet length average = 1
Accepted packet length average = 1
Total in-flight flits = 17 (0 measured)
latency change    = 0.00212025
throughput change = 0.0218341
Class 0:
Packet latency average = 19.8198
	minimum = 7
	maximum = 54
Network latency average = 19.8198
	minimum = 7
	maximum = 54
Slowest packet = 17832
Flit latency average = 19.8198
	minimum = 7
	maximum = 54
Slowest flit = 17832
Fragmentation average = 0
	minimum = 0
	maximum = 0
Injected packet rate average = 0.04775
	minimum = 0.03 (at node 6)
	maximum = 0.057 (at node 8)
Accepted packet rate average = 0.047875
	minimum = 0.036 (at node 6)
	maximum = 0.058 (at node 9)
Injected flit rate average = 0.04775
	minimum = 0.03 (at node 6)
	maximum = 0.057 (at node 8)
Accepted flit rate average= 0.047875
	minimum = 0.036 (at node 6)
	maximum = 0.058 (at node 9)
Injected packet length average = 1
Accepted packet length average = 1
Total in-flight flits = 15 (0 measured)
latency change    = 0.0347733
throughput change = 0.0463446
Warmed up ...Time used is 3000 cycles
Class 0:
Packet latency average = 20.8394
	minimum = 7
	maximum = 54
Network latency average = 20.8394
	minimum = 7
	maximum = 54
Slowest packet = 18698
Flit latency average = 20.9323
	minimum = 7
	maximum = 60
Slowest flit = 18385
Fragmentation average = 0
	minimum = 0
	maximum = 0
Injected packet rate average = 0.051125
	minimum = 0.038 (at node 12)
	maximum = 0.065 (at node 8)
Accepted packet rate average = 0.05075
	minimum = 0.037 (at node 13)
	maximum = 0.061 (at node 12)
Injected flit rate average = 0.051125
	minimum = 0.038 (at node 12)
	maximum = 0.065 (at node 8)
Accepted flit rate average= 0.05075
	minimum = 0.037 (at node 13)
	maximum = 0.061 (at node 12)
Injected packet length average = 1
Accepted packet length average = 1
Total in-flight flits = 21 (21 measured)
latency change    = 0.0489244
throughput change = 0.0566502
Class 0:
Packet latency average = 20.6963
	minimum = 7
	maximum = 73
Network latency average = 20.6963
	minimum = 7
	maximum = 73
Slowest packet = 19334
Flit latency average = 20.7441
	minimum = 7
	maximum = 73
Slowest flit = 19334
Fragmentation average = 0
	minimum = 0
	maximum = 0
Injected packet rate average = 0.050875
	minimum = 0.042 (at node 10)
	maximum = 0.0635 (at node 8)
Accepted packet rate average = 0.0506875
	minimum = 0.0445 (at node 9)
	maximum = 0.0615 (at node 0)
Injected flit rate average = 0.050875
	minimum = 0.042 (at node 10)
	maximum = 0.0635 (at node 8)
Accepted flit rate average= 0.0506875
	minimum = 0.0445 (at node 9)
	maximum = 0.0615 (at node 0)
Injected packet length average = 1
Accepted packet length average = 1
Total in-flight flits = 21 (21 measured)
latency change    = 0.00691278
throughput change = 0.00123305
Class 0:
Packet latency average = 20.487
	minimum = 7
	maximum = 73
Network latency average = 20.487
	minimum = 7
	maximum = 73
Slowest packet = 19334
Flit latency average = 20.5207
	minimum = 7
	maximum = 73
Slowest flit = 19334
Fragmentation average = 0
	minimum = 0
	maximum = 0
Injected packet rate average = 0.0499792
	minimum = 0.0403333 (at node 7)
	maximum = 0.0616667 (at node 8)
Accepted packet rate average = 0.0498958
	minimum = 0.046 (at node 3)
	maximum = 0.0586667 (at node 14)
Injected flit rate average = 0.0499792
	minimum = 0.0403333 (at node 7)
	maximum = 0.0616667 (at node 8)
Accepted flit rate average= 0.0498958
	minimum = 0.046 (at node 3)
	maximum = 0.0586667 (at node 14)
Injected packet length average = 1
Accepted packet length average = 1
Total in-flight flits = 19 (19 measured)
latency change    = 0.0102189
throughput change = 0.0158664
Class 0:
Packet latency average = 20.6003
	minimum = 7
	maximum = 73
Network latency average = 20.6003
	minimum = 7
	maximum = 73
Slowest packet = 19334
Flit latency average = 20.6253
	minimum = 7
	maximum = 73
Slowest flit = 19334
Fragmentation average = 0
	minimum = 0
	maximum = 0
Injected packet rate average = 0.0494219
	minimum = 0.041 (at node 7)
	maximum = 0.05875 (at node 8)
Accepted packet rate average = 0.0494531
	minimum = 0.04575 (at node 1)
	maximum = 0.05525 (at node 14)
Injected flit rate average = 0.0494219
	minimum = 0.041 (at node 7)
	maximum = 0.05875 (at node 8)
Accepted flit rate average= 0.0494531
	minimum = 0.04575 (at node 1)
	maximum = 0.05525 (at node 14)
Injected packet length average = 1
Accepted packet length average = 1
Total in-flight flits = 13 (13 measured)
latency change    = 0.00550199
throughput change = 0.00895208
Draining all recorded packets ...
Draining remaining packets ...
Time taken is 7068 cycles
Class 0:
Packet latency average = 19.9558
	minimum = 7
	maximum = 55
Network latency average = 19.9558
	minimum = 7
	maximum = 55
Slowest packet = 21996
Flit latency average = 19.9558
	minimum = 7
	maximum = 55
Slowest flit = 21996
Fragmentation average = 0
	minimum = 0
	maximum = 0
Injected packet rate average = 0.0510625
	minimum = 0.037 (at node 0)
	maximum = 0.065 (at node 11)
Accepted packet rate average = 0.0494375
	minimum = 0.036 (at node 13)
	maximum = 0.062 (at node 4)
Injected flit rate average = 0.0510625
	minimum = 0.037 (at node 0)
	maximum = 0.065 (at node 11)
Accepted flit rate average= 0.0494375
	minimum = 0.036 (at node 13)
	maximum = 0.062 (at node 4)
Injected packet length average = 1
Accepted packet length average = 1
Total in-flight flits = 26 (0 measured)
latency change    = 1
throughput change = 1
Class 0:
Packet latency average = 20.3671
	minimum = 7
	maximum = 55
Network latency average = 20.3671
	minimum = 7
	maximum = 55
Slowest packet = 21996
Flit latency average = 20.3671
	minimum = 7
	maximum = 55
Slowest flit = 21996
Fragmentation average = 0
	minimum = 0
	maximum = 0
Injected packet rate average = 0.050375
	minimum = 0.0405 (at node 13)
	maximum = 0.057 (at node 1)
Accepted packet rate average = 0.0499687
	minimum = 0.0395 (at node 10)
	maximum = 0.056 (at node 0)
Injected flit rate average = 0.050375
	minimum = 0.0405 (at node 13)
	maximum = 0.057 (at node 1)
Accepted flit rate average= 0.0499687
	minimum = 0.0395 (at node 10)
	maximum = 0.056 (at node 0)
Injected packet length average = 1
Accepted packet length average = 1
Total in-flight flits = 13 (0 measured)
latency change    = 0.0201969
throughput change = 0.0106316
Class 0:
Packet latency average = 20.9426
	minimum = 7
	maximum = 61
Network latency average = 20.9426
	minimum = 7
	maximum = 61
Slowest packet = 23916
Flit latency average = 20.9426
	minimum = 7
	maximum = 61
Slowest flit = 23916
Fragmentation average = 0
	minimum = 0
	maximum = 0
Injected packet rate average = 0.05
	minimum = 0.042 (at node 15)
	maximum = 0.059 (at node 0)
Accepted packet rate average = 0.050125
	minimum = 0.038 (at node 15)
	maximum = 0.067 (at node 14)
Injected flit rate average = 0.05
	minimum = 0.042 (at node 15)
	maximum = 0.059 (at node 0)
Accepted flit rate average= 0.050125
	minimum = 0.038 (at node 15)
	maximum = 0.067 (at node 14)
Injected packet length average = 1
Accepted packet length average = 1
Total in-flight flits = 11 (0 measured)
latency change    = 0.0274817
throughput change = 0.00311721
Warmed up ...Time used is 3000 cycles
Class 0:
Packet latency average = 20.3732
	minimum = 7
	maximum = 74
Network latency average = 20.3732
	minimum = 7
	maximum = 74
Slowest packet = 24420
Flit latency average = 20.4055
	minimum = 7
	maximum = 74
Slowest flit = 24420
Fragmentation average = 0
	minimum = 0
	maximum = 0
Injected packet rate average = 0.052125
	minimum = 0.04 (at node 11)
	maximum = 0.067 (at node 8)
Accepted packet rate average = 0.0519375
	minimum = 0.044 (at node 15)
	maximum = 0.063 (at node 8)
Injected flit rate average = 0.052125
	minimum = 0.04 (at node 11)
	maximum = 0.067 (at node 8)
Accepted flit rate average= 0.0519375
	minimum = 0.044 (at node 15)
	maximum = 0.063 (at node 8)
Injected packet length average = 1
Accepted packet length average = 1
Total in-flight flits = 14 (14 measured)
latency change    = 0.0279521
throughput change = 0.0348977
Class 0:
Packet latency average = 20.4846
	minimum = 7
	maximum = 74
Network latency average = 20.4846
	minimum = 7
	maximum = 74
Slowest packet = 24420
Flit latency average = 20.5003
	minimum = 7
	maximum = 74
Slowest flit = 24420
Fragmentation average = 0
	minimum = 0
	maximum = 0
Injected packet rate average = 0.051375
	minimum = 0.038 (at node 11)
	maximum = 0.064 (at node 9)
Accepted packet rate average = 0.0509688
	minimum = 0.0415 (at node 5)
	maximum = 0.057 (at node 3)
Injected flit rate average = 0.051375
	minimum = 0.038 (at node 11)
	maximum = 0.064 (at node 9)
Accepted flit rate average= 0.0509688
	minimum = 0.0415 (at node 5)
	maximum = 0.057 (at node 3)
Injected packet length average = 1
Accepted packet length average = 1
Total in-flight flits = 24 (24 measured)
latency change    = 0.0054381
throughput change = 0.0190067
Class 0:
Packet latency average = 20.6224
	minimum = 7
	maximum = 74
Network latency average = 20.6224
	minimum = 7
	maximum = 74
Slowest packet = 24420
Flit latency average = 20.6322
	minimum = 7
	maximum = 74
Slowest flit = 24420
Fragmentation average = 0
	minimum = 0
	maximum = 0
Injected packet rate average = 0.051625
	minimum = 0.044 (at node 11)
	maximum = 0.0586667 (at node 9)
Accepted packet rate average = 0.0515417
	minimum = 0.0433333 (at node 5)
	maximum = 0.058 (at node 6)
Injected flit rate average = 0.051625
	minimum = 0.044 (at node 11)
	maximum = 0.0586667 (at node 9)
Accepted flit rate average= 0.0515417
	minimum = 0.0433333 (at node 5)
	maximum = 0.058 (at node 6)
Injected packet length average = 1
Accepted packet length average = 1
Total in-flight flits = 15 (15 measured)
latency change    = 0.00668417
throughput change = 0.0111156
Draining all recorded packets ...
Draining remaining packets ...
Time taken is 6067 cycles
Class 0:
Packet latency average = 20.1595
	minimum = 7
	maximum = 54
Network latency average = 20.1595
	minimum = 7
	maximum = 54
Slowest packet = 26708
Flit latency average = 20.1595
	minimum = 7
	maximum = 54
Slowest flit = 26708
Fragmentation average = 0
	minimum = 0
	maximum = 0
Injected packet rate average = 0.0504375
	minimum = 0.04 (at node 8)
	maximum = 0.065 (at node 14)
Accepted packet rate average = 0.049375
	minimum = 0.033 (at node 13)
	maximum = 0.068 (at node 6)
Injected flit rate average = 0.0504375
	minimum = 0.04 (at node 8)
	maximum = 0.065 (at node 14)
Accepted flit rate average= 0.049375
	minimum = 0.033 (at node 13)
	maximum = 0.068 (at node 6)
Injected packet length average = 1
Accepted packet length average = 1
Total in-flight flits = 17 (0 measured)
latency change    = 1
throughput change = 1
Class 0:
Packet latency average = 20.3871
	minimum = 7
	maximum = 57
Network latency average = 20.3871
	minimum = 7
	maximum = 57
Slowest packet = 27909
Flit latency average = 20.3871
	minimum = 7
	maximum = 57
Slowest flit = 27909
Fragmentation average = 0
	minimum = 0
	maximum = 0
Injected packet rate average = 0.051625
	minimum = 0.041 (at node 3)
	maximum = 0.0605 (at node 14)
Accepted packet rate average = 0.0511875
	minimum = 0.0335 (at node 15)
	maximum = 0.0655 (at node 6)
Injected flit rate average = 0.051625
	minimum = 0.041 (at node 3)
	maximum = 0.0605 (at node 14)
Accepted flit rate average= 0.0511875
	minimum = 0.0335 (at node 15)
	maximum = 0.0655 (at node 6)
Injected packet length average = 1
Accepted packet length average = 1
Total in-flight flits = 14 (0 measured)
latency change    = 0.0111622
throughput change = 0.035409
Class 0:
Packet latency average = 20.4897
	minimum = 7
	maximum = 64
Network latency average = 20.4897
	minimum = 7
	maximum = 64
Slowest packet = 28456
Flit latency average = 20.4897
	minimum = 7
	maximum = 64
Slowest flit = 28456
Fragmentation average = 0
	minimum = 0
	maximum = 0
Injected packet rate average = 0.0484375
	minimum = 0.036 (at node 14)
	maximum = 0.064 (at node 8)
Accepted packet rate average = 0.04875
	minimum = 0.041 (at node 5)
	maximum = 0.061 (at node 11)
Injected flit rate average = 0.0484375
	minimum = 0.036 (at node 14)
	maximum = 0.064 (at node 8)
Accepted flit rate average= 0.04875
	minimum = 0.041 (at node 5)
	maximum = 0.061 (at node 11)
Injected packet length average = 1
Accepted packet length average = 1
Total in-flight flits = 9 (0 measured)
latency change    = 0.00501159
throughput change = 0.05
Warmed up ...Time used is 3000 cycles
Class 0:
Packet latency average = 20.4188
	minimum = 7
	maximum = 62
Network latency average = 20.4188
	minimum = 7
	maximum = 62
Slowest packet = 29582
Flit latency average = 20.4583
	minimum = 7
	maximum = 62
Slowest flit = 29582
Fragmentation average = 0
	minimum = 0
	maximum = 0
Injected packet rate average = 0.0511875
	minimum = 0.038 (at node 1)
	maximum = 0.062 (at node 8)
Accepted packet rate average = 0.051
	minimum = 0.038 (at node 4)
	maximum = 0.06 (at node 3)
Injected flit rate average = 0.0511875
	minimum = 0.038 (at node 1)
	maximum = 0.062 (at node 8)
Accepted flit rate average= 0.051
	minimum = 0.038 (at node 4)
	maximum = 0.06 (at node 3)
Injected packet length average = 1
Accepted packet length average = 1
Total in-flight flits = 12 (12 measured)
latency change    = 0.0034727
throughput change = 0.0441176
Class 0:
Packet latency average = 20.6296
	minimum = 7
	maximum = 69
Network latency average = 20.6296
	minimum = 7
	maximum = 69
Slowest packet = 29813
Flit latency average = 20.6488
	minimum = 7
	maximum = 69
Slowest flit = 29813
Fragmentation average = 0
	minimum = 0
	maximum = 0
Injected packet rate average = 0.0495312
	minimum = 0.041 (at node 1)
	maximum = 0.0575 (at node 13)
Accepted packet rate average = 0.0494687
	minimum = 0.0435 (at node 14)
	maximum = 0.056 (at node 6)
Injected flit rate average = 0.0495312
	minimum = 0.041 (at node 1)
	maximum = 0.0575 (at node 13)
Accepted flit rate average= 0.0494687
	minimum = 0.0435 (at node 14)
	maximum = 0.056 (at node 6)
Injected packet length average = 1
Accepted packet length average = 1
Total in-flight flits = 11 (11 measured)
latency change    = 0.0102169
throughput change = 0.0309539
Class 0:
Packet latency average = 20.62
	minimum = 7
	maximum = 69
Network latency average = 20.62
	minimum = 7
	maximum = 69
Slowest packet = 29813
Flit latency average = 20.633
	minimum = 7
	maximum = 69
Slowest flit = 29813
Fragmentation average = 0
	minimum = 0
	maximum = 0
Injected packet rate average = 0.0488333
	minimum = 0.0436667 (at node 11)
	maximum = 0.0553333 (at node 14)
Accepted packet rate average = 0.0487083
	minimum = 0.0443333 (at node 14)
	maximum = 0.0526667 (at node 6)
Injected flit rate average = 0.0488333
	minimum = 0.0436667 (at node 11)
	maximum = 0.0553333 (at node 14)
Accepted flit rate average= 0.0487083
	minimum = 0.0443333 (at node 14)
	maximum = 0.0526667 (at node 6)
Injected packet length average = 1
Accepted packet length average = 1
Total in-flight flits = 15 (15 measured)
latency change    = 0.000465447
throughput change = 0.0156116
Draining all recorded packets ...
Draining remaining packets ...
Time taken is 6066 cycles
Class 0:
Packet latency average = 20.9085
	minimum = 7
	maximum = 50
Network latency average = 20.9085
	minimum = 7
	maximum = 50
Slowest packet = 31951
Flit latency average = 20.9085
	minimum = 7
	maximum = 50
Slowest flit = 31951
Fragmentation average = 0
	minimum = 0
	maximum = 0
Injected packet rate average = 0.0496875
	minimum = 0.03 (at node 5)
	maximum = 0.06 (at node 7)
Accepted packet rate average = 0.0485
	minimum = 0.037 (at node 14)
	maximum = 0.062 (at node 15)
Injected flit rate average = 0.0496875
	minimum = 0.03 (at node 5)
	maximum = 0.06 (at node 7)
Accepted flit rate average= 0.0485
	minimum = 0.037 (at node 14)
	maximum = 0.062 (at node 15)
Injected packet length average = 1
Accepted packet length average = 1
Total in-flight flits = 19 (0 measured)
latency change    = 1
throughput change = 1
Class 0:
Packet latency average = 20.4656
	minimum = 7
	maximum = 54
Network latency average = 20.4656
	minimum = 7
	maximum = 54
Slowest packet = 32364
Flit latency average = 20.4656
	minimum = 7
	maximum = 54
Slowest flit = 32364
Fragmentation average = 0
	minimum = 0
	maximum = 0
Injected packet rate average = 0.0494062
	minimum = 0.039 (at node 5)
	maximum = 0.0595 (at node 12)
Accepted packet rate average = 0.049
	minimum = 0.042 (at node 13)
	maximum = 0.0535 (at node 2)
Injected flit rate average = 0.0494062
	minimum = 0.039 (at node 5)
	maximum = 0.0595 (at node 12)
Accepted flit rate average= 0.049
	minimum = 0.042 (at node 13)
	maximum = 0.0535 (at node 2)
Injected packet length average = 1
Accepted packet length average = 1
Total in-flight flits = 13 (0 measured)
latency change    = 0.0216434
throughput change = 0.0102041
Class 0:
Packet latency average = 20.5541
	minimum = 7
	maximum = 57
Network latency average = 20.5541
	minimum = 7
	maximum = 57
Slowest packet = 33615
Flit latency average = 20.5541
	minimum = 7
	maximum = 57
Slowest flit = 33615
Fragmentation average = 0
	minimum = 0
	maximum = 0
Injected packet rate average = 0.0524375
	minimum = 0.038 (at node 12)
	maximum = 0.066 (at node 15)
Accepted packet rate average = 0.0525625
	minimum = 0.043 (at node 7)
	maximum = 0.06 (at node 5)
Injected flit rate average = 0.0524375
	minimum = 0.038 (at node 12)
	maximum = 0.066 (at node 15)
Accepted flit rate average= 0.0525625
	minimum = 0.043 (at node 7)
	maximum = 0.06 (at node 5)
Injected packet length average = 1
Accepted packet length average = 1
Total in-flight flits = 11 (0 measured)
latency change    = 0.00430771
throughput change = 0.0677765
Warmed up ...Time used is 3000 cycles
Class 0:
Packet latency average = 20.2725
	minimum = 7
	maximum = 54
Network latency average = 20.2725
	minimum = 7
	maximum = 54
Slowest packet = 34428
Flit latency average = 20.3833
	minimum = 7
	maximum = 68
Slowest flit = 33721
Fragmentation average = 0
	minimum = 0
	maximum = 0
Injected packet rate average = 0.048625
	minimum = 0.038 (at node 11)
	maximum = 0.059 (at node 7)
Accepted packet rate average = 0.0479375
	minimum = 0.028 (at node 6)
	maximum = 0.071 (at node 8)
Injected flit rate average = 0.048625
	minimum = 0.038 (at node 11)
	maximum = 0.059 (at node 7)
Accepted flit rate average= 0.0479375
	minimum = 0.028 (at node 6)
	maximum = 0.071 (at node 8)
Injected packet length average = 1
Accepted packet length average = 1
Total in-flight flits = 22 (22 measured)
latency change    = 0.0138915
throughput change = 0.0964798
Class 0:
Packet latency average = 20.5374
	minimum = 7
	maximum = 63
Network latency average = 20.5374
	minimum = 7
	maximum = 63
Slowest packet = 34851
Flit latency average = 20.5896
	minimum = 7
	maximum = 68
Slowest flit = 33721
Fragmentation average = 0
	minimum = 0
	maximum = 0
Injected packet rate average = 0.0493125
	minimum = 0.041 (at node 13)
	maximum = 0.059 (at node 6)
Accepted packet rate average = 0.0491875
	minimum = 0.041 (at node 6)
	maximum = 0.063 (at node 8)
Injected flit rate average = 0.0493125
	minimum = 0.041 (at node 13)
	maximum = 0.059 (at node 6)
Accepted flit rate average= 0.0491875
	minimum = 0.041 (at node 6)
	maximum = 0.063 (at node 8)
Injected packet length average = 1
Accepted packet length average = 1
Total in-flight flits = 15 (15 measured)
latency change    = 0.0129004
throughput change = 0.025413
Class 0:
Packet latency average = 20.405
	minimum = 7
	maximum = 63
Network latency average = 20.405
	minimum = 7
	maximum = 63
Slowest packet = 34851
Flit latency average = 20.4405
	minimum = 7
	maximum = 68
Slowest flit = 33721
Fragmentation average = 0
	minimum = 0
	maximum = 0
Injected packet rate average = 0.04925
	minimum = 0.0416667 (at node 3)
	maximum = 0.056 (at node 6)
Accepted packet rate average = 0.049
	minimum = 0.041 (at node 6)
	maximum = 0.0603333 (at node 5)
Injected flit rate average = 0.04925
	minimum = 0.0416667 (at node 3)
	maximum = 0.056 (at node 6)
Accepted flit rate average= 0.049
	minimum = 0.041 (at node 6)
	maximum = 0.0603333 (at node 5)
Injected packet length average = 1
Accepted packet length average = 1
Total in-flight flits = 23 (23 measured)
latency change    = 0.00649219
throughput change = 0.00382653
Class 0:
Packet latency average = 20.4499
	minimum = 7
	maximum = 63
Network latency average = 20.4499
	minimum = 7
	maximum = 63
Slowest packet = 34851
Flit latency average = 20.476
	minimum = 7
	maximum = 68
Slowest flit = 33721
Fragmentation average = 0
	minimum = 0
	maximum = 0
Injected packet rate average = 0.0497969
	minimum = 0.043 (at node 13)
	maximum = 0.056 (at node 7)
Accepted packet rate average = 0.0497656
	minimum = 0.0445 (at node 6)
	maximum = 0.059 (at node 5)
Injected flit rate average = 0.0497969
	minimum = 0.043 (at node 13)
	maximum = 0.056 (at node 7)
Accepted flit rate average= 0.0497656
	minimum = 0.0445 (at node 6)
	maximum = 0.059 (at node 5)
Injected packet length average = 1
Accepted packet length average = 1
Total in-flight flits = 13 (13 measured)
latency change    = 0.00219807
throughput change = 0.0153846
Draining all recorded packets ...
Draining remaining packets ...
Time taken is 7053 cycles
Class 0:
Packet latency average = 20.4497
	minimum = 7
	maximum = 52
Network latency average = 20.4497
	minimum = 7
	maximum = 52
Slowest packet = 37573
Flit latency average = 20.4497
	minimum = 7
	maximum = 52
Slowest flit = 37573
Fragmentation average = 0
	minimum = 0
	maximum = 0
Injected packet rate average = 0.0500625
	minimum = 0.038 (at node 2)
	maximum = 0.062 (at node 10)
Accepted packet rate average = 0.0490625
	minimum = 0.04 (at node 3)
	maximum = 0.062 (at node 11)
Injected flit rate average = 0.0500625
	minimum = 0.038 (at node 2)
	maximum = 0.062 (at node 10)
Accepted flit rate average= 0.0490625
	minimum = 0.04 (at node 3)
	maximum = 0.062 (at node 11)
Injected packet length average = 1
Accepted packet length average = 1
Total in-flight flits = 16 (0 measured)
latency change    = 1
throughput change = 1
Class 0:
Packet latency average = 20.6299
	minimum = 7
	maximum = 64
Network latency average = 20.6299
	minimum = 7
	maximum = 64
Slowest packet = 38042
Flit latency average = 20.6299
	minimum = 7
	maximum = 64
Slowest flit = 38042
Fragmentation average = 0
	minimum = 0
	maximum = 0
Injected packet rate average = 0.0499687
	minimum = 0.039 (at node 5)
	maximum = 0.062 (at node 15)
Accepted packet rate average = 0.0495625
	minimum = 0.0445 (at node 3)
	maximum = 0.058 (at node 15)
Injected flit rate average = 0.0499687
	minimum = 0.039 (at node 5)
	maximum = 0.062 (at node 15)
Accepted flit rate average= 0.0495625
	minimum = 0.0445 (at node 3)
	maximum = 0.058 (at node 15)
Injected packet length average = 1
Accepted packet length average = 1
Total in-flight flits = 13 (0 measured)
latency change    = 0.00873514
throughput change = 0.0100883
Class 0:
Packet latency average = 20.447
	minimum = 7
	maximum = 48
Network latency average = 20.447
	minimum = 7
	maximum = 48
Slowest packet = 38710
Flit latency average = 20.447
	minimum = 7
	maximum = 48
Slowest flit = 38710
Fragmentation average = 0
	minimum = 0
	maximum = 0
Injected packet rate average = 0.0496875
	minimum = 0.041 (at node 4)
	maximum = 0.064 (at node 2)
Accepted packet rate average = 0.0495
	minimum = 0.041 (at node 6)
	maximum = 0.057 (at node 8)
Injected flit rate average = 0.0496875
	minimum = 0.041 (at node 4)
	maximum = 0.064 (at node 2)
Accepted flit rate average= 0.0495
	minimum = 0.041 (at node 6)
	maximum = 0.057 (at node 8)
Injected packet length average = 1
Accepted packet length average = 1
Total in-flight flits = 16 (0 measured)
latency change    = 0.00894591
throughput change = 0.00126263
Warmed up ...Time used is 3000 cycles
Class 0:
Packet latency average = 20.2177
	minimum = 7
	maximum = 60
Network latency average = 20.2177
	minimum = 7
	maximum = 60
Slowest packet = 39650
Flit latency average = 20.2829
	minimum = 7
	maximum = 60
Slowest flit = 39650
Fragmentation average = 0
	minimum = 0
	maximum = 0
Injected packet rate average = 0.0489375
	minimum = 0.035 (at node 14)
	maximum = 0.059 (at node 13)
Accepted packet rate average = 0.048375
	minimum = 0.039 (at node 4)
	maximum = 0.055 (at node 12)
Injected flit rate average = 0.0489375
	minimum = 0.035 (at node 14)
	maximum = 0.059 (at node 13)
Accepted flit rate average= 0.048375
	minimum = 0.039 (at node 4)
	maximum = 0.055 (at node 12)
Injected packet length average = 1
Accepted packet length average = 1
Total in-flight flits = 25 (25 measured)
latency change    = 0.0113411
throughput change = 0.0232558
Class 0:
Packet latency average = 20.4382
	minimum = 7
	maximum = 60
Network latency average = 20.4382
	minimum = 7
	maximum = 60
Slowest packet = 39650
Flit latency average = 20.4671
	minimum = 7
	maximum = 60
Slowest flit = 39650
Fragmentation average = 0
	minimum = 0
	maximum = 0
Injected packet rate average = 0.0508438
	minimum = 0.0415 (at node 14)
	maximum = 0.0605 (at node 8)
Accepted packet rate average = 0.0508438
	minimum = 0.0425 (at node 4)
	maximum = 0.0605 (at node 13)
Injected flit rate average = 0.0508438
	minimum = 0.0415 (at node 14)
	maximum = 0.0605 (at node 8)
Accepted flit rate average= 0.0508438
	minimum = 0.0425 (at node 4)
	maximum = 0.0605 (at node 13)
Injected packet length average = 1
Accepted packet length average = 1
Total in-flight flits = 16 (16 measured)
latency change    = 0.0107915
throughput change = 0.0485556
Class 0:
Packet latency average = 20.3969
	minimum = 7
	maximum = 60
Network latency average = 20.3969
	minimum = 7
	maximum = 60
Slowest packet = 39650
Flit latency average = 20.4166
	minimum = 7
	maximum = 60
Slowest flit = 39650
Fragmentation average = 0
	minimum = 0
	maximum = 0
Injected packet rate average = 0.0505833
	minimum = 0.0433333 (at node 14)
	maximum = 0.0586667 (at node 13)
Accepted packet rate average = 0.0505625
	minimum = 0.041 (at node 6)
	maximum = 0.0566667 (at node 9)
Injected flit rate average = 0.0505833
	minimum = 0.0433333 (at node 14)
	maximum = 0.0586667 (at node 13)
Accepted flit rate average= 0.0505625
	minimum = 0.041 (at node 6)
	maximum = 0.0566667 (at node 9)
Injected packet length average = 1
Accepted packet length average = 1
Total in-flight flits = 17 (17 measured)
latency change    = 0.00202513
throughput change = 0.00556242
Draining all recorded packets ...
Draining remaining packets ...
Time taken is 6078 cycles
Class 0:
Packet latency average = 20.3025
	minimum = 7
	maximum = 49
Network latency average = 20.3025
	minimum = 7
	maximum = 49
Slowest packet = 41937
Flit latency average = 20.3025
	minimum = 7
	maximum = 49
Slowest flit = 41937
Fragmentation average = 0
	minimum = 0
	maximum = 0
Injected packet rate average = 0.048125
	minimum = 0.038 (at node 0)
	maximum = 0.06 (at node 10)
Accepted packet rate average = 0.0473125
	minimum = 0.038 (at node 0)
	maximum = 0.058 (at node 9)
Injected flit rate average = 0.048125
	minimum = 0.038 (at node 0)
	maximum = 0.06 (at node 10)
Accepted flit rate average= 0.0473125
	minimum = 0.038 (at node 0)
	maximum = 0.058 (at node 9)
Injected packet length average = 1
Accepted packet length average = 1
Total in-flight flits = 13 (0 measured)
latency change    = 1
throughput change = 1
Class 0:
Packet latency average = 20.4837
	minimum = 7
	maximum = 55
Network latency average = 20.4837
	minimum = 7
	maximum = 55
Slowest packet = 43135
Flit latency average = 20.4837
	minimum = 7
	maximum = 55
Slowest flit = 43135
Fragmentation average = 0
	minimum = 0
	maximum = 0
Injected packet rate average = 0.0485312
	minimum = 0.039 (at node 0)
	maximum = 0.0585 (at node 9)
Accepted packet rate average = 0.048
	minimum = 0.0395 (at node 0)
	maximum = 0.053 (at node 4)
Injected flit rate average = 0.0485312
	minimum = 0.039 (at node 0)
	maximum = 0.0585 (at node 9)
Accepted flit rate average= 0.048
	minimum = 0.0395 (at node 0)
	maximum = 0.053 (at node 4)
Injected packet length average = 1
Accepted packet length average = 1
Total in-flight flits = 17 (0 measured)
latency change    = 0.00884673
throughput change = 0.0143229
Class 0:
Packet latency average = 20.8433
	minimum = 7
	maximum = 55
Network latency average = 20.8433
	minimum = 7
	maximum = 55
Slowest packet = 43489
Flit latency average = 20.8433
	minimum = 7
	maximum = 55
Slowest flit = 43489
Fragmentation average = 0
	minimum = 0
	maximum = 0
Injected packet rate average = 0.0479375
	minimum = 0.039 (at node 11)
	maximum = 0.058 (at node 12)
Accepted packet rate average = 0.047875
	minimum = 0.039 (at node 0)
	maximum = 0.064 (at node 4)
Injected flit rate average = 0.0479375
	minimum = 0.039 (at node 11)
	maximum = 0.058 (at node 12)
Accepted flit rate average= 0.047875
	minimum = 0.039 (at node 0)
	maximum = 0.064 (at node 4)
Injected packet length average = 1
Accepted packet length average = 1
Total in-flight flits = 18 (0 measured)
latency change    = 0.0172534
throughput change = 0.00261097
Warmed up ...Time used is 3000 cycles
Class 0:
Packet latency average = 20.6512
	minimum = 7
	maximum = 52
Network latency average = 20.6512
	minimum = 7
	maximum = 52
Slowest packet = 44756
Flit latency average = 20.7448
	minimum = 7
	maximum = 58
Slowest flit = 44106
Fragmentation average = 0
	minimum = 0
	maximum = 0
Injected packet rate average = 0.048
	minimum = 0.035 (at node 0)
	maximum = 0.06 (at node 5)
Accepted packet rate average = 0.04825
	minimum = 0.036 (at node 5)
	maximum = 0.056 (at node 1)
Injected flit rate average = 0.048
	minimum = 0.035 (at node 0)
	maximum = 0.06 (at node 5)
Accepted flit rate average= 0.04825
	minimum = 0.036 (at node 5)
	maximum = 0.056 (at node 1)
Injected packet length average = 1
Accepted packet length average = 1
Total in-flight flits = 14 (14 measured)
latency change    = 0.00930447
throughput change = 0.00777202
Class 0:
Packet latency average = 20.451
	minimum = 7
	maximum = 60
Network latency average = 20.451
	minimum = 7
	maximum = 60
Slowest packet = 45505
Flit latency average = 20.5
	minimum = 7
	maximum = 60
Slowest flit = 45505
Fragmentation average = 0
	minimum = 0
	maximum = 0
Injected packet rate average = 0.0485625
	minimum = 0.04 (at node 1)
	maximum = 0.0555 (at node 4)
Accepted packet rate average = 0.0484375
	minimum = 0.041 (at node 12)
	maximum = 0.056 (at node 10)
Injected flit rate average = 0.0485625
	minimum = 0.04 (at node 1)
	maximum = 0.0555 (at node 4)
Accepted flit rate average= 0.0484375
	minimum = 0.041 (at node 12)
	maximum = 0.056 (at node 10)
Injected packet length average = 1
Accepted packet length average = 1
Total in-flight flits = 22 (22 measured)
latency change    = 0.00978675
throughput change = 0.00387097
Class 0:
Packet latency average = 20.5347
	minimum = 7
	maximum = 60
Network latency average = 20.5347
	minimum = 7
	maximum = 60
Slowest packet = 45505
Flit latency average = 20.5666
	minimum = 7
	maximum = 60
Slowest flit = 45505
Fragmentation average = 0
	minimum = 0
	maximum = 0
Injected packet rate average = 0.0486667
	minimum = 0.0433333 (at node 12)
	maximum = 0.0556667 (at node 4)
Accepted packet rate average = 0.0486458
	minimum = 0.044 (at node 8)
	maximum = 0.0563333 (at node 0)
Injected flit rate average = 0.0486667
	minimum = 0.0433333 (at node 12)
	maximum = 0.0556667 (at node 4)
Accepted flit rate average= 0.0486458
	minimum = 0.044 (at node 8)
	maximum = 0.0563333 (at node 0)
Injected packet length average = 1
Accepted packet length average = 1
Total in-flight flits = 19 (19 measured)
latency change    = 0.00407596
throughput change = 0.00428266
Draining all recorded packets ...
Draining remaining packets ...
Time taken is 6082 cycles
Class 0:
Packet latency average = 20.2615
	minimum = 7
	maximum = 62
Network latency average = 20.2615
	minimum = 7
	maximum = 62
Slowest packet = 46671
Flit latency average = 20.2615
	minimum = 7
	maximum = 62
Slowest flit = 46671
Fragmentation average = 0
	minimum = 0
	maximum = 0
Injected packet rate average = 0.0473125
	minimum = 0.034 (at node 13)
	maximum = 0.057 (at node 5)
Accepted packet rate average = 0.046375
	minimum = 0.038 (at node 15)
	maximum = 0.06 (at node 6)
Injected flit rate average = 0.0473125
	minimum = 0.034 (at node 13)
	maximum = 0.057 (at node 5)
Accepted flit rate average= 0.046375
	minimum = 0.038 (at node 15)
	maximum = 0.06 (at node 6)
Injected packet length average = 1
Accepted packet length average = 1
Total in-flight flits = 15 (0 measured)
latency change    = 1
throughput change = 1
Class 0:
Packet latency average = 20.3085
	minimum = 7
	maximum = 62
Network latency average = 20.3085
	minimum = 7
	maximum = 62
Slowest packet = 46671
Flit latency average = 20.3085
	minimum = 7
	maximum = 62
Slowest flit = 46671
Fragmentation average = 0
	minimum = 0
	maximum = 0
Injected packet rate average = 0.048625
	minimum = 0.0425 (at node 7)
	maximum = 0.0555 (at node 5)
Accepted packet rate average = 0.0482187
	minimum = 0.042 (at node 15)
	maximum = 0.0555 (at node 6)
Injected flit rate average = 0.048625
	minimum = 0.0425 (at node 7)
	maximum = 0.0555 (at node 5)
Accepted flit rate average= 0.0482187
	minimum = 0.042 (at node 15)
	maximum = 0.0555 (at node 6)
Injected packet length average = 1
Accepted packet length average = 1
Total in-flight flits = 13 (0 measured)
latency change    = 0.002316
throughput change = 0.0382372
Class 0:
Packet latency average = 20.8493
	minimum = 7
	maximum = 58
Network latency average = 20.8493
	minimum = 7
	maximum = 58
Slowest packet = 48395
Flit latency average = 20.8493
	minimum = 7
	maximum = 58
Slowest flit = 48395
Fragmentation average = 0
	minimum = 0
	maximum = 0
Injected packet rate average = 0.04775
	minimum = 0.037 (at node 9)
	maximum = 0.064 (at node 6)
Accepted packet rate average = 0.0476875
	minimum = 0.035 (at node 11)
	maximum = 0.06 (at node 10)
Injected flit rate average = 0.04775
	minimum = 0.037 (at node 9)
	maximum = 0.064 (at node 6)
Accepted flit rate average= 0.0476875
	minimum = 0.035 (at node 11)
	maximum = 0.06 (at node 10)
Injected packet length average = 1
Accepted packet length average = 1
Total in-flight flits = 14 (0 measured)
latency change    = 0.025938
throughput change = 0.0111402
Warmed up ...Time used is 3000 cycles
Class 0:
Packet latency average = 20.8698
	minimum = 7
	maximum = 50
Network latency average = 20.8698
	minimum = 7
	maximum = 50
Slowest packet = 49424
Flit latency average = 20.933
	minimum = 7
	maximum = 50
Slowest flit = 49424
Fragmentation average = 0
	minimum = 0
	maximum = 0
Injected packet rate average = 0.0523125
	minimum = 0.039 (at node 5)
	maximum = 0.061 (at node 6)
Accepted packet rate average = 0.05225
	minimum = 0.039 (at node 5)
	maximum = 0.062 (at node 0)
Injected flit rate average = 0.0523125
	minimum = 0.039 (at node 5)
	maximum = 0.061 (at node 6)
Accepted flit rate average= 0.05225
	minimum = 0.039 (at node 5)
	maximum = 0.062 (at node 0)
Injected packet length average = 1
Accepted packet length average = 1
Total in-flight flits = 15 (15 measured)
latency change    = 0.0009847
throughput change = 0.0873206
Class 0:
Packet latency average = 20.4802
	minimum = 7
	maximum = 50
Network latency average = 20.4802
	minimum = 7
	maximum = 50
Slowest packet = 49424
Flit latency average = 20.5154
	minimum = 7
	maximum = 50
Slowest flit = 49424
Fragmentation average = 0
	minimum = 0
	maximum = 0
Injected packet rate average = 0.05175
	minimum = 0.045 (at node 13)
	maximum = 0.0595 (at node 4)
Accepted packet rate average = 0.0518438
	minimum = 0.041 (at node 5)
	maximum = 0.059 (at node 15)
Injected flit rate average = 0.05175
	minimum = 0.045 (at node 13)
	maximum = 0.0595 (at node 4)
Accepted flit rate average= 0.0518438
	minimum = 0.041 (at node 5)
	maximum = 0.059 (at node 15)
Injected packet length average = 1
Accepted packet length average = 1
Total in-flight flits = 11 (11 measured)
latency change    = 0.0190226
throughput change = 0.00783605
Class 0:
Packet latency average = 20.4572
	minimum = 7
	maximum = 54
Network latency average = 20.4572
	minimum = 7
	maximum = 54
Slowest packet = 50913
Flit latency average = 20.4811
	minimum = 7
	maximum = 54
Slowest flit = 50913
Fragmentation average = 0
	minimum = 0
	maximum = 0
Injected packet rate average = 0.0511458
	minimum = 0.0453333 (at node 13)
	maximum = 0.057 (at node 4)
Accepted packet rate average = 0.0511875
	minimum = 0.0453333 (at node 5)
	maximum = 0.0593333 (at node 1)
Injected flit rate average = 0.0511458
	minimum = 0.0453333 (at node 13)
	maximum = 0.057 (at node 4)
Accepted flit rate average= 0.0511875
	minimum = 0.0453333 (at node 5)
	maximum = 0.0593333 (at node 1)
Injected packet length average = 1
Accepted packet length average = 1
Total in-flight flits = 12 (12 measured)
latency change    = 0.0011252
throughput change = 0.0128205
Class 0:
Packet latency average = 20.5924
	minimum = 7
	maximum = 57
Network latency average = 20.5924
	minimum = 7
	maximum = 57
Slowest packet = 51505
Flit latency average = 20.6098
	minimum = 7
	maximum = 57
Slowest flit = 51505
Fragmentation average = 0
	minimum = 0
	maximum = 0
Injected packet rate average = 0.0509219
	minimum = 0.045 (at node 13)
	maximum = 0.054 (at node 4)
Accepted packet rate average = 0.0508906
	minimum = 0.046 (at node 3)
	maximum = 0.0545 (at node 1)
Injected flit rate average = 0.0509219
	minimum = 0.045 (at node 13)
	maximum = 0.054 (at node 4)
Accepted flit rate average= 0.0508906
	minimum = 0.046 (at node 3)
	maximum = 0.0545 (at node 1)
Injected packet length average = 1
Accepted packet length average = 1
Total in-flight flits = 16 (16 measured)
latency change    = 0.00656205
throughput change = 0.00583359
Draining all recorded packets ...
Draining remaining packets ...
Time taken is 7047 cycles
Class 0:
Packet latency average = 20.4442
	minimum = 7
	maximum = 48
Network latency average = 20.4442
	minimum = 7
	maximum = 48
Slowest packet = 52419
Flit latency average = 20.4442
	minimum = 7
	maximum = 48
Slowest flit = 52419
Fragmentation average = 0
	minimum = 0
	maximum = 0
Injected packet rate average = 0.0485625
	minimum = 0.036 (at node 10)
	maximum = 0.062 (at node 1)
Accepted packet rate average = 0.0475625
	minimum = 0.038 (at node 10)
	maximum = 0.059 (at node 1)
Injected flit rate average = 0.0485625
	minimum = 0.036 (at node 10)
	maximum = 0.062 (at node 1)
Accepted flit rate average= 0.0475625
	minimum = 0.038 (at node 10)
	maximum = 0.059 (at node 1)
Injected packet length average = 1
Accepted packet length average = 1
Total in-flight flits = 16 (0 measured)
latency change    = 1
throughput change = 1
Class 0:
Packet latency average = 20.4273
	minimum = 7
	maximum = 58
Network latency average = 20.4273
	minimum = 7
	maximum = 58
Slowest packet = 53071
Flit latency average = 20.4273
	minimum = 7
	maximum = 58
Slowest flit = 53071
Fragmentation average = 0
	minimum = 0
	maximum = 0
Injected packet rate average = 0.0499375
	minimum = 0.041 (at node 10)
	maximum = 0.058 (at node 2)
Accepted packet rate average = 0.0492187
	minimum = 0.0395 (at node 15)
	maximum = 0.0595 (at node 2)
Injected flit rate average = 0.0499375
	minimum = 0.041 (at node 10)
	maximum = 0.058 (at node 2)
Accepted flit rate average= 0.0492187
	minimum = 0.0395 (at node 15)
	maximum = 0.0595 (at node 2)
Injected packet length average = 1
Accepted packet length average = 1
Total in-flight flits = 23 (0 measured)
latency change    = 0.000824918
throughput change = 0.0336508
Class 0:
Packet latency average = 20.5913
	minimum = 7
	maximum = 54
Network latency average = 20.5913
	minimum = 7
	maximum = 54
Slowest packet = 54094
Flit latency average = 20.5913
	minimum = 7
	maximum = 54
Slowest flit = 54094
Fragmentation average = 0
	minimum = 0
	maximum = 0
Injected packet rate average = 0.049
	minimum = 0.039 (at node 4)
	maximum = 0.059 (at node 9)
Accepted packet rate average = 0.0489375
	minimum = 0.034 (at node 7)
	maximum = 0.063 (at node 1)
Injected flit rate average = 0.049
	minimum = 0.039 (at node 4)
	maximum = 0.059 (at node 9)
Accepted flit rate average= 0.0489375
	minimum = 0.034 (at node 7)
	maximum = 0.063 (at node 1)
Injected packet length average = 1
Accepted packet length average = 1
Total in-flight flits = 24 (0 measured)
latency change    = 0.0079652
throughput change = 0.00574713
Warmed up ...Time used is 3000 cycles
Class 0:
Packet latency average = 20.0423
	minimum = 7
	maximum = 68
Network latency average = 20.0423
	minimum = 7
	maximum = 68
Slowest packet = 54859
Flit latency average = 20.1754
	minimum = 7
	maximum = 68
Slowest flit = 54859
Fragmentation average = 0
	minimum = 0
	maximum = 0
Injected packet rate average = 0.049625
	minimum = 0.04 (at node 13)
	maximum = 0.061 (at node 4)
Accepted packet rate average = 0.05025
	minimum = 0.03 (at node 12)
	maximum = 0.07 (at node 9)
Injected flit rate average = 0.049625
	minimum = 0.04 (at node 13)
	maximum = 0.061 (at node 4)
Accepted flit rate average= 0.05025
	minimum = 0.03 (at node 12)
	maximum = 0.07 (at node 9)
Injected packet length average = 1
Accepted packet length average = 1
Total in-flight flits = 14 (14 measured)
latency change    = 0.0273924
throughput change = 0.0261194
Class 0:
Packet latency average = 20.8291
	minimum = 7
	maximum = 68
Network latency average = 20.8291
	minimum = 7
	maximum = 68
Slowest packet = 54859
Flit latency average = 20.8837
	minimum = 7
	maximum = 68
Slowest flit = 54859
Fragmentation average = 0
	minimum = 0
	maximum = 0
Injected packet rate average = 0.05025
	minimum = 0.0415 (at node 13)
	maximum = 0.059 (at node 7)
Accepted packet rate average = 0.0505
	minimum = 0.041 (at node 12)
	maximum = 0.06 (at node 3)
Injected flit rate average = 0.05025
	minimum = 0.0415 (at node 13)
	maximum = 0.059 (at node 7)
Accepted flit rate average= 0.0505
	minimum = 0.041 (at node 12)
	maximum = 0.06 (at node 3)
Injected packet length average = 1
Accepted packet length average = 1
Total in-flight flits = 16 (16 measured)
latency change    = 0.0377758
throughput change = 0.0049505
Class 0:
Packet latency average = 20.5814
	minimum = 7
	maximum = 68
Network latency average = 20.5814
	minimum = 7
	maximum = 68
Slowest packet = 54859
Flit latency average = 20.6206
	minimum = 7
	maximum = 68
Slowest flit = 54859
Fragmentation average = 0
	minimum = 0
	maximum = 0
Injected packet rate average = 0.0498542
	minimum = 0.0436667 (at node 14)
	maximum = 0.0563333 (at node 6)
Accepted packet rate average = 0.0500208
	minimum = 0.0443333 (at node 2)
	maximum = 0.0576667 (at node 3)
Injected flit rate average = 0.0498542
	minimum = 0.0436667 (at node 14)
	maximum = 0.0563333 (at node 6)
Accepted flit rate average= 0.0500208
	minimum = 0.0443333 (at node 2)
	maximum = 0.0576667 (at node 3)
Injected packet length average = 1
Accepted packet length average = 1
Total in-flight flits = 16 (16 measured)
latency change    = 0.0120371
throughput change = 0.00957934
Draining all recorded packets ...
Draining remaining packets ...
Time taken is 6068 cycles
Class 0:
Packet latency average = 20.6531
	minimum = 7
	maximum = 53
Network latency average = 20.6531
	minimum = 7
	maximum = 53
Slowest packet = 57063
Flit latency average = 20.6531
	minimum = 7
	maximum = 53
Slowest flit = 57063
Fragmentation average = 0
	minimum = 0
	maximum = 0
Injected packet rate average = 0.049875
	minimum = 0.037 (at node 6)
	maximum = 0.061 (at node 4)
Accepted packet rate average = 0.0491875
	minimum = 0.037 (at node 14)
	maximum = 0.064 (at node 0)
Injected flit rate average = 0.049875
	minimum = 0.037 (at node 6)
	maximum = 0.061 (at node 4)
Accepted flit rate average= 0.0491875
	minimum = 0.037 (at node 14)
	maximum = 0.064 (at node 0)
Injected packet length average = 1
Accepted packet length average = 1
Total in-flight flits = 11 (0 measured)
latency change    = 1
throughput change = 1
Class 0:
Packet latency average = 20.7951
	minimum = 7
	maximum = 56
Network latency average = 20.7951
	minimum = 7
	maximum = 56
Slowest packet = 58185
Flit latency average = 20.7951
	minimum = 7
	maximum = 56
Slowest flit = 58185
Fragmentation average = 0
	minimum = 0
	maximum = 0
Injected packet rate average = 0.0491875
	minimum = 0.0405 (at node 10)
	maximum = 0.0575 (at node 4)
Accepted packet rate average = 0.0486562
	minimum = 0.041 (at node 10)
	maximum = 0.056 (at node 0)
Injected flit rate average = 0.0491875
	minimum = 0.0405 (at node 10)
	maximum = 0.0575 (at node 4)
Accepted flit rate average= 0.0486562
	minimum = 0.041 (at node 10)
	maximum = 0.056 (at node 0)
Injected packet length average = 1
Accepted packet length average = 1
Total in-flight flits = 17 (0 measured)
latency change    = 0.0068288
throughput change = 0.0109184
Class 0:
Packet latency average = 21.0802
	minimum = 7
	maximum = 55
Network latency average = 21.0802
	minimum = 7
	maximum = 55
Slowest packet = 58859
Flit latency average = 21.0802
	minimum = 7
	maximum = 55
Slowest flit = 58859
Fragmentation average = 0
	minimum = 0
	maximum = 0
Injected packet rate average = 0.0511875
	minimum = 0.036 (at node 6)
	maximum = 0.067 (at node 7)
Accepted packet rate average = 0.0514375
	minimum = 0.034 (at node 8)
	maximum = 0.074 (at node 0)
Injected flit rate average = 0.0511875
	minimum = 0.036 (at node 6)
	maximum = 0.067 (at node 7)
Accepted flit rate average= 0.0514375
	minimum = 0.034 (at node 8)
	maximum = 0.074 (at node 0)
Injected packet length average = 1
Accepted packet length average = 1
Total in-flight flits = 13 (0 measured)
latency change    = 0.0135234
throughput change = 0.0540705
Warmed up ...Time used is 3000 cycles
Class 0:
Packet latency average = 19.8999
	minimum = 7
	maximum = 64
Network latency average = 19.8999
	minimum = 7
	maximum = 64
Slowest packet = 59348
Flit latency average = 20.0382
	minimum = 7
	maximum = 64
Slowest flit = 59348
Fragmentation average = 0
	minimum = 0
	maximum = 0
Injected packet rate average = 0.05075
	minimum = 0.041 (at node 15)
	maximum = 0.069 (at node 0)
Accepted packet rate average = 0.05075
	minimum = 0.042 (at node 11)
	maximum = 0.072 (at node 0)
Injected flit rate average = 0.05075
	minimum = 0.041 (at node 15)
	maximum = 0.069 (at node 0)
Accepted flit rate average= 0.05075
	minimum = 0.042 (at node 11)
	maximum = 0.072 (at node 0)
Injected packet length average = 1
Accepted packet length average = 1
Total in-flight flits = 13 (13 measured)
latency change    = 0.0593129
throughput change = 0.0135468
Class 0:
Packet latency average = 19.8765
	minimum = 7
	maximum = 64
Network latency average = 19.8765
	minimum = 7
	maximum = 64
Slowest packet = 59348
Flit latency average = 19.9491
	minimum = 7
	maximum = 64
Slowest flit = 59348
Fragmentation average = 0
	minimum = 0
	maximum = 0
Injected packet rate average = 0.0487187
	minimum = 0.0415 (at node 3)
	maximum = 0.0615 (at node 0)
Accepted packet rate average = 0.0484687
	minimum = 0.0365 (at node 12)
	maximum = 0.0595 (at node 0)
Injected flit rate average = 0.0487187
	minimum = 0.0415 (at node 3)
	maximum = 0.0615 (at node 0)
Accepted flit rate average= 0.0484687
	minimum = 0.0365 (at node 12)
	maximum = 0.0595 (at node 0)
Injected packet length average = 1
Accepted packet length average = 1
Total in-flight flits = 21 (21 measured)
latency change    = 0.00117787
throughput change = 0.0470664
Class 0:
Packet latency average = 20.134
	minimum = 7
	maximum = 64
Network latency average = 20.134
	minimum = 7
	maximum = 64
Slowest packet = 59348
Flit latency average = 20.1801
	minimum = 7
	maximum = 64
Slowest flit = 59348
Fragmentation average = 0
	minimum = 0
	maximum = 0
Injected packet rate average = 0.0496458
	minimum = 0.042 (at node 3)
	maximum = 0.0583333 (at node 0)
Accepted packet rate average = 0.0493958
	minimum = 0.0406667 (at node 12)
	maximum = 0.0576667 (at node 14)
Injected flit rate average = 0.0496458
	minimum = 0.042 (at node 3)
	maximum = 0.0583333 (at node 0)
Accepted flit rate average= 0.0493958
	minimum = 0.0406667 (at node 12)
	maximum = 0.0576667 (at node 14)
Injected packet length average = 1
Accepted packet length average = 1
Total in-flight flits = 25 (25 measured)
latency change    = 0.0127917
throughput change = 0.0187685
Class 0:
Packet latency average = 20.3356
	minimum = 7
	maximum = 66
Network latency average = 20.3356
	minimum = 7
	maximum = 66
Slowest packet = 62454
Flit latency average = 20.3687
	minimum = 7
	maximum = 66
Slowest flit = 62454
Fragmentation average = 0
	minimum = 0
	maximum = 0
Injected packet rate average = 0.0504219
	minimum = 0.04175 (at node 3)
	maximum = 0.05775 (at node 0)
Accepted packet rate average = 0.0503906
	minimum = 0.0425 (at node 12)
	maximum = 0.05725 (at node 0)
Injected flit rate average = 0.0504219
	minimum = 0.04175 (at node 3)
	maximum = 0.05775 (at node 0)
Accepted flit rate average= 0.0503906
	minimum = 0.0425 (at node 12)
	maximum = 0.05725 (at node 0)
Injected packet length average = 1
Accepted packet length average = 1
Total in-flight flits = 15 (15 measured)
latency change    = 0.00991387
throughput change = 0.0197416
Draining all recorded packets ...
Draining remaining packets ...
Time taken is 7052 cycles
Class 0:
Packet latency average = 20.177
	minimum = 7
	maximum = 53
Network latency average = 20.177
	minimum = 7
	maximum = 53
Slowest packet = 62611
Flit latency average = 20.177
	minimum = 7
	maximum = 53
Slowest flit = 62611
Fragmentation average = 0
	minimum = 0
	maximum = 0
Injected packet rate average = 0.0476875
	minimum = 0.034 (at node 2)
	maximum = 0.059 (at node 7)
Accepted packet rate average = 0.04625
	minimum = 0.037 (at node 2)
	maximum = 0.069 (at node 1)
Injected flit rate average = 0.0476875
	minimum = 0.034 (at node 2)
	maximum = 0.059 (at node 7)
Accepted flit rate average= 0.04625
	minimum = 0.037 (at node 2)
	maximum = 0.069 (at node 1)
Injected packet length average = 1
Accepted packet length average = 1
Total in-flight flits = 23 (0 measured)
latency change    = 1
throughput change = 1
Class 0:
Packet latency average = 20.573
	minimum = 7
	maximum = 60
Network latency average = 20.573
	minimum = 7
	maximum = 60
Slowest packet = 63824
Flit latency average = 20.573
	minimum = 7
	maximum = 60
Slowest flit = 63824
Fragmentation average = 0
	minimum = 0
	maximum = 0
Injected packet rate average = 0.0497812
	minimum = 0.04 (at node 5)
	maximum = 0.0575 (at node 7)
Accepted packet rate average = 0.04925
	minimum = 0.0375 (at node 2)
	maximum = 0.056 (at node 1)
Injected flit rate average = 0.0497812
	minimum = 0.04 (at node 5)
	maximum = 0.0575 (at node 7)
Accepted flit rate average= 0.04925
	minimum = 0.0375 (at node 2)
	maximum = 0.056 (at node 1)
Injected packet length average = 1
Accepted packet length average = 1
Total in-flight flits = 17 (0 measured)
latency change    = 0.0192458
throughput change = 0.0609137
Class 0:
Packet latency average = 20.3519
	minimum = 7
	maximum = 52
Network latency average = 20.3519
	minimum = 7
	maximum = 52
Slowest packet = 64299
Flit latency average = 20.3519
	minimum = 7
	maximum = 52
Slowest flit = 64299
Fragmentation average = 0
	minimum = 0
	maximum = 0
Injected packet rate average = 0.050875
	minimum = 0.041 (at node 5)
	maximum = 0.06 (at node 0)
Accepted packet rate average = 0.050625
	minimum = 0.039 (at node 0)
	maximum = 0.066 (at node 1)
Injected flit rate average = 0.050875
	minimum = 0.041 (at node 5)
	maximum = 0.06 (at node 0)
Accepted flit rate average= 0.050625
	minimum = 0.039 (at node 0)
	maximum = 0.066 (at node 1)
Injected packet length average = 1
Accepted packet length average = 1
Total in-flight flits = 21 (0 measured)
latency change    = 0.0108647
throughput change = 0.0271605
Warmed up ...Time used is 3000 cycles
Class 0:
Packet latency average = 20.3784
	minimum = 7
	maximum = 58
Network latency average = 20.3784
	minimum = 7
	maximum = 58
Slowest packet = 65503
Flit latency average = 20.4505
	minimum = 7
	maximum = 58
Slowest flit = 65503
Fragmentation average = 0
	minimum = 0
	maximum = 0
Injected packet rate average = 0.0505625
	minimum = 0.04 (at node 9)
	maximum = 0.061 (at node 1)
Accepted packet rate average = 0.0511875
	minimum = 0.042 (at node 11)
	maximum = 0.067 (at node 9)
Injected flit rate average = 0.0505625
	minimum = 0.04 (at node 9)
	maximum = 0.061 (at node 1)
Accepted flit rate average= 0.0511875
	minimum = 0.042 (at node 11)
	maximum = 0.067 (at node 9)
Injected packet length average = 1
Accepted packet length average = 1
Total in-flight flits = 11 (11 measured)
latency change    = 0.00130502
throughput change = 0.010989
Class 0:
Packet latency average = 20.3608
	minimum = 7
	maximum = 61
Network latency average = 20.3608
	minimum = 7
	maximum = 61
Slowest packet = 66179
Flit latency average = 20.3961
	minimum = 7
	maximum = 61
Slowest flit = 66179
Fragmentation average = 0
	minimum = 0
	maximum = 0
Injected packet rate average = 0.0523438
	minimum = 0.043 (at node 0)
	maximum = 0.0605 (at node 11)
Accepted packet rate average = 0.052625
	minimum = 0.047 (at node 3)
	maximum = 0.064 (at node 9)
Injected flit rate average = 0.0523438
	minimum = 0.043 (at node 0)
	maximum = 0.0605 (at node 11)
Accepted flit rate average= 0.052625
	minimum = 0.047 (at node 3)
	maximum = 0.064 (at node 9)
Injected packet length average = 1
Accepted packet length average = 1
Total in-flight flits = 12 (12 measured)
latency change    = 0.000866978
throughput change = 0.0273159
Class 0:
Packet latency average = 20.5709
	minimum = 7
	maximum = 66
Network latency average = 20.5709
	minimum = 7
	maximum = 66
Slowest packet = 67351
Flit latency average = 20.5931
	minimum = 7
	maximum = 66
Slowest flit = 67351
Fragmentation average = 0
	minimum = 0
	maximum = 0
Injected packet rate average = 0.0515625
	minimum = 0.0443333 (at node 0)
	maximum = 0.0586667 (at node 15)
Accepted packet rate average = 0.0517083
	minimum = 0.0463333 (at node 11)
	maximum = 0.059 (at node 4)
Injected flit rate average = 0.0515625
	minimum = 0.0443333 (at node 0)
	maximum = 0.0586667 (at node 15)
Accepted flit rate average= 0.0517083
	minimum = 0.0463333 (at node 11)
	maximum = 0.059 (at node 4)
Injected packet length average = 1
Accepted packet length average = 1
Total in-flight flits = 14 (14 measured)
latency change    = 0.0102141
throughput change = 0.0177276
Draining all recorded packets ...
Draining remaining packets ...
Time taken is 6062 cycles
Class 0:
Packet latency average = 20.4594
	minimum = 7
	maximum = 57
Network latency average = 20.4594
	minimum = 7
	maximum = 57
Slowest packet = 67691
Flit latency average = 20.4594
	minimum = 7
	maximum = 57
Slowest flit = 67691
Fragmentation average = 0
	minimum = 0
	maximum = 0
Injected packet rate average = 0.051625
	minimum = 0.036 (at node 15)
	maximum = 0.068 (at node 3)
Accepted packet rate average = 0.05075
	minimum = 0.04 (at node 1)
	maximum = 0.063 (at node 15)
Injected flit rate average = 0.051625
	minimum = 0.036 (at node 15)
	maximum = 0.068 (at node 3)
Accepted flit rate average= 0.05075
	minimum = 0.04 (at node 1)
	maximum = 0.063 (at node 15)
Injected packet length average = 1
Accepted packet length average = 1
Total in-flight flits = 14 (0 measured)
latency change    = 1
throughput change = 1
Class 0:
Packet latency average = 20.3531
	minimum = 7
	maximum = 57
Network latency average = 20.3531
	minimum = 7
	maximum = 57
Slowest packet = 67691
Flit latency average = 20.3531
	minimum = 7
	maximum = 57
Slowest flit = 67691
Fragmentation average = 0
	minimum = 0
	maximum = 0
Injected packet rate average = 0.051125
	minimum = 0.0425 (at node 8)
	maximum = 0.0595 (at node 3)
Accepted packet rate average = 0.0505312
	minimum = 0.0395 (at node 1)
	maximum = 0.0575 (at node 10)
Injected flit rate average = 0.051125
	minimum = 0.0425 (at node 8)
	maximum = 0.0595 (at node 3)
Accepted flit rate average= 0.0505312
	minimum = 0.0395 (at node 1)
	maximum = 0.0575 (at node 10)
Injected packet length average = 1
Accepted packet length average = 1
Total in-flight flits = 19 (0 measured)
latency change    = 0.00521967
throughput change = 0.004329
Class 0:
Packet latency average = 20.5689
	minimum = 7
	maximum = 55
Network latency average = 20.5689
	minimum = 7
	maximum = 55
Slowest packet = 69080
Flit latency average = 20.5689
	minimum = 7
	maximum = 55
Slowest flit = 69080
Fragmentation average = 0
	minimum = 0
	maximum = 0
Injected packet rate average = 0.049
	minimum = 0.041 (at node 5)
	maximum = 0.058 (at node 15)
Accepted packet rate average = 0.049
	minimum = 0.039 (at node 3)
	maximum = 0.059 (at node 2)
Injected flit rate average = 0.049
	minimum = 0.041 (at node 5)
	maximum = 0.058 (at node 15)
Accepted flit rate average= 0.049
	minimum = 0.039 (at node 3)
	maximum = 0.059 (at node 2)
Injected packet length average = 1
Accepted packet length average = 1
Total in-flight flits = 19 (0 measured)
latency change    = 0.0104894
throughput change = 0.03125
Warmed up ...Time used is 3000 cycles
Class 0:
Packet latency average = 20.5725
	minimum = 7
	maximum = 53
Network latency average = 20.5725
	minimum = 7
	maximum = 53
Slowest packet = 69966
Flit latency average = 20.6488
	minimum = 7
	maximum = 53
Slowest flit = 69966
Fragmentation average = 0
	minimum = 0
	maximum = 0
Injected packet rate average = 0.0523125
	minimum = 0.038 (at node 15)
	maximum = 0.066 (at node 14)
Accepted packet rate average = 0.0525
	minimum = 0.035 (at node 8)
	maximum = 0.071 (at node 12)
Injected flit rate average = 0.0523125
	minimum = 0.038 (at node 15)
	maximum = 0.066 (at node 14)
Accepted flit rate average= 0.0525
	minimum = 0.035 (at node 8)
	maximum = 0.071 (at node 12)
Injected packet length average = 1
Accepted packet length average = 1
Total in-flight flits = 16 (16 measured)
latency change    = 0.00017475
throughput change = 0.0666667
Class 0:
Packet latency average = 20.6003
	minimum = 7
	maximum = 54
Network latency average = 20.6003
	minimum = 7
	maximum = 54
Slowest packet = 70974
Flit latency average = 20.6396
	minimum = 7
	maximum = 54
Slowest flit = 70974
Fragmentation average = 0
	minimum = 0
	maximum = 0
Injected packet rate average = 0.0501875
	minimum = 0.046 (at node 1)
	maximum = 0.0625 (at node 2)
Accepted packet rate average = 0.0504687
	minimum = 0.036 (at node 8)
	maximum = 0.063 (at node 12)
Injected flit rate average = 0.0501875
	minimum = 0.046 (at node 1)
	maximum = 0.0625 (at node 2)
Accepted flit rate average= 0.0504687
	minimum = 0.036 (at node 8)
	maximum = 0.063 (at node 12)
Injected packet length average = 1
Accepted packet length average = 1
Total in-flight flits = 10 (10 measured)
latency change    = 0.00134843
throughput change = 0.0402477
Class 0:
Packet latency average = 20.489
	minimum = 7
	maximum = 60
Network latency average = 20.489
	minimum = 7
	maximum = 60
Slowest packet = 71940
Flit latency average = 20.5165
	minimum = 7
	maximum = 60
Slowest flit = 71940
Fragmentation average = 0
	minimum = 0
	maximum = 0
Injected packet rate average = 0.049875
	minimum = 0.044 (at node 6)
	maximum = 0.061 (at node 2)
Accepted packet rate average = 0.0498542
	minimum = 0.0403333 (at node 8)
	maximum = 0.0556667 (at node 12)
Injected flit rate average = 0.049875
	minimum = 0.044 (at node 6)
	maximum = 0.061 (at node 2)
Accepted flit rate average= 0.0498542
	minimum = 0.0403333 (at node 8)
	maximum = 0.0556667 (at node 12)
Injected packet length average = 1
Accepted packet length average = 1
Total in-flight flits = 20 (20 measured)
latency change    = 0.00542742
throughput change = 0.0123276
Class 0:
Packet latency average = 20.4202
	minimum = 7
	maximum = 62
Network latency average = 20.4202
	minimum = 7
	maximum = 62
Slowest packet = 72498
Flit latency average = 20.4411
	minimum = 7
	maximum = 62
Slowest flit = 72498
Fragmentation average = 0
	minimum = 0
	maximum = 0
Injected packet rate average = 0.0500312
	minimum = 0.04475 (at node 6)
	maximum = 0.05775 (at node 2)
Accepted packet rate average = 0.0500156
	minimum = 0.04575 (at node 15)
	maximum = 0.05375 (at node 5)
Injected flit rate average = 0.0500312
	minimum = 0.04475 (at node 6)
	maximum = 0.05775 (at node 2)
Accepted flit rate average= 0.0500156
	minimum = 0.04575 (at node 15)
	maximum = 0.05375 (at node 5)
Injected packet length average = 1
Accepted packet length average = 1
Total in-flight flits = 20 (20 measured)
latency change    = 0.00337274
throughput change = 0.00322816
Draining all recorded packets ...
Draining remaining packets ...
Time taken is 7055 cycles
Class 0:
Packet latency average = 20.3477
	minimum = 7
	maximum = 49
Network latency average = 20.3477
	minimum = 7
	maximum = 49
Slowest packet = 73479
Flit latency average = 20.3477
	minimum = 7
	maximum = 49
Slowest flit = 73479
Fragmentation average = 0
	minimum = 0
	maximum = 0
Injected packet rate average = 0.051125
	minimum = 0.037 (at node 6)
	maximum = 0.06 (at node 5)
Accepted packet rate average = 0.0494375
	minimum = 0.04 (at node 8)
	maximum = 0.059 (at node 11)
[...]
	minimum = 0.0406667 (at node 14)
	maximum = 0.0556667 (at node 11)
Injected flit rate average = 0.0497292
	minimum = 0.041 (at node 7)
	maximum = 0.0553333 (at node 12)
Accepted flit rate average= 0.0497083
	minimum = 0.0406667 (at node 14)
	maximum = 0.0556667 (at node 11)
Injected packet length average = 1
Accepted packet length average = 1
Total in-flight flits = 19 (19 measured)
latency change    = 0.00255771
throughput change = 0.0255658
Class 0:
Packet latency average = 20.6356
	minimum = 7
	maximum = 59
Network latency average = 20.6356
	minimum = 7
	maximum = 59
Slowest packet = 499590
Flit latency average = 20.6446
	minimum = 7
	maximum = 59
Slowest flit = 499590
Fragmentation average = 0
	minimum = 0
	maximum = 0
Injected packet rate average = 0.04975
	minimum = 0.04325 (at node 6)
	maximum = 0.0545 (at node 13)
Accepted packet rate average = 0.0498125
	minimum = 0.04475 (at node 13)
	maximum = 0.0535 (at node 11)
Injected flit rate average = 0.04975
	minimum = 0.04325 (at node 6)
	maximum = 0.0545 (at node 13)
Accepted flit rate average= 0.0498125
	minimum = 0.04475 (at node 13)
	maximum = 0.0535 (at node 11)
Injected packet length average = 1
Accepted packet length average = 1
Total in-flight flits = 14 (14 measured)
latency change    = 0.00469069
throughput change = 0.00209118
Draining all recorded packets ...
Draining remaining packets ...
Time taken is 7052 cycles
Class 0:
Packet latency average = 20.6747
	minimum = 7
	maximum = 50
Network latency average = 20.6747
	minimum = 7
	maximum = 50
Slowest packet = 500035
Flit latency average = 20.6747
	minimum = 7
	maximum = 50
Slowest flit = 500035
Fragmentation average = 0
	minimum = 0
	maximum = 0
Injected packet rate average = 0.0474375
	minimum = 0.036 (at node 7)
	maximum = 0.06 (at node 4)
Accepted packet rate average = 0.0465
	minimum = 0.039 (at node 10)
	maximum = 0.054 (at node 11)
Injected flit rate average = 0.0474375
	minimum = 0.036 (at node 7)
	maximum = 0.06 (at node 4)
Accepted flit rate average= 0.0465
	minimum = 0.039 (at node 10)
	maximum = 0.054 (at node 11)
Injected packet length average = 1
Accepted packet length average = 1
Total in-flight flits = 15 (0 measured)
latency change    = 1
throughput change = 1
Class 0:
Packet latency average = 20.5682
	minimum = 7
	maximum = 50
Network latency average = 20.5682
	minimum = 7
	maximum = 50
Slowest packet = 500035
Flit latency average = 20.5682
	minimum = 7
	maximum = 50
Slowest flit = 500035
Fragmentation average = 0
	minimum = 0
	maximum = 0
Injected packet rate average = 0.0472187
	minimum = 0.0385 (at node 1)
	maximum = 0.061 (at node 2)
Accepted packet rate average = 0.0465313
	minimum = 0.0385 (at node 10)
	maximum = 0.0545 (at node 8)
Injected flit rate average = 0.0472187
	minimum = 0.0385 (at node 1)
	maximum = 0.061 (at node 2)
Accepted flit rate average= 0.0465313
	minimum = 0.0385 (at node 10)
	maximum = 0.0545 (at node 8)
Injected packet length average = 1
Accepted packet length average = 1
Total in-flight flits = 22 (0 measured)
latency change    = 0.00518105
throughput change = 0.000671592
Class 0:
Packet latency average = 20.6715
	minimum = 7
	maximum = 60
Network latency average = 20.6715
	minimum = 7
	maximum = 60
Slowest packet = 501490
Flit latency average = 20.6715
	minimum = 7
	maximum = 60
Slowest flit = 501490
Fragmentation average = 0
	minimum = 0
	maximum = 0
Injected packet rate average = 0.0471875
	minimum = 0.037 (at node 1)
	maximum = 0.06 (at node 4)
Accepted packet rate average = 0.0475625
	minimum = 0.036 (at node 8)
	maximum = 0.061 (at node 9)
Injected flit rate average = 0.0471875
	minimum = 0.037 (at node 1)
	maximum = 0.06 (at node 4)
Accepted flit rate average= 0.0475625
	minimum = 0.036 (at node 8)
	maximum = 0.061 (at node 9)
Injected packet length average = 1
Accepted packet length average = 1
Total in-flight flits = 16 (0 measured)
latency change    = 0.00499811
throughput change = 0.021682
Warmed up ...Time used is 3000 cycles
Class 0:
Packet latency average = 20.5233
	minimum = 7
	maximum = 56
Network latency average = 20.5233
	minimum = 7
	maximum = 56
Slowest packet = 502767
Flit latency average = 20.5855
	minimum = 7
	maximum = 56
Slowest flit = 502767
Fragmentation average = 0
	minimum = 0
	maximum = 0
Injected packet rate average = 0.0516875
	minimum = 0.036 (at node 4)
	maximum = 0.058 (at node 2)
Accepted packet rate average = 0.051875
	minimum = 0.04 (at node 14)
	maximum = 0.067 (at node 10)
Injected flit rate average = 0.0516875
	minimum = 0.036 (at node 4)
	maximum = 0.058 (at node 2)
Accepted flit rate average= 0.051875
	minimum = 0.04 (at node 14)
	maximum = 0.067 (at node 10)
Injected packet length average = 1
Accepted packet length average = 1
Total in-flight flits = 13 (13 measured)
latency change    = 0.00721829
throughput change = 0.0831325
Class 0:
Packet latency average = 20.6062
	minimum = 7
	maximum = 56
Network latency average = 20.6056
	minimum = 7
	maximum = 56
Slowest packet = 502767
Flit latency average = 20.6372
	minimum = 7
	maximum = 56
Slowest flit = 502767
Fragmentation average = 0
	minimum = 0
	maximum = 0
Injected packet rate average = 0.049875
	minimum = 0.041 (at node 0)
	maximum = 0.055 (at node 7)
Accepted packet rate average = 0.0497812
	minimum = 0.042 (at node 0)
	maximum = 0.0575 (at node 11)
Injected flit rate average = 0.049875
	minimum = 0.041 (at node 0)
	maximum = 0.055 (at node 7)
Accepted flit rate average= 0.0497812
	minimum = 0.042 (at node 0)
	maximum = 0.0575 (at node 11)
Injected packet length average = 1
Accepted packet length average = 1
Total in-flight flits = 19 (19 measured)
latency change    = 0.00402174
throughput change = 0.042059
Class 0:
Packet latency average = 20.7117
	minimum = 7
	maximum = 56
Network latency average = 20.7113
	minimum = 7
	maximum = 56
Slowest packet = 502767
Flit latency average = 20.7313
	minimum = 7
	maximum = 56
Slowest flit = 502767
Fragmentation average = 0
	minimum = 0
	maximum = 0
Injected packet rate average = 0.0503542
	minimum = 0.046 (at node 0)
	maximum = 0.055 (at node 14)
Accepted packet rate average = 0.0504792
	minimum = 0.044 (at node 8)
	maximum = 0.059 (at node 15)
Injected flit rate average = 0.0503542
	minimum = 0.046 (at node 0)
	maximum = 0.055 (at node 14)
Accepted flit rate average= 0.0504792
	minimum = 0.044 (at node 8)
	maximum = 0.059 (at node 15)
Injected packet length average = 1
Accepted packet length average = 1
Total in-flight flits = 10 (10 measured)
latency change    = 0.00509181
throughput change = 0.0138258
Class 0:
Packet latency average = 20.6665
	minimum = 7
	maximum = 56
Network latency average = 20.6661
	minimum = 7
	maximum = 56
Slowest packet = 502767
Flit latency average = 20.6815
	minimum = 7
	maximum = 56
Slowest flit = 502767
Fragmentation average = 0
	minimum = 0
	maximum = 0
Injected packet rate average = 0.0504062
	minimum = 0.04525 (at node 11)
	maximum = 0.05575 (at node 13)
Accepted packet rate average = 0.0502812
	minimum = 0.04375 (at node 9)
	maximum = 0.05625 (at node 11)
Injected flit rate average = 0.0504062
	minimum = 0.04525 (at node 11)
	maximum = 0.05575 (at node 13)
Accepted flit rate average= 0.0502812
	minimum = 0.04375 (at node 9)
	maximum = 0.05625 (at node 11)
Injected packet length average = 1
Accepted packet length average = 1
Total in-flight flits = 24 (24 measured)
latency change    = 0.00218788
throughput change = 0.00393619
Draining all recorded packets ...
Draining remaining packets ...
Time taken is 7075 cycles
Class 0:
Packet latency average = 20.4246
	minimum = 7
	maximum = 56
Network latency average = 20.4246
	minimum = 7
	maximum = 56
Slowest packet = 505934
Flit latency average = 20.4246
	minimum = 7
	maximum = 56
Slowest flit = 505934
Fragmentation average = 0
	minimum = 0
	maximum = 0
Injected packet rate average = 0.0496875
	minimum = 0.043 (at node 1)
	maximum = 0.06 (at node 10)
Accepted packet rate average = 0.048875
	minimum = 0.037 (at node 1)
	maximum = 0.063 (at node 14)
Injected flit rate average = 0.0496875
	minimum = 0.043 (at node 1)
	maximum = 0.06 (at node 10)
Accepted flit rate average= 0.048875
	minimum = 0.037 (at node 1)
	maximum = 0.063 (at node 14)
Injected packet length average = 1
Accepted packet length average = 1
Total in-flight flits = 13 (0 measured)
latency change    = 1
throughput change = 1
Class 0:
Packet latency average = 20.4865
	minimum = 7
	maximum = 56
Network latency average = 20.4865
	minimum = 7
	maximum = 56
Slowest packet = 505934
Flit latency average = 20.4865
	minimum = 7
	maximum = 56
Slowest flit = 505934
Fragmentation average = 0
	minimum = 0
	maximum = 0
Injected packet rate average = 0.0504375
	minimum = 0.0445 (at node 12)
	maximum = 0.056 (at node 14)
Accepted packet rate average = 0.0498437
	minimum = 0.0415 (at node 1)
	maximum = 0.0615 (at node 14)
Injected flit rate average = 0.0504375
	minimum = 0.0445 (at node 12)
	maximum = 0.056 (at node 14)
Accepted flit rate average= 0.0498437
	minimum = 0.0415 (at node 1)
	maximum = 0.0615 (at node 14)
Injected packet length average = 1
Accepted packet length average = 1
Total in-flight flits = 19 (0 measured)
latency change    = 0.00302482
throughput change = 0.0194357
Class 0:
Packet latency average = 20.7466
	minimum = 7
	maximum = 51
Network latency average = 20.7466
	minimum = 7
	maximum = 51
Slowest packet = 507884
Flit latency average = 20.7466
	minimum = 7
	maximum = 51
Slowest flit = 507884
Fragmentation average = 0
	minimum = 0
	maximum = 0
Injected packet rate average = 0.0503125
	minimum = 0.04 (at node 10)
	maximum = 0.06 (at node 9)
Accepted packet rate average = 0.0505625
	minimum = 0.039 (at node 12)
	maximum = 0.064 (at node 0)
Injected flit rate average = 0.0503125
	minimum = 0.04 (at node 10)
	maximum = 0.06 (at node 9)
Accepted flit rate average= 0.0505625
	minimum = 0.039 (at node 12)
	maximum = 0.064 (at node 0)
Injected packet length average = 1
Accepted packet length average = 1
Total in-flight flits = 15 (0 measured)
latency change    = 0.012536
throughput change = 0.0142151
Warmed up ...Time used is 3000 cycles
Class 0:
Packet latency average = 20.3453
	minimum = 7
	maximum = 69
Network latency average = 20.3453
	minimum = 7
	maximum = 69
Slowest packet = 508026
Flit latency average = 20.4288
	minimum = 7
	maximum = 69
Slowest flit = 508026
Fragmentation average = 0
	minimum = 0
	maximum = 0
Injected packet rate average = 0.047625
	minimum = 0.037 (at node 4)
	maximum = 0.063 (at node 5)
Accepted packet rate average = 0.0478125
	minimum = 0.034 (at node 15)
	maximum = 0.061 (at node 8)
Injected flit rate average = 0.047625
	minimum = 0.037 (at node 4)
	maximum = 0.063 (at node 5)
Accepted flit rate average= 0.0478125
	minimum = 0.034 (at node 15)
	maximum = 0.061 (at node 8)
Injected packet length average = 1
Accepted packet length average = 1
Total in-flight flits = 12 (12 measured)
latency change    = 0.0197228
throughput change = 0.0575163
Class 0:
Packet latency average = 20.2384
	minimum = 7
	maximum = 69
Network latency average = 20.2384
	minimum = 7
	maximum = 69
Slowest packet = 508026
Flit latency average = 20.2814
	minimum = 7
	maximum = 69
Slowest flit = 508026
Fragmentation average = 0
	minimum = 0
	maximum = 0
Injected packet rate average = 0.047625
	minimum = 0.041 (at node 14)
	maximum = 0.06 (at node 5)
Accepted packet rate average = 0.0475312
	minimum = 0.038 (at node 4)
	maximum = 0.0585 (at node 8)
Injected flit rate average = 0.047625
	minimum = 0.041 (at node 14)
	maximum = 0.06 (at node 5)
Accepted flit rate average= 0.0475312
	minimum = 0.038 (at node 4)
	maximum = 0.0585 (at node 8)
Injected packet length average = 1
Accepted packet length average = 1
Total in-flight flits = 18 (18 measured)
latency change    = 0.00528469
throughput change = 0.00591716
Class 0:
Packet latency average = 20.2992
	minimum = 7
	maximum = 69
Network latency average = 20.2992
	minimum = 7
	maximum = 69
Slowest packet = 508026
Flit latency average = 20.3271
	minimum = 7
	maximum = 69
Slowest flit = 508026
Fragmentation average = 0
	minimum = 0
	maximum = 0
Injected packet rate average = 0.0480833
	minimum = 0.0426667 (at node 14)
	maximum = 0.0536667 (at node 5)
Accepted packet rate average = 0.0480833
	minimum = 0.0396667 (at node 7)
	maximum = 0.0573333 (at node 8)
Injected flit rate average = 0.0480833
	minimum = 0.0426667 (at node 14)
	maximum = 0.0536667 (at node 5)
Accepted flit rate average= 0.0480833
	minimum = 0.0396667 (at node 7)
	maximum = 0.0573333 (at node 8)
Injected packet length average = 1
Accepted packet length average = 1
Total in-flight flits = 15 (15 measured)
latency change    = 0.00299478
throughput change = 0.0114818
Class 0:
Packet latency average = 20.3616
	minimum = 7
	maximum = 69
Network latency average = 20.3616
	minimum = 7
	maximum = 69
Slowest packet = 508026
Flit latency average = 20.3819
	minimum = 7
	maximum = 69
Slowest flit = 508026
Fragmentation average = 0
	minimum = 0
	maximum = 0
Injected packet rate average = 0.0490937
	minimum = 0.04475 (at node 14)
	maximum = 0.0525 (at node 5)
Accepted packet rate average = 0.0490156
	minimum = 0.04225 (at node 4)
	maximum = 0.057 (at node 8)
Injected flit rate average = 0.0490937
	minimum = 0.04475 (at node 14)
	maximum = 0.0525 (at node 5)
Accepted flit rate average= 0.0490156
	minimum = 0.04225 (at node 4)
	maximum = 0.057 (at node 8)
Injected packet length average = 1
Accepted packet length average = 1
Total in-flight flits = 20 (20 measured)
latency change    = 0.00306733
throughput change = 0.0190203
Draining all recorded packets ...
Draining remaining packets ...
Time taken is 7068 cycles
Class 0:
Packet latency average = 20.2197
	minimum = 7
	maximum = 50
Network latency average = 20.2197
	minimum = 7
	maximum = 50
Slowest packet = 511128
Flit latency average = 20.2197
	minimum = 7
	maximum = 50
Slowest flit = 511128
Fragmentation average = 0
	minimum = 0
	maximum = 0
Injected packet rate average = 0.048375
	minimum = 0.037 (at node 13)
	maximum = 0.062 (at node 10)
Accepted packet rate average = 0.0469375
	minimum = 0.039 (at node 6)
	maximum = 0.056 (at node 15)
Injected flit rate average = 0.048375
	minimum = 0.037 (at node 13)
	maximum = 0.062 (at node 10)
Accepted flit rate average= 0.0469375
	minimum = 0.039 (at node 6)
	maximum = 0.056 (at node 15)
Injected packet length average = 1
Accepted packet length average = 1
Total in-flight flits = 23 (0 measured)
latency change    = 1
throughput change = 1
Class 0:
Packet latency average = 20.4208
	minimum = 7
	maximum = 59
Network latency average = 20.4208
	minimum = 7
	maximum = 59
Slowest packet = 512223
Flit latency average = 20.4208
	minimum = 7
	maximum = 59
Slowest flit = 512223
Fragmentation average = 0
	minimum = 0
	maximum = 0
Injected packet rate average = 0.0489687
	minimum = 0.0415 (at node 15)
	maximum = 0.056 (at node 6)
Accepted packet rate average = 0.0485625
	minimum = 0.039 (at node 12)
	maximum = 0.0575 (at node 15)
Injected flit rate average = 0.0489687
	minimum = 0.0415 (at node 15)
	maximum = 0.056 (at node 6)
Accepted flit rate average= 0.0485625
	minimum = 0.039 (at node 12)
	maximum = 0.0575 (at node 15)
Injected packet length average = 1
Accepted packet length average = 1
Total in-flight flits = 13 (0 measured)
latency change    = 0.00984985
throughput change = 0.033462
Class 0:
Packet latency average = 20.099
	minimum = 7
	maximum = 56
Network latency average = 20.099
	minimum = 7
	maximum = 56
Slowest packet = 513084
Flit latency average = 20.099
	minimum = 7
	maximum = 56
Slowest flit = 513084
Fragmentation average = 0
	minimum = 0
	maximum = 0
Injected packet rate average = 0.0486875
	minimum = 0.036 (at node 3)
	maximum = 0.06 (at node 12)
Accepted packet rate average = 0.048625
	minimum = 0.036 (at node 3)
	maximum = 0.059 (at node 15)
Injected flit rate average = 0.0486875
	minimum = 0.036 (at node 3)
	maximum = 0.06 (at node 12)
Accepted flit rate average= 0.048625
	minimum = 0.036 (at node 3)
	maximum = 0.059 (at node 15)
Injected packet length average = 1
Accepted packet length average = 1
Total in-flight flits = 14 (0 measured)
latency change    = 0.0160146
throughput change = 0.00128535
Warmed up ...Time used is 3000 cycles
Class 0:
Packet latency average = 20.6531
	minimum = 7
	maximum = 58
Network latency average = 20.6531
	minimum = 7
	maximum = 58
Slowest packet = 513857
Flit latency average = 20.725
	minimum = 7
	maximum = 58
Slowest flit = 513857
Fragmentation average = 0
	minimum = 0
	maximum = 0
Injected packet rate average = 0.0466875
	minimum = 0.035 (at node 2)
	maximum = 0.055 (at node 1)
Accepted packet rate average = 0.0468125
	minimum = 0.03 (at node 13)
	maximum = 0.057 (at node 9)
Injected flit rate average = 0.0466875
	minimum = 0.035 (at node 2)
	maximum = 0.055 (at node 1)
Accepted flit rate average= 0.0468125
	minimum = 0.03 (at node 13)
	maximum = 0.057 (at node 9)
Injected packet length average = 1
Accepted packet length average = 1
Total in-flight flits = 12 (12 measured)
latency change    = 0.0268284
throughput change = 0.0387183
Class 0:
Packet latency average = 20.6266
	minimum = 7
	maximum = 58
Network latency average = 20.6266
	minimum = 7
	maximum = 58
Slowest packet = 513857
Flit latency average = 20.6613
	minimum = 7
	maximum = 58
Slowest flit = 513857
Fragmentation average = 0
	minimum = 0
	maximum = 0
Injected packet rate average = 0.048875
	minimum = 0.0365 (at node 12)
	maximum = 0.054 (at node 8)
Accepted packet rate average = 0.0488125
	minimum = 0.0415 (at node 2)
	maximum = 0.06 (at node 3)
Injected flit rate average = 0.048875
	minimum = 0.0365 (at node 12)
	maximum = 0.054 (at node 8)
Accepted flit rate average= 0.0488125
	minimum = 0.0415 (at node 2)
	maximum = 0.06 (at node 3)
Injected packet length average = 1
Accepted packet length average = 1
Total in-flight flits = 16 (16 measured)
latency change    = 0.00128214
throughput change = 0.0409731
Class 0:
Packet latency average = 20.7487
	minimum = 7
	maximum = 58
Network latency average = 20.7487
	minimum = 7
	maximum = 58
Slowest packet = 513857
Flit latency average = 20.7711
	minimum = 7
	maximum = 58
Slowest flit = 513857
Fragmentation average = 0
	minimum = 0
	maximum = 0
Injected packet rate average = 0.0487292
	minimum = 0.0396667 (at node 12)
	maximum = 0.0546667 (at node 7)
Accepted packet rate average = 0.0487917
	minimum = 0.042 (at node 1)
	maximum = 0.0566667 (at node 10)
Injected flit rate average = 0.0487292
	minimum = 0.0396667 (at node 12)
	maximum = 0.0546667 (at node 7)
Accepted flit rate average= 0.0487917
	minimum = 0.042 (at node 1)
	maximum = 0.0566667 (at node 10)
Injected packet length average = 1
Accepted packet length average = 1
Total in-flight flits = 11 (11 measured)
latency change    = 0.00588453
throughput change = 0.000426985
Draining all recorded packets ...
Draining remaining packets ...
Time taken is 6054 cycles
====== Overall Traffic Statistics ======
====== Traffic class 0 ======
Packet latency average = 20.5078 (100 samples)
	minimum = 7 (100 samples)
	maximum = 63.21 (100 samples)
Network latency average = 20.5078 (100 samples)
	minimum = 7 (100 samples)
	maximum = 63.21 (100 samples)
Flit latency average = 20.5269 (100 samples)
	minimum = 7 (100 samples)
	maximum = 63.26 (100 samples)
Fragmentation average = 0 (100 samples)
	minimum = 0 (100 samples)
	maximum = 0 (100 samples)
Injected packet rate average = 0.0500636 (100 samples)
	minimum = 0.0435335 (100 samples)
	maximum = 0.0570227 (100 samples)
Accepted packet rate average = 0.0500653 (100 samples)
	minimum = 0.0432112 (100 samples)
	maximum = 0.0570538 (100 samples)
Injected flit rate average = 0.0500636 (100 samples)
	minimum = 0.0435335 (100 samples)
	maximum = 0.0570227 (100 samples)
Accepted flit rate average = 0.0500653 (100 samples)
	minimum = 0.0432112 (100 samples)
	maximum = 0.0570538 (100 samples)
Injected packet size average = 1 (100 samples)
Accepted packet size average = 1 (100 samples)
Hops average = 3.49841 (100 samples)
Total run time 7.7399
