BEGIN Configuration File: /tmp/bs_1138183_557574.cfg
topology = mesh;
k = 4;
n = 2;
routing_function = dor;
num_vcs = 4;
vc_buf_size = 4;
wait_for_tail_credit = 1;
vc_allocator = islip;
sw_allocator = islip;
alloc_iters = 1;
credit_delay = 2;
routing_delay = 1;
vc_alloc_delay = 1;
sw_alloc_delay = 1;
input_speedup = 2;
output_speedup = 1;
internal_speedup = 1.0;
traffic = uniform;
packet_size = 1;
sim_type = latency;
injection_rate = 0.02;
warmup_periods = 3;
sample_period = 1000;
sim_count = 100;
seed = 4;

END Configuration File: /tmp/bs_1138183_557574.cfg
Class 0:
Packet latency average = 19.0422
	minimum = 7
	maximum = 37
Network latency average = 19.0422
	minimum = 7
	maximum = 37
Slowest packet = 24
Flit latency average = 19.0422
	minimum = 7
	maximum = 37
Slowest flit = 24
Fragmentation average = 0
	minimum = 0
	maximum = 0
Injected packet rate average = 0.021
	minimum = 0.011 (at node 0)
	maximum = 0.032 (at node 5)
Accepted packet rate average = 0.02075
	minimum = 0.016 (at node 1)
	maximum = 0.028 (at node 3)
Injected flit rate average = 0.021
	minimum = 0.011 (at node 0)
	maximum = 0.032 (at node 5)
Accepted flit rate average= 0.02075
	minimum = 0.016 (at node 1)
	maximum = 0.028 (at node 3)
Injected packet length average = 1
Accepted packet length average = 1
Total in-flight flits = 4 (0 measured)
latency change    = 1
throughput change = 1
Class 0:
Packet latency average = 19.3445
	minimum = 7
	maximum = 37
Network latency average = 19.3445
	minimum = 7
	maximum = 37
Slowest packet = 24
Flit latency average = 19.3445
	minimum = 7
	maximum = 37
Slowest flit = 24
Fragmentation average = 0
	minimum = 0
	maximum = 0
Injected packet rate average = 0.0207188
	minimum = 0.0135 (at node 0)
	maximum = 0.025 (at node 5)
Accepted packet rate average = 0.0205938
	minimum = 0.0145 (at node 2)
	maximum = 0.0245 (at node 3)
Injected flit rate average = 0.0207188
	minimum = 0.0135 (at node 0)
	maximum = 0.025 (at node 5)
Accepted flit rate average= 0.0205938
	minimum = 0.0145 (at node 2)
	maximum = 0.0245 (at node 3)
Injected packet length average = 1
Accepted packet length average = 1
Total in-flight flits = 4 (0 measured)
latency change    = 0.0156268
throughput change = 0.00758725
Class 0:
Packet latency average = 19.6327
	minimum = 7
	maximum = 37
Network latency average = 19.6327
	minimum = 7
	maximum = 37
Slowest packet = 700
Flit latency average = 19.6327
	minimum = 7
	maximum = 37
Slowest flit = 700
Fragmentation average = 0
	minimum = 0
	maximum = 0
Injected packet rate average = 0.0204375
	minimum = 0.011 (at node 6)
	maximum = 0.031 (at node 14)
Accepted packet rate average = 0.02025
	minimum = 0.016 (at node 4)
	maximum = 0.024 (at node 9)
Injected flit rate average = 0.0204375
	minimum = 0.011 (at node 6)
	maximum = 0.031 (at node 14)
Accepted flit rate average= 0.02025
	minimum = 0.016 (at node 4)
	maximum = 0.024 (at node 9)
Injected packet length average = 1
Accepted packet length average = 1
Total in-flight flits = 7 (0 measured)
latency change    = 0.0146824
throughput change = 0.0169753
Warmed up ...Time used is 3000 cycles
Class 0:
Packet latency average = 19.1392
	minimum = 7
	maximum = 37
Network latency average = 19.1392
	minimum = 7
	maximum = 37
Slowest packet = 1005
Flit latency average = 19.25
	minimum = 7
	maximum = 37
Slowest flit = 1005
Fragmentation average = 0
	minimum = 0
	maximum = 0
Injected packet rate average = 0.019875
	minimum = 0.011 (at node 12)
	maximum = 0.028 (at node 6)
Accepted packet rate average = 0.01975
	minimum = 0.014 (at node 11)
	maximum = 0.027 (at node 2)
Injected flit rate average = 0.019875
	minimum = 0.011 (at node 12)
	maximum = 0.028 (at node 6)
Accepted flit rate average= 0.01975
	minimum = 0.014 (at node 11)
	maximum = 0.027 (at node 2)
Injected packet length average = 1
Accepted packet length average = 1
Total in-flight flits = 9 (9 measured)
latency change    = 0.0257878
throughput change = 0.0253165
Class 0:
Packet latency average = 19.456
	minimum = 7
	maximum = 37
Network latency average = 19.456
	minimum = 7
	maximum = 37
Slowest packet = 1005
Flit latency average = 19.5079
	minimum = 7
	maximum = 37
Slowest flit = 1005
Fragmentation average = 0
	minimum = 0
	maximum = 0
Injected packet rate average = 0.0197813
	minimum = 0.0115 (at node 4)
	maximum = 0.0265 (at node 13)
Accepted packet rate average = 0.01975
	minimum = 0.017 (at node 8)
	maximum = 0.0245 (at node 10)
Injected flit rate average = 0.0197813
	minimum = 0.0115 (at node 4)
	maximum = 0.0265 (at node 13)
Accepted flit rate average= 0.01975
	minimum = 0.017 (at node 8)
	maximum = 0.0245 (at node 10)
Injected packet length average = 1
Accepted packet length average = 1
Total in-flight flits = 8 (8 measured)
latency change    = 0.016285
throughput change = 0
Class 0:
Packet latency average = 19.3728
	minimum = 7
	maximum = 37
Network latency average = 19.3728
	minimum = 7
	maximum = 37
Slowest packet = 1005
Flit latency average = 19.4075
	minimum = 7
	maximum = 37
Slowest flit = 1005
Fragmentation average = 0
	minimum = 0
	maximum = 0
Injected packet rate average = 0.0199792
	minimum = 0.0133333 (at node 4)
	maximum = 0.0256667 (at node 6)
Accepted packet rate average = 0.0200417
	minimum = 0.0173333 (at node 8)
	maximum = 0.0236667 (at node 0)
Injected flit rate average = 0.0199792
	minimum = 0.0133333 (at node 4)
	maximum = 0.0256667 (at node 6)
Accepted flit rate average= 0.0200417
	minimum = 0.0173333 (at node 8)
	maximum = 0.0236667 (at node 0)
Injected packet length average = 1
Accepted packet length average = 1
Total in-flight flits = 4 (4 measured)
latency change    = 0.00429598
throughput change = 0.014553
Draining all recorded packets ...
Draining remaining packets ...
Time taken is 6051 cycles
Class 0:
Packet latency average = 19.4858
	minimum = 7
	maximum = 37
Network latency average = 19.4858
	minimum = 7
	maximum = 37
Slowest packet = 1973
Flit latency average = 19.4858
	minimum = 7
	maximum = 37
Slowest flit = 1973
Fragmentation average = 0
	minimum = 0
	maximum = 0
Injected packet rate average = 0.0201875
	minimum = 0.011 (at node 8)
	maximum = 0.028 (at node 10)
Accepted packet rate average = 0.0198125
	minimum = 0.014 (at node 5)
	maximum = 0.03 (at node 1)
Injected flit rate average = 0.0201875
	minimum = 0.011 (at node 8)
	maximum = 0.028 (at node 10)
Accepted flit rate average= 0.0198125
	minimum = 0.014 (at node 5)
	maximum = 0.03 (at node 1)
Injected packet length average = 1
Accepted packet length average = 1
Total in-flight flits = 6 (0 measured)
latency change    = 1
throughput change = 1
Class 0:
Packet latency average = 19.4538
	minimum = 7
	maximum = 37
Network latency average = 19.4538
	minimum = 7
	maximum = 37
Slowest packet = 1973
Flit latency average = 19.4538
	minimum = 7
	maximum = 37
Slowest flit = 1973
Fragmentation average = 0
	minimum = 0
	maximum = 0
Injected packet rate average = 0.0201563
	minimum = 0.013 (at node 2)
	maximum = 0.029 (at node 10)
Accepted packet rate average = 0.0199688
	minimum = 0.017 (at node 3)
	maximum = 0.024 (at node 6)
Injected flit rate average = 0.0201563
	minimum = 0.013 (at node 2)
	maximum = 0.029 (at node 10)
Accepted flit rate average= 0.0199688
	minimum = 0.017 (at node 3)
	maximum = 0.024 (at node 6)
Injected packet length average = 1
Accepted packet length average = 1
Total in-flight flits = 6 (0 measured)
latency change    = 0.00164339
throughput change = 0.00782473
Class 0:
Packet latency average = 19.6803
	minimum = 7
	maximum = 37
Network latency average = 19.6803
	minimum = 7
	maximum = 37
Slowest packet = 2703
Flit latency average = 19.6803
	minimum = 7
	maximum = 37
Slowest flit = 2703
Fragmentation average = 0
	minimum = 0
	maximum = 0
Injected packet rate average = 0.0199375
	minimum = 0.014 (at node 15)
	maximum = 0.03 (at node 7)
Accepted packet rate average = 0.0199375
	minimum = 0.011 (at node 13)
	maximum = 0.034 (at node 11)
Injected flit rate average = 0.0199375
	minimum = 0.014 (at node 15)
	maximum = 0.03 (at node 7)
Accepted flit rate average= 0.0199375
	minimum = 0.011 (at node 13)
	maximum = 0.034 (at node 11)
Injected packet length average = 1
Accepted packet length average = 1
Total in-flight flits = 6 (0 measured)
latency change    = 0.0115048
throughput change = 0.0015674
Warmed up ...Time used is 3000 cycles
Class 0:
Packet latency average = 18.5498
	minimum = 7
	maximum = 37
Network latency average = 18.5498
	minimum = 7
	maximum = 37
Slowest packet = 2954
Flit latency average = 18.5724
	minimum = 7
	maximum = 37
Slowest flit = 2954
Fragmentation average = 0
	minimum = 0
	maximum = 0
Injected packet rate average = 0.0183125
	minimum = 0.011 (at node 3)
	maximum = 0.028 (at node 12)
Accepted packet rate average = 0.0185625
	minimum = 0.011 (at node 9)
	maximum = 0.027 (at node 13)
Injected flit rate average = 0.0183125
	minimum = 0.011 (at node 3)
	maximum = 0.028 (at node 12)
Accepted flit rate average= 0.0185625
	minimum = 0.011 (at node 9)
	maximum = 0.027 (at node 13)
Injected packet length average = 1
Accepted packet length average = 1
Total in-flight flits = 2 (2 measured)
latency change    = 0.0609398
throughput change = 0.0740741
Class 0:
Packet latency average = 18.9728
	minimum = 7
	maximum = 38
Network latency average = 18.9728
	minimum = 7
	maximum = 38
Slowest packet = 3311
Flit latency average = 18.9798
	minimum = 7
	maximum = 38
Slowest flit = 3311
Fragmentation average = 0
	minimum = 0
	maximum = 0
Injected packet rate average = 0.0184687
	minimum = 0.014 (at node 7)
	maximum = 0.0255 (at node 15)
Accepted packet rate average = 0.0185625
	minimum = 0.0145 (at node 2)
	maximum = 0.027 (at node 13)
Injected flit rate average = 0.0184687
	minimum = 0.014 (at node 7)
	maximum = 0.0255 (at node 15)
Accepted flit rate average= 0.0185625
	minimum = 0.0145 (at node 2)
	maximum = 0.027 (at node 13)
Injected packet length average = 1
Accepted packet length average = 1
Total in-flight flits = 3 (3 measured)
latency change    = 0.022293
throughput change = 0
Class 0:
Packet latency average = 19.1279
	minimum = 7
	maximum = 38
Network latency average = 19.1279
	minimum = 7
	maximum = 38
Slowest packet = 3311
Flit latency average = 19.1316
	minimum = 7
	maximum = 38
Slowest flit = 3311
Fragmentation average = 0
	minimum = 0
	maximum = 0
Injected packet rate average = 0.0181875
	minimum = 0.014 (at node 2)
	maximum = 0.0236667 (at node 15)
Accepted packet rate average = 0.0182083
	minimum = 0.0143333 (at node 9)
	maximum = 0.0246667 (at node 8)
Injected flit rate average = 0.0181875
	minimum = 0.014 (at node 2)
	maximum = 0.0236667 (at node 15)
Accepted flit rate average= 0.0182083
	minimum = 0.0143333 (at node 9)
	maximum = 0.0246667 (at node 8)
Injected packet length average = 1
Accepted packet length average = 1
Total in-flight flits = 5 (5 measured)
latency change    = 0.00810812
throughput change = 0.0194508
Class 0:
Packet latency average = 19.2458
	minimum = 7
	maximum = 38
Network latency average = 19.2458
	minimum = 7
	maximum = 38
Slowest packet = 3311
Flit latency average = 19.2479
	minimum = 7
	maximum = 38
Slowest flit = 3311
Fragmentation average = 0
	minimum = 0
	maximum = 0
Injected packet rate average = 0.0185312
	minimum = 0.014 (at node 7)
	maximum = 0.02425 (at node 15)
Accepted packet rate average = 0.0185312
	minimum = 0.01475 (at node 9)
	maximum = 0.0235 (at node 8)
Injected flit rate average = 0.0185312
	minimum = 0.014 (at node 7)
	maximum = 0.02425 (at node 15)
Accepted flit rate average= 0.0185312
	minimum = 0.01475 (at node 9)
	maximum = 0.0235 (at node 8)
Injected packet length average = 1
Accepted packet length average = 1
Total in-flight flits = 6 (6 measured)
latency change    = 0.00612512
throughput change = 0.0174255
Draining all recorded packets ...
Draining remaining packets ...
Time taken is 7037 cycles
Class 0:
Packet latency average = 19.7423
	minimum = 7
	maximum = 37
Network latency average = 19.7423
	minimum = 7
	maximum = 37
Slowest packet = 4213
Flit latency average = 19.7423
	minimum = 7
	maximum = 37
Slowest flit = 4213
Fragmentation average = 0
	minimum = 0
	maximum = 0
Injected packet rate average = 0.020875
	minimum = 0.012 (at node 1)
	maximum = 0.028 (at node 8)
Accepted packet rate average = 0.020375
	minimum = 0.014 (at node 5)
	maximum = 0.028 (at node 11)
Injected flit rate average = 0.020875
	minimum = 0.012 (at node 1)
	maximum = 0.028 (at node 8)
Accepted flit rate average= 0.020375
	minimum = 0.014 (at node 5)
	maximum = 0.028 (at node 11)
Injected packet length average = 1
Accepted packet length average = 1
Total in-flight flits = 8 (0 measured)
latency change    = 1
throughput change = 1
Class 0:
Packet latency average = 19.4837
	minimum = 7
	maximum = 37
Network latency average = 19.4837
	minimum = 7
	maximum = 37
Slowest packet = 4213
Flit latency average = 19.4837
	minimum = 7
	maximum = 37
Slowest flit = 4213
Fragmentation average = 0
	minimum = 0
	maximum = 0
Injected packet rate average = 0.0194375
	minimum = 0.0135 (at node 5)
	maximum = 0.0245 (at node 2)
Accepted packet rate average = 0.0191875
	minimum = 0.014 (at node 5)
	maximum = 0.0255 (at node 7)
Injected flit rate average = 0.0194375
	minimum = 0.0135 (at node 5)
	maximum = 0.0245 (at node 2)
Accepted flit rate average= 0.0191875
	minimum = 0.014 (at node 5)
	maximum = 0.0255 (at node 7)
Injected packet length average = 1
Accepted packet length average = 1
Total in-flight flits = 8 (0 measured)
latency change    = 0.0132735
throughput change = 0.0618893
Class 0:
Packet latency average = 19.4139
	minimum = 7
	maximum = 37
Network latency average = 19.4139
	minimum = 7
	maximum = 37
Slowest packet = 4815
Flit latency average = 19.4139
	minimum = 7
	maximum = 37
Slowest flit = 4815
Fragmentation average = 0
	minimum = 0
	maximum = 0
Injected packet rate average = 0.019
	minimum = 0.016 (at node 1)
	maximum = 0.023 (at node 11)
Accepted packet rate average = 0.018875
	minimum = 0.013 (at node 1)
	maximum = 0.03 (at node 13)
Injected flit rate average = 0.019
	minimum = 0.016 (at node 1)
	maximum = 0.023 (at node 11)
Accepted flit rate average= 0.018875
	minimum = 0.013 (at node 1)
	maximum = 0.03 (at node 13)
Injected packet length average = 1
Accepted packet length average = 1
Total in-flight flits = 10 (0 measured)
latency change    = 0.00359567
throughput change = 0.0165563
Warmed up ...Time used is 3000 cycles
Class 0:
Packet latency average = 18.8626
	minimum = 7
	maximum = 37
Network latency average = 18.8626
	minimum = 7
	maximum = 37
Slowest packet = 5045
Flit latency average = 19.0836
	minimum = 7
	maximum = 37
Slowest flit = 5035
Fragmentation average = 0
	minimum = 0
	maximum = 0
Injected packet rate average = 0.020125
	minimum = 0.013 (at node 8)
	maximum = 0.027 (at node 12)
Accepted packet rate average = 0.0201875
	minimum = 0.013 (at node 5)
	maximum = 0.028 (at node 3)
Injected flit rate average = 0.020125
	minimum = 0.013 (at node 8)
	maximum = 0.027 (at node 12)
Accepted flit rate average= 0.0201875
	minimum = 0.013 (at node 5)
	maximum = 0.028 (at node 3)
Injected packet length average = 1
Accepted packet length average = 1
Total in-flight flits = 9 (9 measured)
latency change    = 0.0292265
throughput change = 0.0650155
Class 0:
Packet latency average = 18.9371
	minimum = 7
	maximum = 37
Network latency average = 18.9371
	minimum = 7
	maximum = 37
Slowest packet = 5045
Flit latency average = 19.0464
	minimum = 7
	maximum = 37
Slowest flit = 5035
Fragmentation average = 0
	minimum = 0
	maximum = 0
Injected packet rate average = 0.0200625
	minimum = 0.016 (at node 1)
	maximum = 0.027 (at node 15)
Accepted packet rate average = 0.0201875
	minimum = 0.0155 (at node 0)
	maximum = 0.0245 (at node 9)
Injected flit rate average = 0.0200625
	minimum = 0.016 (at node 1)
	maximum = 0.027 (at node 15)
Accepted flit rate average= 0.0201875
	minimum = 0.0155 (at node 0)
	maximum = 0.0245 (at node 9)
Injected packet length average = 1
Accepted packet length average = 1
Total in-flight flits = 6 (6 measured)
latency change    = 0.00393339
throughput change = 0
Class 0:
Packet latency average = 18.9684
	minimum = 7
	maximum = 37
Network latency average = 18.9684
	minimum = 7
	maximum = 37
Slowest packet = 5045
Flit latency average = 19.0394
	minimum = 7
	maximum = 37
Slowest flit = 5035
Fragmentation average = 0
	minimum = 0
	maximum = 0
Injected packet rate average = 0.0205208
	minimum = 0.0153333 (at node 2)
	maximum = 0.025 (at node 0)
Accepted packet rate average = 0.0206458
	minimum = 0.017 (at node 5)
	maximum = 0.0246667 (at node 4)
Injected flit rate average = 0.0205208
	minimum = 0.0153333 (at node 2)
	maximum = 0.025 (at node 0)
Accepted flit rate average= 0.0206458
	minimum = 0.017 (at node 5)
	maximum = 0.0246667 (at node 4)
Injected packet length average = 1
Accepted packet length average = 1
Total in-flight flits = 4 (4 measured)
latency change    = 0.00164973
throughput change = 0.0221998
Class 0:
Packet latency average = 18.8072
	minimum = 7
	maximum = 37
Network latency average = 18.8072
	minimum = 7
	maximum = 37
Slowest packet = 5045
Flit latency average = 18.862
	minimum = 7
	maximum = 37
Slowest flit = 5035
Fragmentation average = 0
	minimum = 0
	maximum = 0
Injected packet rate average = 0.0204375
	minimum = 0.01675 (at node 2)
	maximum = 0.023 (at node 0)
Accepted packet rate average = 0.0205
	minimum = 0.017 (at node 1)
	maximum = 0.02225 (at node 8)
Injected flit rate average = 0.0204375
	minimum = 0.01675 (at node 2)
	maximum = 0.023 (at node 0)
Accepted flit rate average= 0.0205
	minimum = 0.017 (at node 1)
	maximum = 0.02225 (at node 8)
Injected packet length average = 1
Accepted packet length average = 1
Total in-flight flits = 6 (6 measured)
latency change    = 0.00857011
throughput change = 0.00711382
Draining all recorded packets ...
Draining remaining packets ...
Time taken is 7055 cycles
Class 0:
Packet latency average = 19.1211
	minimum = 7
	maximum = 37
Network latency average = 19.1211
	minimum = 7
	maximum = 37
Slowest packet = 6442
Flit latency average = 19.1211
	minimum = 7
	maximum = 37
Slowest flit = 6442
Fragmentation average = 0
	minimum = 0
	maximum = 0
Injected packet rate average = 0.0203125
	minimum = 0.012 (at node 7)
	maximum = 0.029 (at node 1)
Accepted packet rate average = 0.020125
	minimum = 0.011 (at node 11)
	maximum = 0.026 (at node 9)
Injected flit rate average = 0.0203125
	minimum = 0.012 (at node 7)
	maximum = 0.029 (at node 1)
Accepted flit rate average= 0.020125
	minimum = 0.011 (at node 11)
	maximum = 0.026 (at node 9)
Injected packet length average = 1
Accepted packet length average = 1
Total in-flight flits = 3 (0 measured)
latency change    = 1
throughput change = 1
Class 0:
Packet latency average = 19.4762
	minimum = 7
	maximum = 37
Network latency average = 19.4762
	minimum = 7
	maximum = 37
Slowest packet = 6442
Flit latency average = 19.4762
	minimum = 7
	maximum = 37
Slowest flit = 6442
Fragmentation average = 0
	minimum = 0
	maximum = 0
Injected packet rate average = 0.0205625
	minimum = 0.015 (at node 7)
	maximum = 0.027 (at node 4)
Accepted packet rate average = 0.0203438
	minimum = 0.017 (at node 15)
	maximum = 0.0235 (at node 2)
Injected flit rate average = 0.0205625
	minimum = 0.015 (at node 7)
	maximum = 0.027 (at node 4)
Accepted flit rate average= 0.0203438
	minimum = 0.017 (at node 15)
	maximum = 0.0235 (at node 2)
Injected packet length average = 1
Accepted packet length average = 1
Total in-flight flits = 7 (0 measured)
latency change    = 0.0182311
throughput change = 0.0107527
Class 0:
Packet latency average = 19.6711
	minimum = 7
	maximum = 37
Network latency average = 19.6711
	minimum = 7
	maximum = 37
Slowest packet = 7021
Flit latency average = 19.6711
	minimum = 7
	maximum = 37
Slowest flit = 7021
Fragmentation average = 0
	minimum = 0
	maximum = 0
Injected packet rate average = 0.019
	minimum = 0.013 (at node 7)
	maximum = 0.026 (at node 15)
Accepted packet rate average = 0.019
	minimum = 0.008 (at node 9)
	maximum = 0.03 (at node 7)
Injected flit rate average = 0.019
	minimum = 0.013 (at node 7)
	maximum = 0.026 (at node 15)
Accepted flit rate average= 0.019
	minimum = 0.008 (at node 9)
	maximum = 0.03 (at node 7)
Injected packet length average = 1
Accepted packet length average = 1
Total in-flight flits = 7 (0 measured)
latency change    = 0.00990604
throughput change = 0.0707237
Warmed up ...Time used is 3000 cycles
Class 0:
Packet latency average = 19.4873
	minimum = 7
	maximum = 37
Network latency average = 19.4873
	minimum = 7
	maximum = 37
Slowest packet = 7406
Flit latency average = 19.5108
	minimum = 7
	maximum = 37
Slowest flit = 7406
Fragmentation average = 0
	minimum = 0
	maximum = 0
Injected packet rate average = 0.0199375
	minimum = 0.011 (at node 9)
	maximum = 0.028 (at node 11)
Accepted packet rate average = 0.0201875
	minimum = 0.011 (at node 11)
	maximum = 0.033 (at node 1)
Injected flit rate average = 0.0199375
	minimum = 0.011 (at node 9)
	maximum = 0.028 (at node 11)
Accepted flit rate average= 0.0201875
	minimum = 0.011 (at node 11)
	maximum = 0.033 (at node 1)
Injected packet length average = 1
Accepted packet length average = 1
Total in-flight flits = 3 (3 measured)
latency change    = 0.00942719
throughput change = 0.0588235
Class 0:
Packet latency average = 19.8186
	minimum = 7
	maximum = 38
Network latency average = 19.8186
	minimum = 7
	maximum = 38
Slowest packet = 7715
Flit latency average = 19.8268
	minimum = 7
	maximum = 38
Slowest flit = 7715
Fragmentation average = 0
	minimum = 0
	maximum = 0
Injected packet rate average = 0.0199063
	minimum = 0.015 (at node 9)
	maximum = 0.026 (at node 6)
Accepted packet rate average = 0.0200313
	minimum = 0.014 (at node 11)
	maximum = 0.025 (at node 1)
Injected flit rate average = 0.0199063
	minimum = 0.015 (at node 9)
	maximum = 0.026 (at node 6)
Accepted flit rate average= 0.0200313
	minimum = 0.014 (at node 11)
	maximum = 0.025 (at node 1)
Injected packet length average = 1
Accepted packet length average = 1
Total in-flight flits = 3 (3 measured)
latency change    = 0.0167151
throughput change = 0.00780031
Class 0:
Packet latency average = 19.7289
	minimum = 7
	maximum = 38
Network latency average = 19.7289
	minimum = 7
	maximum = 38
Slowest packet = 7715
Flit latency average = 19.735
	minimum = 7
	maximum = 38
Slowest flit = 7715
Fragmentation average = 0
	minimum = 0
	maximum = 0
Injected packet rate average = 0.0200833
	minimum = 0.0173333 (at node 3)
	maximum = 0.0243333 (at node 6)
Accepted packet rate average = 0.020125
	minimum = 0.016 (at node 11)
	maximum = 0.0236667 (at node 5)
Injected flit rate average = 0.0200833
	minimum = 0.0173333 (at node 3)
	maximum = 0.0243333 (at node 6)
Accepted flit rate average= 0.020125
	minimum = 0.016 (at node 11)
	maximum = 0.0236667 (at node 5)
Injected packet length average = 1
Accepted packet length average = 1
Total in-flight flits = 5 (5 measured)
latency change    = 0.00454804
throughput change = 0.00465839
Class 0:
Packet latency average = 19.7353
	minimum = 7
	maximum = 38
Network latency average = 19.7353
	minimum = 7
	maximum = 38
Slowest packet = 7715
Flit latency average = 19.7398
	minimum = 7
	maximum = 38
Slowest flit = 7715
Fragmentation average = 0
	minimum = 0
	maximum = 0
Injected packet rate average = 0.0202656
	minimum = 0.01725 (at node 3)
	maximum = 0.0235 (at node 6)
Accepted packet rate average = 0.0202969
	minimum = 0.0165 (at node 8)
	maximum = 0.02275 (at node 7)
Injected flit rate average = 0.0202656
	minimum = 0.01725 (at node 3)
	maximum = 0.0235 (at node 6)
Accepted flit rate average= 0.0202969
	minimum = 0.0165 (at node 8)
	maximum = 0.02275 (at node 7)
Injected packet length average = 1
Accepted packet length average = 1
Total in-flight flits = 5 (5 measured)
latency change    = 0.000324792
throughput change = 0.00846805
Draining all recorded packets ...
Draining remaining packets ...
Time taken is 7050 cycles
Class 0:
Packet latency average = 19.4286
	minimum = 7
	maximum = 37
Network latency average = 19.4286
	minimum = 7
	maximum = 37
Slowest packet = 8658
Flit latency average = 19.4286
	minimum = 7
	maximum = 37
Slowest flit = 8658
Fragmentation average = 0
	minimum = 0
	maximum = 0
Injected packet rate average = 0.019
	minimum = 0.011 (at node 0)
	maximum = 0.026 (at node 5)
Accepted packet rate average = 0.0188125
	minimum = 0.011 (at node 6)
	maximum = 0.036 (at node 14)
Injected flit rate average = 0.019
	minimum = 0.011 (at node 0)
	maximum = 0.026 (at node 5)
Accepted flit rate average= 0.0188125
	minimum = 0.011 (at node 6)
	maximum = 0.036 (at node 14)
Injected packet length average = 1
Accepted packet length average = 1
Total in-flight flits = 3 (0 measured)
latency change    = 1
throughput change = 1
Class 0:
Packet latency average = 19.5582
	minimum = 7
	maximum = 37
Network latency average = 19.5582
	minimum = 7
	maximum = 37
Slowest packet = 8658
Flit latency average = 19.5582
	minimum = 7
	maximum = 37
Slowest flit = 8658
Fragmentation average = 0
	minimum = 0
	maximum = 0
Injected packet rate average = 0.0197813
	minimum = 0.015 (at node 13)
	maximum = 0.0245 (at node 5)
Accepted packet rate average = 0.0195938
	minimum = 0.0115 (at node 6)
	maximum = 0.0295 (at node 14)
Injected flit rate average = 0.0197813
	minimum = 0.015 (at node 13)
	maximum = 0.0245 (at node 5)
Accepted flit rate average= 0.0195938
	minimum = 0.0115 (at node 6)
	maximum = 0.0295 (at node 14)
Injected packet length average = 1
Accepted packet length average = 1
Total in-flight flits = 6 (0 measured)
latency change    = 0.00662853
throughput change = 0.0398724
Class 0:
Packet latency average = 19.7125
	minimum = 7
	maximum = 38
Network latency average = 19.7125
	minimum = 7
	maximum = 38
Slowest packet = 9418
Flit latency average = 19.7125
	minimum = 7
	maximum = 38
Slowest flit = 9418
Fragmentation average = 0
	minimum = 0
	maximum = 0
Injected packet rate average = 0.0203125
	minimum = 0.014 (at node 9)
	maximum = 0.028 (at node 7)
Accepted packet rate average = 0.0204375
	minimum = 0.013 (at node 4)
	maximum = 0.029 (at node 15)
Injected flit rate average = 0.0203125
	minimum = 0.014 (at node 9)
	maximum = 0.028 (at node 7)
Accepted flit rate average= 0.0204375
	minimum = 0.013 (at node 4)
	maximum = 0.029 (at node 15)
Injected packet length average = 1
Accepted packet length average = 1
Total in-flight flits = 4 (0 measured)
latency change    = 0.00782875
throughput change = 0.0412844
Warmed up ...Time used is 3000 cycles
Class 0:
Packet latency average = 18.8391
	minimum = 7
	maximum = 37
Network latency average = 18.8391
	minimum = 7
	maximum = 37
Slowest packet = 9586
Flit latency average = 18.8941
	minimum = 7
	maximum = 37
Slowest flit = 9586
Fragmentation average = 0
	minimum = 0
	maximum = 0
Injected packet rate average = 0.020375
	minimum = 0.013 (at node 11)
	maximum = 0.033 (at node 5)
Accepted packet rate average = 0.0200625
	minimum = 0.013 (at node 8)
	maximum = 0.028 (at node 0)
Injected flit rate average = 0.020375
	minimum = 0.013 (at node 11)
	maximum = 0.033 (at node 5)
Accepted flit rate average= 0.0200625
	minimum = 0.013 (at node 8)
	maximum = 0.028 (at node 0)
Injected packet length average = 1
Accepted packet length average = 1
Total in-flight flits = 9 (9 measured)
latency change    = 0.0463621
throughput change = 0.0186916
Class 0:
Packet latency average = 18.9314
	minimum = 7
	maximum = 37
Network latency average = 18.9314
	minimum = 7
	maximum = 37
Slowest packet = 9586
Flit latency average = 18.9588
	minimum = 7
	maximum = 37
Slowest flit = 9586
Fragmentation average = 0
	minimum = 0
	maximum = 0
Injected packet rate average = 0.0196563
	minimum = 0.012 (at node 4)
	maximum = 0.027 (at node 6)
Accepted packet rate average = 0.0197188
	minimum = 0.0155 (at node 8)
	maximum = 0.0255 (at node 0)
Injected flit rate average = 0.0196563
	minimum = 0.012 (at node 4)
	maximum = 0.027 (at node 6)
Accepted flit rate average= 0.0197188
	minimum = 0.0155 (at node 8)
	maximum = 0.0255 (at node 0)
Injected packet length average = 1
Accepted packet length average = 1
Total in-flight flits = 2 (2 measured)
latency change    = 0.00487564
throughput change = 0.0174326
Class 0:
Packet latency average = 18.9145
	minimum = 7
	maximum = 37
Network latency average = 18.9145
	minimum = 7
	maximum = 37
Slowest packet = 9586
Flit latency average = 18.9321
	minimum = 7
	maximum = 37
Slowest flit = 9586
Fragmentation average = 0
	minimum = 0
	maximum = 0
Injected packet rate average = 0.0205833
	minimum = 0.0143333 (at node 3)
	maximum = 0.026 (at node 6)
Accepted packet rate average = 0.0205625
	minimum = 0.0166667 (at node 12)
	maximum = 0.0233333 (at node 0)
Injected flit rate average = 0.0205833
	minimum = 0.0143333 (at node 3)
	maximum = 0.026 (at node 6)
Accepted flit rate average= 0.0205625
	minimum = 0.0166667 (at node 12)
	maximum = 0.0233333 (at node 0)
Injected packet length average = 1
Accepted packet length average = 1
Total in-flight flits = 5 (5 measured)
latency change    = 0.00089202
throughput change = 0.0410334
Draining all recorded packets ...
Draining remaining packets ...
Time taken is 6061 cycles
Class 0:
Packet latency average = 19.5896
	minimum = 7
	maximum = 37
Network latency average = 19.5896
	minimum = 7
	maximum = 37
Slowest packet = 10698
Flit latency average = 19.5896
	minimum = 7
	maximum = 37
Slowest flit = 10698
Fragmentation average = 0
	minimum = 0
	maximum = 0
Injected packet rate average = 0.019625
	minimum = 0.013 (at node 8)
	maximum = 0.034 (at node 14)
Accepted packet rate average = 0.0191875
	minimum = 0.012 (at node 3)
	maximum = 0.03 (at node 8)
Injected flit rate average = 0.019625
	minimum = 0.013 (at node 8)
	maximum = 0.034 (at node 14)
Accepted flit rate average= 0.0191875
	minimum = 0.012 (at node 3)
	maximum = 0.03 (at node 8)
Injected packet length average = 1
Accepted packet length average = 1
Total in-flight flits = 7 (0 measured)
latency change    = 1
throughput change = 1
Class 0:
Packet latency average = 19.4364
	minimum = 7
	maximum = 37
Network latency average = 19.4364
	minimum = 7
	maximum = 37
Slowest packet = 10698
Flit latency average = 19.4364
	minimum = 7
	maximum = 37
Slowest flit = 10698
Fragmentation average = 0
	minimum = 0
	maximum = 0
Injected packet rate average = 0.020625
	minimum = 0.015 (at node 3)
	maximum = 0.028 (at node 14)
Accepted packet rate average = 0.0204063
	minimum = 0.017 (at node 0)
	maximum = 0.0245 (at node 7)
Injected flit rate average = 0.020625
	minimum = 0.015 (at node 3)
	maximum = 0.028 (at node 14)
Accepted flit rate average= 0.0204063
	minimum = 0.017 (at node 0)
	maximum = 0.0245 (at node 7)
Injected packet length average = 1
Accepted packet length average = 1
Total in-flight flits = 7 (0 measured)
latency change    = 0.00787847
throughput change = 0.0597243
Class 0:
Packet latency average = 19.2455
	minimum = 7
	maximum = 37
Network latency average = 19.2455
	minimum = 7
	maximum = 37
Slowest packet = 11352
Flit latency average = 19.2455
	minimum = 7
	maximum = 37
Slowest flit = 11352
Fragmentation average = 0
	minimum = 0
	maximum = 0
Injected packet rate average = 0.020625
	minimum = 0.015 (at node 14)
	maximum = 0.031 (at node 13)
Accepted packet rate average = 0.020625
	minimum = 0.016 (at node 3)
	maximum = 0.03 (at node 12)
Injected flit rate average = 0.020625
	minimum = 0.015 (at node 14)
	maximum = 0.031 (at node 13)
Accepted flit rate average= 0.020625
	minimum = 0.016 (at node 3)
	maximum = 0.03 (at node 12)
Injected packet length average = 1
Accepted packet length average = 1
Total in-flight flits = 7 (0 measured)
latency change    = 0.00992404
throughput change = 0.0106061
Warmed up ...Time used is 3000 cycles
Class 0:
Packet latency average = 19.4571
	minimum = 7
	maximum = 37
Network latency average = 19.4571
	minimum = 7
	maximum = 37
Slowest packet = 11795
Flit latency average = 19.4955
	minimum = 7
	maximum = 37
Slowest flit = 11795
Fragmentation average = 0
	minimum = 0
	maximum = 0
Injected packet rate average = 0.021
	minimum = 0.013 (at node 1)
	maximum = 0.03 (at node 8)
Accepted packet rate average = 0.0208125
	minimum = 0.014 (at node 2)
	maximum = 0.033 (at node 13)
Injected flit rate average = 0.021
	minimum = 0.013 (at node 1)
	maximum = 0.03 (at node 8)
Accepted flit rate average= 0.0208125
	minimum = 0.014 (at node 2)
	maximum = 0.033 (at node 13)
Injected packet length average = 1
Accepted packet length average = 1
Total in-flight flits = 10 (10 measured)
latency change    = 0.0108753
throughput change = 0.00900901
Class 0:
Packet latency average = 19.5662
	minimum = 7
	maximum = 37
Network latency average = 19.5662
	minimum = 7
	maximum = 37
Slowest packet = 11795
Flit latency average = 19.585
	minimum = 7
	maximum = 37
Slowest flit = 11795
Fragmentation average = 0
	minimum = 0
	maximum = 0
Injected packet rate average = 0.0199688
	minimum = 0.016 (at node 1)
	maximum = 0.0255 (at node 11)
Accepted packet rate average = 0.0200313
	minimum = 0.015 (at node 11)
	maximum = 0.0275 (at node 13)
Injected flit rate average = 0.0199688
	minimum = 0.016 (at node 1)
	maximum = 0.0255 (at node 11)
Accepted flit rate average= 0.0200313
	minimum = 0.015 (at node 11)
	maximum = 0.0275 (at node 13)
Injected packet length average = 1
Accepted packet length average = 1
Total in-flight flits = 5 (5 measured)
latency change    = 0.00558057
throughput change = 0.0390016
Class 0:
Packet latency average = 19.6221
	minimum = 7
	maximum = 37
Network latency average = 19.6221
	minimum = 7
	maximum = 37
Slowest packet = 11795
Flit latency average = 19.6347
	minimum = 7
	maximum = 37
Slowest flit = 11795
Fragmentation average = 0
	minimum = 0
	maximum = 0
Injected packet rate average = 0.0193125
	minimum = 0.0163333 (at node 6)
	maximum = 0.0226667 (at node 11)
Accepted packet rate average = 0.0193333
	minimum = 0.016 (at node 7)
	maximum = 0.026 (at node 8)
Injected flit rate average = 0.0193125
	minimum = 0.0163333 (at node 6)
	maximum = 0.0226667 (at node 11)
Accepted flit rate average= 0.0193333
	minimum = 0.016 (at node 7)
	maximum = 0.026 (at node 8)
Injected packet length average = 1
Accepted packet length average = 1
Total in-flight flits = 6 (6 measured)
latency change    = 0.00284901
throughput change = 0.0360991
Draining all recorded packets ...
Draining remaining packets ...
Time taken is 6054 cycles
Class 0:
Packet latency average = 19.1786
	minimum = 7
	maximum = 37
Network latency average = 19.1786
	minimum = 7
	maximum = 37
Slowest packet = 12530
Flit latency average = 19.1786
	minimum = 7
	maximum = 37
Slowest flit = 12530
Fragmentation average = 0
	minimum = 0
	maximum = 0
Injected packet rate average = 0.0196875
	minimum = 0.011 (at node 5)
	maximum = 0.028 (at node 7)
Accepted packet rate average = 0.01925
	minimum = 0.014 (at node 8)
	maximum = 0.028 (at node 10)
Injected flit rate average = 0.0196875
	minimum = 0.011 (at node 5)
	maximum = 0.028 (at node 7)
Accepted flit rate average= 0.01925
	minimum = 0.014 (at node 8)
	maximum = 0.028 (at node 10)
Injected packet length average = 1
Accepted packet length average = 1
Total in-flight flits = 7 (0 measured)
latency change    = 1
throughput change = 1
Class 0:
Packet latency average = 19.3137
	minimum = 7
	maximum = 37
Network latency average = 19.3137
	minimum = 7
	maximum = 37
Slowest packet = 12530
Flit latency average = 19.3137
	minimum = 7
	maximum = 37
Slowest flit = 12530
Fragmentation average = 0
	minimum = 0
	maximum = 0
Injected packet rate average = 0.019875
	minimum = 0.0145 (at node 14)
	maximum = 0.0265 (at node 0)
Accepted packet rate average = 0.019625
	minimum = 0.015 (at node 3)
	maximum = 0.0275 (at node 5)
Injected flit rate average = 0.019875
	minimum = 0.0145 (at node 14)
	maximum = 0.0265 (at node 0)
Accepted flit rate average= 0.019625
	minimum = 0.015 (at node 3)
	maximum = 0.0275 (at node 5)
Injected packet length average = 1
Accepted packet length average = 1
Total in-flight flits = 8 (0 measured)
latency change    = 0.00699622
throughput change = 0.0191083
Class 0:
Packet latency average = 19.4838
	minimum = 7
	maximum = 37
Network latency average = 19.4838
	minimum = 7
	maximum = 37
Slowest packet = 13202
Flit latency average = 19.4838
	minimum = 7
	maximum = 37
Slowest flit = 13202
Fragmentation average = 0
	minimum = 0
	maximum = 0
Injected packet rate average = 0.023
	minimum = 0.016 (at node 12)
	maximum = 0.03 (at node 0)
Accepted packet rate average = 0.023125
	minimum = 0.009 (at node 7)
	maximum = 0.032 (at node 9)
Injected flit rate average = 0.023
	minimum = 0.016 (at node 12)
	maximum = 0.03 (at node 0)
Accepted flit rate average= 0.023125
	minimum = 0.009 (at node 7)
	maximum = 0.032 (at node 9)
Injected packet length average = 1
Accepted packet length average = 1
Total in-flight flits = 6 (0 measured)
latency change    = 0.0087298
throughput change = 0.151351
Warmed up ...Time used is 3000 cycles
Class 0:
Packet latency average = 18.9705
	minimum = 7
	maximum = 37
Network latency average = 18.9705
	minimum = 7
	maximum = 37
Slowest packet = 13603
Flit latency average = 18.9486
	minimum = 7
	maximum = 37
Slowest flit = 13603
Fragmentation average = 0
	minimum = 0
	maximum = 0
Injected packet rate average = 0.0193125
	minimum = 0.008 (at node 12)
	maximum = 0.029 (at node 7)
Accepted packet rate average = 0.0194375
	minimum = 0.011 (at node 1)
	maximum = 0.03 (at node 2)
Injected flit rate average = 0.0193125
	minimum = 0.008 (at node 12)
	maximum = 0.029 (at node 7)
Accepted flit rate average= 0.0194375
	minimum = 0.011 (at node 1)
	maximum = 0.03 (at node 2)
Injected packet length average = 1
Accepted packet length average = 1
Total in-flight flits = 4 (4 measured)
latency change    = 0.0270574
throughput change = 0.189711
Class 0:
Packet latency average = 19.3239
	minimum = 7
	maximum = 37
Network latency average = 19.3239
	minimum = 7
	maximum = 37
Slowest packet = 13603
Flit latency average = 19.31
	minimum = 7
	maximum = 37
Slowest flit = 13603
Fragmentation average = 0
	minimum = 0
	maximum = 0
Injected packet rate average = 0.0200625
	minimum = 0.0145 (at node 12)
	maximum = 0.0275 (at node 8)
Accepted packet rate average = 0.0200625
	minimum = 0.015 (at node 8)
	maximum = 0.028 (at node 2)
Injected flit rate average = 0.0200625
	minimum = 0.0145 (at node 12)
	maximum = 0.0275 (at node 8)
Accepted flit rate average= 0.0200625
	minimum = 0.015 (at node 8)
	maximum = 0.028 (at node 2)
Injected packet length average = 1
Accepted packet length average = 1
Total in-flight flits = 6 (6 measured)
latency change    = 0.0182886
throughput change = 0.0311526
Class 0:
Packet latency average = 19.3557
	minimum = 7
	maximum = 37
Network latency average = 19.3557
	minimum = 7
	maximum = 37
Slowest packet = 13603
Flit latency average = 19.346
	minimum = 7
	maximum = 37
Slowest flit = 13603
Fragmentation average = 0
	minimum = 0
	maximum = 0
Injected packet rate average = 0.0196875
	minimum = 0.0143333 (at node 12)
	maximum = 0.0256667 (at node 8)
Accepted packet rate average = 0.0196875
	minimum = 0.0146667 (at node 13)
	maximum = 0.0243333 (at node 12)
Injected flit rate average = 0.0196875
	minimum = 0.0143333 (at node 12)
	maximum = 0.0256667 (at node 8)
Accepted flit rate average= 0.0196875
	minimum = 0.0146667 (at node 13)
	maximum = 0.0243333 (at node 12)
Injected packet length average = 1
Accepted packet length average = 1
Total in-flight flits = 6 (6 measured)
latency change    = 0.00164283
throughput change = 0.0190476
Class 0:
Packet latency average = 19.4047
	minimum = 7
	maximum = 37
Network latency average = 19.4047
	minimum = 7
	maximum = 37
Slowest packet = 13603
Flit latency average = 19.3973
	minimum = 7
	maximum = 37
Slowest flit = 13603
Fragmentation average = 0
	minimum = 0
	maximum = 0
Injected packet rate average = 0.0200625
	minimum = 0.0155 (at node 12)
	maximum = 0.0255 (at node 8)
Accepted packet rate average = 0.0200156
	minimum = 0.0165 (at node 4)
	maximum = 0.02275 (at node 2)
Injected flit rate average = 0.0200625
	minimum = 0.0155 (at node 12)
	maximum = 0.0255 (at node 8)
Accepted flit rate average= 0.0200156
	minimum = 0.0165 (at node 4)
	maximum = 0.02275 (at node 2)
Injected packet length average = 1
Accepted packet length average = 1
Total in-flight flits = 9 (9 measured)
latency change    = 0.00252559
throughput change = 0.0163934
Draining all recorded packets ...
Draining remaining packets ...
Time taken is 7049 cycles
Class 0:
Packet latency average = 19.0662
	minimum = 7
	maximum = 37
Network latency average = 19.0662
	minimum = 7
	maximum = 37
Slowest packet = 14809
Flit latency average = 19.0662
	minimum = 7
	maximum = 37
Slowest flit = 14809
Fragmentation average = 0
	minimum = 0
	maximum = 0
Injected packet rate average = 0.0195625
	minimum = 0.013 (at node 3)
	maximum = 0.03 (at node 10)
Accepted packet rate average = 0.018875
	minimum = 0.007 (at node 11)
	maximum = 0.027 (at node 4)
Injected flit rate average = 0.0195625
	minimum = 0.013 (at node 3)
	maximum = 0.03 (at node 10)
Accepted flit rate average= 0.018875
	minimum = 0.007 (at node 11)
	maximum = 0.027 (at node 4)
Injected packet length average = 1
Accepted packet length average = 1
Total in-flight flits = 11 (0 measured)
latency change    = 1
throughput change = 1
Class 0:
Packet latency average = 19.4827
	minimum = 7
	maximum = 37
Network latency average = 19.4827
	minimum = 7
	maximum = 37
Slowest packet = 14809
Flit latency average = 19.4827
	minimum = 7
	maximum = 37
Slowest flit = 14809
Fragmentation average = 0
	minimum = 0
	maximum = 0
Injected packet rate average = 0.0190625
	minimum = 0.012 (at node 1)
	maximum = 0.0265 (at node 10)
Accepted packet rate average = 0.0189687
	minimum = 0.013 (at node 6)
	maximum = 0.024 (at node 0)
Injected flit rate average = 0.0190625
	minimum = 0.012 (at node 1)
	maximum = 0.0265 (at node 10)
Accepted flit rate average= 0.0189687
	minimum = 0.013 (at node 6)
	maximum = 0.024 (at node 0)
Injected packet length average = 1
Accepted packet length average = 1
Total in-flight flits = 3 (0 measured)
latency change    = 0.0213767
throughput change = 0.00494234
Class 0:
Packet latency average = 19.2014
	minimum = 7
	maximum = 37
Network latency average = 19.2014
	minimum = 7
	maximum = 37
Slowest packet = 15432
Flit latency average = 19.2014
	minimum = 7
	maximum = 37
Slowest flit = 15432
Fragmentation average = 0
	minimum = 0
	maximum = 0
Injected packet rate average = 0.0185
	minimum = 0.008 (at node 8)
	maximum = 0.027 (at node 6)
Accepted packet rate average = 0.0183125
	minimum = 0.012 (at node 4)
	maximum = 0.025 (at node 13)
Injected flit rate average = 0.0185
	minimum = 0.008 (at node 8)
	maximum = 0.027 (at node 6)
Accepted flit rate average= 0.0183125
	minimum = 0.012 (at node 4)
	maximum = 0.025 (at node 13)
Injected packet length average = 1
Accepted packet length average = 1
Total in-flight flits = 6 (0 measured)
latency change    = 0.0146519
throughput change = 0.0358362
Warmed up ...Time used is 3000 cycles
Class 0:
Packet latency average = 19.2422
	minimum = 7
	maximum = 37
Network latency average = 19.2422
	minimum = 7
	maximum = 37
Slowest packet = 15719
Flit latency average = 19.1797
	minimum = 7
	maximum = 37
Slowest flit = 15719
Fragmentation average = 0
	minimum = 0
	maximum = 0
Injected packet rate average = 0.01825
	minimum = 0.014 (at node 0)
	maximum = 0.025 (at node 4)
Accepted packet rate average = 0.0184375
	minimum = 0.008 (at node 1)
	maximum = 0.025 (at node 6)
Injected flit rate average = 0.01825
	minimum = 0.014 (at node 0)
	maximum = 0.025 (at node 4)
Accepted flit rate average= 0.0184375
	minimum = 0.008 (at node 1)
	maximum = 0.025 (at node 6)
Injected packet length average = 1
Accepted packet length average = 1
Total in-flight flits = 3 (3 measured)
latency change    = 0.0021229
throughput change = 0.00677966
Class 0:
Packet latency average = 19.8838
	minimum = 7
	maximum = 37
Network latency average = 19.8838
	minimum = 7
	maximum = 37
Slowest packet = 15719
Flit latency average = 19.8486
	minimum = 7
	maximum = 37
Slowest flit = 15719
Fragmentation average = 0
	minimum = 0
	maximum = 0
Injected packet rate average = 0.0197188
	minimum = 0.012 (at node 9)
	maximum = 0.0265 (at node 13)
Accepted packet rate average = 0.0198125
	minimum = 0.0125 (at node 1)
	maximum = 0.025 (at node 6)
Injected flit rate average = 0.0197188
	minimum = 0.012 (at node 9)
	maximum = 0.0265 (at node 13)
Accepted flit rate average= 0.0198125
	minimum = 0.0125 (at node 1)
	maximum = 0.025 (at node 6)
Injected packet length average = 1
Accepted packet length average = 1
Total in-flight flits = 3 (3 measured)
latency change    = 0.0322647
throughput change = 0.0694006
Class 0:
Packet latency average = 19.6709
	minimum = 7
	maximum = 37
Network latency average = 19.6709
	minimum = 7
	maximum = 37
Slowest packet = 15719
Flit latency average = 19.6489
	minimum = 7
	maximum = 37
Slowest flit = 15719
Fragmentation average = 0
	minimum = 0
	maximum = 0
Injected packet rate average = 0.0199167
	minimum = 0.014 (at node 9)
	maximum = 0.0246667 (at node 3)
Accepted packet rate average = 0.0199375
	minimum = 0.014 (at node 1)
	maximum = 0.024 (at node 0)
Injected flit rate average = 0.0199167
	minimum = 0.014 (at node 9)
	maximum = 0.0246667 (at node 3)
Accepted flit rate average= 0.0199375
	minimum = 0.014 (at node 1)
	maximum = 0.024 (at node 0)
Injected packet length average = 1
Accepted packet length average = 1
Total in-flight flits = 5 (5 measured)
latency change    = 0.0108224
throughput change = 0.00626959
Class 0:
Packet latency average = 19.6669
	minimum = 7
	maximum = 37
Network latency average = 19.6669
	minimum = 7
	maximum = 37
Slowest packet = 15719
Flit latency average = 19.6504
	minimum = 7
	maximum = 37
Slowest flit = 15719
Fragmentation average = 0
	minimum = 0
	maximum = 0
Injected packet rate average = 0.0198125
	minimum = 0.01625 (at node 6)
	maximum = 0.02525 (at node 3)
Accepted packet rate average = 0.0198438
	minimum = 0.01425 (at node 1)
	maximum = 0.02425 (at node 0)
Injected flit rate average = 0.0198125
	minimum = 0.01625 (at node 6)
	maximum = 0.02525 (at node 3)
Accepted flit rate average= 0.0198438
	minimum = 0.01425 (at node 1)
	maximum = 0.02425 (at node 0)
Injected packet length average = 1
Accepted packet length average = 1
Total in-flight flits = 4 (4 measured)
latency change    = 0.000200458
throughput change = 0.00472441
Class 0:
Packet latency average = 19.7052
	minimum = 7
	maximum = 37
Network latency average = 19.7052
	minimum = 7
	maximum = 37
Slowest packet = 15719
Flit latency average = 19.6918
	minimum = 7
	maximum = 37
Slowest flit = 15719
Fragmentation average = 0
	minimum = 0
	maximum = 0
Injected packet rate average = 0.0197625
	minimum = 0.0164 (at node 6)
	maximum = 0.0246 (at node 3)
Accepted packet rate average = 0.01975
	minimum = 0.0156 (at node 1)
	maximum = 0.024 (at node 0)
Injected flit rate average = 0.0197625
	minimum = 0.0164 (at node 6)
	maximum = 0.0246 (at node 3)
Accepted flit rate average= 0.01975
	minimum = 0.0156 (at node 1)
	maximum = 0.024 (at node 0)
Injected packet length average = 1
Accepted packet length average = 1
Total in-flight flits = 7 (7 measured)
latency change    = 0.0019426
throughput change = 0.00474684
Draining all recorded packets ...
Draining remaining packets ...
Time taken is 8061 cycles
Class 0:
Packet latency average = 19.7917
	minimum = 7
	maximum = 37
Network latency average = 19.7917
	minimum = 7
	maximum = 37
Slowest packet = 17374
Flit latency average = 19.7917
	minimum = 7
	maximum = 37
Slowest flit = 17374
Fragmentation average = 0
	minimum = 0
	maximum = 0
Injected packet rate average = 0.0183125
	minimum = 0.012 (at node 8)
	maximum = 0.028 (at node 12)
Accepted packet rate average = 0.018
	minimum = 0.009 (at node 7)
	maximum = 0.023 (at node 1)
Injected flit rate average = 0.0183125
	minimum = 0.012 (at node 8)
	maximum = 0.028 (at node 12)
Accepted flit rate average= 0.018
	minimum = 0.009 (at node 7)
	maximum = 0.023 (at node 1)
Injected packet length average = 1
Accepted packet length average = 1
Total in-flight flits = 5 (0 measured)
latency change    = 1
throughput change = 1
Class 0:
Packet latency average = 19.6622
	minimum = 7
	maximum = 37
Network latency average = 19.6622
	minimum = 7
	maximum = 37
Slowest packet = 17374
Flit latency average = 19.6622
	minimum = 7
	maximum = 37
Slowest flit = 17374
Fragmentation average = 0
	minimum = 0
	maximum = 0
Injected packet rate average = 0.019
	minimum = 0.015 (at node 6)
	maximum = 0.025 (at node 12)
Accepted packet rate average = 0.0187812
	minimum = 0.013 (at node 13)
	maximum = 0.025 (at node 1)
Injected flit rate average = 0.019
	minimum = 0.015 (at node 6)
	maximum = 0.025 (at node 12)
Accepted flit rate average= 0.0187812
	minimum = 0.013 (at node 13)
	maximum = 0.025 (at node 1)
Injected packet length average = 1
Accepted packet length average = 1
Total in-flight flits = 7 (0 measured)
latency change    = 0.00658303
throughput change = 0.0415973
Class 0:
Packet latency average = 20.0256
	minimum = 7
	maximum = 37
Network latency average = 20.0256
	minimum = 7
	maximum = 37
Slowest packet = 18012
Flit latency average = 20.0256
	minimum = 7
	maximum = 37
Slowest flit = 18012
Fragmentation average = 0
	minimum = 0
	maximum = 0
Injected packet rate average = 0.0193125
	minimum = 0.01 (at node 5)
	maximum = 0.025 (at node 11)
Accepted packet rate average = 0.0195625
	minimum = 0.013 (at node 6)
	maximum = 0.025 (at node 0)
Injected flit rate average = 0.0193125
	minimum = 0.01 (at node 5)
	maximum = 0.025 (at node 11)
Accepted flit rate average= 0.0195625
	minimum = 0.013 (at node 6)
	maximum = 0.025 (at node 0)
Injected packet length average = 1
Accepted packet length average = 1
Total in-flight flits = 3 (0 measured)
latency change    = 0.0181433
throughput change = 0.0399361
Warmed up ...Time used is 3000 cycles
Class 0:
Packet latency average = 19.0549
	minimum = 7
	maximum = 37
Network latency average = 19.0549
	minimum = 7
	maximum = 37
Slowest packet = 18247
Flit latency average = 19.0659
	minimum = 7
	maximum = 37
Slowest flit = 18247
Fragmentation average = 0
	minimum = 0
	maximum = 0
Injected packet rate average = 0.021875
	minimum = 0.015 (at node 3)
	maximum = 0.033 (at node 10)
Accepted packet rate average = 0.0218125
	minimum = 0.017 (at node 6)
	maximum = 0.031 (at node 9)
Injected flit rate average = 0.021875
	minimum = 0.015 (at node 3)
	maximum = 0.033 (at node 10)
Accepted flit rate average= 0.0218125
	minimum = 0.017 (at node 6)
	maximum = 0.031 (at node 9)
Injected packet length average = 1
Accepted packet length average = 1
Total in-flight flits = 4 (4 measured)
latency change    = 0.0509394
throughput change = 0.103152
Class 0:
Packet latency average = 19.3085
	minimum = 7
	maximum = 37
Network latency average = 19.3085
	minimum = 7
	maximum = 37
Slowest packet = 18247
Flit latency average = 19.3133
	minimum = 7
	maximum = 37
Slowest flit = 18247
Fragmentation average = 0
	minimum = 0
	maximum = 0
Injected packet rate average = 0.0204063
	minimum = 0.016 (at node 2)
	maximum = 0.0265 (at node 5)
Accepted packet rate average = 0.02025
	minimum = 0.016 (at node 11)
	maximum = 0.0275 (at node 1)
Injected flit rate average = 0.0204063
	minimum = 0.016 (at node 2)
	maximum = 0.0265 (at node 5)
Accepted flit rate average= 0.02025
	minimum = 0.016 (at node 11)
	maximum = 0.0275 (at node 1)
Injected packet length average = 1
Accepted packet length average = 1
Total in-flight flits = 8 (8 measured)
latency change    = 0.0131348
throughput change = 0.0771605
Class 0:
Packet latency average = 19.4615
	minimum = 7
	maximum = 37
Network latency average = 19.4615
	minimum = 7
	maximum = 37
Slowest packet = 18247
Flit latency average = 19.4642
	minimum = 7
	maximum = 37
Slowest flit = 18247
Fragmentation average = 0
	minimum = 0
	maximum = 0
Injected packet rate average = 0.0197917
	minimum = 0.0156667 (at node 13)
	maximum = 0.025 (at node 5)
Accepted packet rate average = 0.0197917
	minimum = 0.0156667 (at node 11)
	maximum = 0.0233333 (at node 1)
Injected flit rate average = 0.0197917
	minimum = 0.0156667 (at node 13)
	maximum = 0.025 (at node 5)
Accepted flit rate average= 0.0197917
	minimum = 0.0156667 (at node 11)
	maximum = 0.0233333 (at node 1)
Injected packet length average = 1
Accepted packet length average = 1
Total in-flight flits = 3 (3 measured)
latency change    = 0.0078581
throughput change = 0.0231579
Class 0:
Packet latency average = 19.5084
	minimum = 7
	maximum = 37
Network latency average = 19.5084
	minimum = 7
	maximum = 37
Slowest packet = 18247
Flit latency average = 19.5103
	minimum = 7
	maximum = 37
Slowest flit = 18247
Fragmentation average = 0
	minimum = 0
	maximum = 0
Injected packet rate average = 0.0197188
	minimum = 0.01625 (at node 13)
	maximum = 0.023 (at node 5)
Accepted packet rate average = 0.0196875
	minimum = 0.0155 (at node 13)
	maximum = 0.02375 (at node 0)
Injected flit rate average = 0.0197188
	minimum = 0.01625 (at node 13)
	maximum = 0.023 (at node 5)
Accepted flit rate average= 0.0196875
	minimum = 0.0155 (at node 13)
	maximum = 0.02375 (at node 0)
Injected packet length average = 1
Accepted packet length average = 1
Total in-flight flits = 5 (5 measured)
latency change    = 0.00240389
throughput change = 0.00529101
Class 0:
Packet latency average = 19.4287
	minimum = 7
	maximum = 38
Network latency average = 19.4287
	minimum = 7
	maximum = 38
Slowest packet = 19654
Flit latency average = 19.4304
	minimum = 7
	maximum = 38
Slowest flit = 19654
Fragmentation average = 0
	minimum = 0
	maximum = 0
Injected packet rate average = 0.0199
	minimum = 0.0168 (at node 13)
	maximum = 0.0224 (at node 4)
Accepted packet rate average = 0.0198375
	minimum = 0.017 (at node 13)
	maximum = 0.0236 (at node 14)
Injected flit rate average = 0.0199
	minimum = 0.0168 (at node 13)
	maximum = 0.0224 (at node 4)
Accepted flit rate average= 0.0198375
	minimum = 0.017 (at node 13)
	maximum = 0.0236 (at node 14)
Injected packet length average = 1
Accepted packet length average = 1
Total in-flight flits = 8 (8 measured)
latency change    = 0.00410175
throughput change = 0.00756144
Draining all recorded packets ...
Draining remaining packets ...
Time taken is 8053 cycles
Class 0:
Packet latency average = 19.3079
	minimum = 7
	maximum = 37
Network latency average = 19.3079
	minimum = 7
	maximum = 37
Slowest packet = 19912
Flit latency average = 19.3079
	minimum = 7
	maximum = 37
Slowest flit = 19912
Fragmentation average = 0
	minimum = 0
	maximum = 0
Injected packet rate average = 0.02075
	minimum = 0.014 (at node 13)
	maximum = 0.028 (at node 5)
Accepted packet rate average = 0.0205
	minimum = 0.014 (at node 4)
	maximum = 0.028 (at node 13)
Injected flit rate average = 0.02075
	minimum = 0.014 (at node 13)
	maximum = 0.028 (at node 5)
Accepted flit rate average= 0.0205
	minimum = 0.014 (at node 4)
	maximum = 0.028 (at node 13)
Injected packet length average = 1
Accepted packet length average = 1
Total in-flight flits = 4 (0 measured)
latency change    = 1
throughput change = 1
Class 0:
Packet latency average = 19.7274
	minimum = 7
	maximum = 37
Network latency average = 19.7274
	minimum = 7
	maximum = 37
Slowest packet = 19912
Flit latency average = 19.7274
	minimum = 7
	maximum = 37
Slowest flit = 19912
Fragmentation average = 0
	minimum = 0
	maximum = 0
Injected packet rate average = 0.0201875
	minimum = 0.0145 (at node 13)
	maximum = 0.025 (at node 10)
Accepted packet rate average = 0.0200625
	minimum = 0.0155 (at node 1)
	maximum = 0.024 (at node 13)
Injected flit rate average = 0.0201875
	minimum = 0.0145 (at node 13)
	maximum = 0.025 (at node 10)
Accepted flit rate average= 0.0200625
	minimum = 0.0155 (at node 1)
	maximum = 0.024 (at node 13)
Injected packet length average = 1
Accepted packet length average = 1
Total in-flight flits = 4 (0 measured)
latency change    = 0.0212642
throughput change = 0.0218069
Class 0:
Packet latency average = 19.0889
	minimum = 7
	maximum = 37
Network latency average = 19.0889
	minimum = 7
	maximum = 37
Slowest packet = 20571
Flit latency average = 19.0889
	minimum = 7
	maximum = 37
Slowest flit = 20571
Fragmentation average = 0
	minimum = 0
	maximum = 0
Injected packet rate average = 0.0200625
	minimum = 0.01 (at node 4)
	maximum = 0.031 (at node 5)
Accepted packet rate average = 0.0196875
	minimum = 0.009 (at node 0)
	maximum = 0.03 (at node 14)
Injected flit rate average = 0.0200625
	minimum = 0.01 (at node 4)
	maximum = 0.031 (at node 5)
Accepted flit rate average= 0.0196875
	minimum = 0.009 (at node 0)
	maximum = 0.03 (at node 14)
Injected packet length average = 1
Accepted packet length average = 1
Total in-flight flits = 10 (0 measured)
latency change    = 0.0334501
throughput change = 0.0190476
Warmed up ...Time used is 3000 cycles
Class 0:
Packet latency average = 18.7675
	minimum = 7
	maximum = 37
Network latency average = 18.7675
	minimum = 7
	maximum = 37
Slowest packet = 20855
Flit latency average = 18.8827
	minimum = 7
	maximum = 37
Slowest flit = 20855
Fragmentation average = 0
	minimum = 0
	maximum = 0
Injected packet rate average = 0.0200625
	minimum = 0.012 (at node 11)
	maximum = 0.028 (at node 0)
Accepted packet rate average = 0.02025
	minimum = 0.015 (at node 4)
	maximum = 0.03 (at node 2)
Injected flit rate average = 0.0200625
	minimum = 0.012 (at node 11)
	maximum = 0.028 (at node 0)
Accepted flit rate average= 0.02025
	minimum = 0.015 (at node 4)
	maximum = 0.03 (at node 2)
Injected packet length average = 1
Accepted packet length average = 1
Total in-flight flits = 7 (7 measured)
latency change    = 0.0171239
throughput change = 0.0277778
Class 0:
Packet latency average = 19.3103
	minimum = 7
	maximum = 37
Network latency average = 19.3103
	minimum = 7
	maximum = 37
Slowest packet = 20855
Flit latency average = 19.3596
	minimum = 7
	maximum = 37
Slowest flit = 20855
Fragmentation average = 0
	minimum = 0
	maximum = 0
Injected packet rate average = 0.0200938
	minimum = 0.0165 (at node 8)
	maximum = 0.028 (at node 1)
Accepted packet rate average = 0.02025
	minimum = 0.0165 (at node 1)
	maximum = 0.025 (at node 3)
Injected flit rate average = 0.0200938
	minimum = 0.0165 (at node 8)
	maximum = 0.028 (at node 1)
Accepted flit rate average= 0.02025
	minimum = 0.0165 (at node 1)
	maximum = 0.025 (at node 3)
Injected packet length average = 1
Accepted packet length average = 1
Total in-flight flits = 5 (5 measured)
latency change    = 0.0281108
throughput change = 0
Class 0:
Packet latency average = 19.3277
	minimum = 7
	maximum = 37
Network latency average = 19.3277
	minimum = 7
	maximum = 37
Slowest packet = 20855
Flit latency average = 19.3606
	minimum = 7
	maximum = 37
Slowest flit = 20855
Fragmentation average = 0
	minimum = 0
	maximum = 0
Injected packet rate average = 0.0199375
	minimum = 0.018 (at node 15)
	maximum = 0.023 (at node 9)
Accepted packet rate average = 0.0201042
	minimum = 0.0156667 (at node 1)
	maximum = 0.0233333 (at node 3)
Injected flit rate average = 0.0199375
	minimum = 0.018 (at node 15)
	maximum = 0.023 (at node 9)
Accepted flit rate average= 0.0201042
	minimum = 0.0156667 (at node 1)
	maximum = 0.0233333 (at node 3)
Injected packet length average = 1
Accepted packet length average = 1
Total in-flight flits = 2 (2 measured)
latency change    = 0.00090046
throughput change = 0.00725389
Draining all recorded packets ...
Draining remaining packets ...
Time taken is 6054 cycles
Class 0:
Packet latency average = 19.8942
	minimum = 7
	maximum = 37
Network latency average = 19.8942
	minimum = 7
	maximum = 37
Slowest packet = 21840
Flit latency average = 19.8942
	minimum = 7
	maximum = 37
Slowest flit = 21840
Fragmentation average = 0
	minimum = 0
	maximum = 0
Injected packet rate average = 0.019875
	minimum = 0.015 (at node 8)
	maximum = 0.026 (at node 1)
Accepted packet rate average = 0.0195
	minimum = 0.013 (at node 2)
	maximum = 0.029 (at node 15)
Injected flit rate average = 0.019875
	minimum = 0.015 (at node 8)
	maximum = 0.026 (at node 1)
Accepted flit rate average= 0.0195
	minimum = 0.013 (at node 2)
	maximum = 0.029 (at node 15)
Injected packet length average = 1
Accepted packet length average = 1
Total in-flight flits = 6 (0 measured)
latency change    = 1
throughput change = 1
Class 0:
Packet latency average = 19.8307
	minimum = 7
	maximum = 37
Network latency average = 19.8307
	minimum = 7
	maximum = 37
Slowest packet = 21840
Flit latency average = 19.8307
	minimum = 7
	maximum = 37
Slowest flit = 21840
Fragmentation average = 0
	minimum = 0
	maximum = 0
Injected packet rate average = 0.0200625
	minimum = 0.0145 (at node 8)
	maximum = 0.025 (at node 1)
Accepted packet rate average = 0.0199375
	minimum = 0.014 (at node 13)
	maximum = 0.028 (at node 4)
Injected flit rate average = 0.0200625
	minimum = 0.0145 (at node 8)
	maximum = 0.025 (at node 1)
Accepted flit rate average= 0.0199375
	minimum = 0.014 (at node 13)
	maximum = 0.028 (at node 4)
Injected packet length average = 1
Accepted packet length average = 1
Total in-flight flits = 4 (0 measured)
latency change    = 0.00320259
throughput change = 0.0219436
Class 0:
Packet latency average = 19.5916
	minimum = 7
	maximum = 38
Network latency average = 19.5916
	minimum = 7
	maximum = 38
Slowest packet = 22435
Flit latency average = 19.5916
	minimum = 7
	maximum = 38
Slowest flit = 22435
Fragmentation average = 0
	minimum = 0
	maximum = 0
Injected packet rate average = 0.0199375
	minimum = 0.014 (at node 9)
	maximum = 0.026 (at node 10)
Accepted packet rate average = 0.0194375
	minimum = 0.011 (at node 15)
	maximum = 0.027 (at node 1)
Injected flit rate average = 0.0199375
	minimum = 0.014 (at node 9)
	maximum = 0.026 (at node 10)
Accepted flit rate average= 0.0194375
	minimum = 0.011 (at node 15)
	maximum = 0.027 (at node 1)
Injected packet length average = 1
Accepted packet length average = 1
Total in-flight flits = 12 (0 measured)
latency change    = 0.0122032
throughput change = 0.0257235
Warmed up ...Time used is 3000 cycles
Class 0:
Packet latency average = 19.9624
	minimum = 7
	maximum = 37
Network latency average = 19.9624
	minimum = 7
	maximum = 37
Slowest packet = 22740
Flit latency average = 19.9909
	minimum = 7
	maximum = 37
Slowest flit = 22740
Fragmentation average = 0
	minimum = 0
	maximum = 0
Injected packet rate average = 0.0200625
	minimum = 0.013 (at node 11)
	maximum = 0.029 (at node 7)
Accepted packet rate average = 0.0206875
	minimum = 0.012 (at node 10)
	maximum = 0.025 (at node 7)
Injected flit rate average = 0.0200625
	minimum = 0.013 (at node 11)
	maximum = 0.029 (at node 7)
Accepted flit rate average= 0.0206875
	minimum = 0.012 (at node 10)
	maximum = 0.025 (at node 7)
Injected packet length average = 1
Accepted packet length average = 1
Total in-flight flits = 2 (2 measured)
latency change    = 0.0185721
throughput change = 0.060423
Class 0:
Packet latency average = 19.82
	minimum = 7
	maximum = 37
Network latency average = 19.82
	minimum = 7
	maximum = 37
Slowest packet = 22740
Flit latency average = 19.8372
	minimum = 7
	maximum = 37
Slowest flit = 22740
Fragmentation average = 0
	minimum = 0
	maximum = 0
Injected packet rate average = 0.02025
	minimum = 0.0145 (at node 15)
	maximum = 0.0245 (at node 4)
Accepted packet rate average = 0.0203438
	minimum = 0.015 (at node 10)
	maximum = 0.026 (at node 2)
Injected flit rate average = 0.02025
	minimum = 0.0145 (at node 15)
	maximum = 0.0245 (at node 4)
Accepted flit rate average= 0.0203438
	minimum = 0.015 (at node 10)
	maximum = 0.026 (at node 2)
Injected packet length average = 1
Accepted packet length average = 1
Total in-flight flits = 9 (9 measured)
latency change    = 0.00718219
throughput change = 0.0168971
Class 0:
Packet latency average = 19.8444
	minimum = 7
	maximum = 37
Network latency average = 19.8444
	minimum = 7
	maximum = 37
Slowest packet = 22740
Flit latency average = 19.8557
	minimum = 7
	maximum = 37
Slowest flit = 22740
Fragmentation average = 0
	minimum = 0
	maximum = 0
Injected packet rate average = 0.0199583
	minimum = 0.0153333 (at node 10)
	maximum = 0.0243333 (at node 7)
Accepted packet rate average = 0.0200625
	minimum = 0.0173333 (at node 5)
	maximum = 0.0266667 (at node 14)
Injected flit rate average = 0.0199583
	minimum = 0.0153333 (at node 10)
	maximum = 0.0243333 (at node 7)
Accepted flit rate average= 0.0200625
	minimum = 0.0173333 (at node 5)
	maximum = 0.0266667 (at node 14)
Injected packet length average = 1
Accepted packet length average = 1
Total in-flight flits = 7 (7 measured)
latency change    = 0.0012267
throughput change = 0.0140187
Class 0:
Packet latency average = 19.7726
	minimum = 7
	maximum = 37
Network latency average = 19.7726
	minimum = 7
	maximum = 37
Slowest packet = 22740
Flit latency average = 19.7816
	minimum = 7
	maximum = 37
Slowest flit = 22740
Fragmentation average = 0
	minimum = 0
	maximum = 0
Injected packet rate average = 0.0201719
	minimum = 0.01725 (at node 9)
	maximum = 0.024 (at node 7)
Accepted packet rate average = 0.02025
	minimum = 0.01725 (at node 15)
	maximum = 0.0265 (at node 14)
Injected flit rate average = 0.0201719
	minimum = 0.01725 (at node 9)
	maximum = 0.024 (at node 7)
Accepted flit rate average= 0.02025
	minimum = 0.01725 (at node 15)
	maximum = 0.0265 (at node 14)
Injected packet length average = 1
Accepted packet length average = 1
Total in-flight flits = 7 (7 measured)
latency change    = 0.00363072
throughput change = 0.00925926
Draining all recorded packets ...
Draining remaining packets ...
Time taken is 7045 cycles
Class 0:
Packet latency average = 19.561
	minimum = 7
	maximum = 37
Network latency average = 19.561
	minimum = 7
	maximum = 37
Slowest packet = 24019
Flit latency average = 19.561
	minimum = 7
	maximum = 37
Slowest flit = 24019
Fragmentation average = 0
	minimum = 0
	maximum = 0
Injected packet rate average = 0.0181875
	minimum = 0.011 (at node 4)
	maximum = 0.027 (at node 1)
Accepted packet rate average = 0.0179375
	minimum = 0.011 (at node 14)
	maximum = 0.023 (at node 3)
Injected flit rate average = 0.0181875
	minimum = 0.011 (at node 4)
	maximum = 0.027 (at node 1)
Accepted flit rate average= 0.0179375
	minimum = 0.011 (at node 14)
	maximum = 0.023 (at node 3)
Injected packet length average = 1
Accepted packet length average = 1
Total in-flight flits = 4 (0 measured)
latency change    = 1
throughput change = 1
Class 0:
Packet latency average = 19.4776
	minimum = 7
	maximum = 37
Network latency average = 19.4776
	minimum = 7
	maximum = 37
Slowest packet = 24019
Flit latency average = 19.4776
	minimum = 7
	maximum = 37
Slowest flit = 24019
Fragmentation average = 0
	minimum = 0
	maximum = 0
Injected packet rate average = 0.0182187
	minimum = 0.012 (at node 13)
	maximum = 0.025 (at node 1)
Accepted packet rate average = 0.018125
	minimum = 0.0155 (at node 15)
	maximum = 0.023 (at node 0)
Injected flit rate average = 0.0182187
	minimum = 0.012 (at node 13)
	maximum = 0.025 (at node 1)
Accepted flit rate average= 0.018125
	minimum = 0.0155 (at node 15)
	maximum = 0.023 (at node 0)
Injected packet length average = 1
Accepted packet length average = 1
Total in-flight flits = 3 (0 measured)
latency change    = 0.0042813
throughput change = 0.0103448
Class 0:
Packet latency average = 19.0609
	minimum = 7
	maximum = 37
Network latency average = 19.0609
	minimum = 7
	maximum = 37
Slowest packet = 24702
Flit latency average = 19.0609
	minimum = 7
	maximum = 37
Slowest flit = 24702
Fragmentation average = 0
	minimum = 0
	maximum = 0
Injected packet rate average = 0.0215
	minimum = 0.015 (at node 6)
	maximum = 0.03 (at node 5)
Accepted packet rate average = 0.0215625
	minimum = 0.015 (at node 5)
	maximum = 0.028 (at node 1)
Injected flit rate average = 0.0215
	minimum = 0.015 (at node 6)
	maximum = 0.03 (at node 5)
Accepted flit rate average= 0.0215625
	minimum = 0.015 (at node 5)
	maximum = 0.028 (at node 1)
Injected packet length average = 1
Accepted packet length average = 1
Total in-flight flits = 2 (0 measured)
latency change    = 0.0218624
throughput change = 0.15942
Warmed up ...Time used is 3000 cycles
Class 0:
Packet latency average = 19.4153
	minimum = 7
	maximum = 37
Network latency average = 19.4153
	minimum = 7
	maximum = 37
Slowest packet = 24930
Flit latency average = 19.4323
	minimum = 7
	maximum = 37
Slowest flit = 24930
Fragmentation average = 0
	minimum = 0
	maximum = 0
Injected packet rate average = 0.019125
	minimum = 0.01 (at node 2)
	maximum = 0.03 (at node 7)
Accepted packet rate average = 0.0189375
	minimum = 0.011 (at node 9)
	maximum = 0.025 (at node 3)
Injected flit rate average = 0.019125
	minimum = 0.01 (at node 2)
	maximum = 0.03 (at node 7)
Accepted flit rate average= 0.0189375
	minimum = 0.011 (at node 9)
	maximum = 0.025 (at node 3)
Injected packet length average = 1
Accepted packet length average = 1
Total in-flight flits = 5 (5 measured)
latency change    = 0.0182543
throughput change = 0.138614
Class 0:
Packet latency average = 19.3867
	minimum = 7
	maximum = 37
Network latency average = 19.3867
	minimum = 7
	maximum = 37
Slowest packet = 24930
Flit latency average = 19.3948
	minimum = 7
	maximum = 37
Slowest flit = 24930
Fragmentation average = 0
	minimum = 0
	maximum = 0
Injected packet rate average = 0.0205
	minimum = 0.0145 (at node 15)
	maximum = 0.0275 (at node 7)
Accepted packet rate average = 0.0203438
	minimum = 0.0155 (at node 5)
	maximum = 0.024 (at node 2)
Injected flit rate average = 0.0205
	minimum = 0.0145 (at node 15)
	maximum = 0.0275 (at node 7)
Accepted flit rate average= 0.0203438
	minimum = 0.0155 (at node 5)
	maximum = 0.024 (at node 2)
Injected packet length average = 1
Accepted packet length average = 1
Total in-flight flits = 7 (7 measured)
latency change    = 0.00147181
throughput change = 0.0691244
Class 0:
Packet latency average = 19.4401
	minimum = 7
	maximum = 37
Network latency average = 19.4401
	minimum = 7
	maximum = 37
Slowest packet = 24930
Flit latency average = 19.4454
	minimum = 7
	maximum = 37
Slowest flit = 24930
Fragmentation average = 0
	minimum = 0
	maximum = 0
Injected packet rate average = 0.0203542
	minimum = 0.0156667 (at node 2)
	maximum = 0.0243333 (at node 14)
Accepted packet rate average = 0.0202083
	minimum = 0.0153333 (at node 5)
	maximum = 0.0253333 (at node 15)
Injected flit rate average = 0.0203542
	minimum = 0.0156667 (at node 2)
	maximum = 0.0243333 (at node 14)
Accepted flit rate average= 0.0202083
	minimum = 0.0153333 (at node 5)
	maximum = 0.0253333 (at node 15)
Injected packet length average = 1
Accepted packet length average = 1
Total in-flight flits = 9 (9 measured)
latency change    = 0.0027435
throughput change = 0.00670103
Class 0:
Packet latency average = 19.3914
	minimum = 7
	maximum = 37
Network latency average = 19.3914
	minimum = 7
	maximum = 37
Slowest packet = 24930
Flit latency average = 19.3955
	minimum = 7
	maximum = 37
Slowest flit = 24930
Fragmentation average = 0
	minimum = 0
	maximum = 0
Injected packet rate average = 0.0201406
	minimum = 0.0155 (at node 5)
	maximum = 0.02375 (at node 10)
Accepted packet rate average = 0.0201094
	minimum = 0.0165 (at node 5)
	maximum = 0.02375 (at node 6)
Injected flit rate average = 0.0201406
	minimum = 0.0155 (at node 5)
	maximum = 0.02375 (at node 10)
Accepted flit rate average= 0.0201094
	minimum = 0.0165 (at node 5)
	maximum = 0.02375 (at node 6)
Injected packet length average = 1
Accepted packet length average = 1
Total in-flight flits = 4 (4 measured)
latency change    = 0.00250848
throughput change = 0.004921
Class 0:
Packet latency average = 19.6248
	minimum = 7
	maximum = 37
Network latency average = 19.6248
	minimum = 7
	maximum = 37
Slowest packet = 24930
Flit latency average = 19.6278
	minimum = 7
	maximum = 37
Slowest flit = 24930
Fragmentation average = 0
	minimum = 0
	maximum = 0
Injected packet rate average = 0.0203375
	minimum = 0.0164 (at node 5)
	maximum = 0.0238 (at node 10)
Accepted packet rate average = 0.02025
	minimum = 0.0172 (at node 1)
	maximum = 0.025 (at node 6)
Injected flit rate average = 0.0203375
	minimum = 0.0164 (at node 5)
	maximum = 0.0238 (at node 10)
Accepted flit rate average= 0.02025
	minimum = 0.0172 (at node 1)
	maximum = 0.025 (at node 6)
Injected packet length average = 1
Accepted packet length average = 1
Total in-flight flits = 9 (9 measured)
latency change    = 0.0118934
throughput change = 0.00694444
Draining all recorded packets ...
Draining remaining packets ...
Time taken is 8041 cycles
Class 0:
Packet latency average = 19.7942
	minimum = 7
	maximum = 37
Network latency average = 19.7942
	minimum = 7
	maximum = 37
Slowest packet = 26580
Flit latency average = 19.7942
	minimum = 7
	maximum = 37
Slowest flit = 26580
Fragmentation average = 0
	minimum = 0
	maximum = 0
Injected packet rate average = 0.02
	minimum = 0.012 (at node 14)
	maximum = 0.029 (at node 7)
Accepted packet rate average = 0.0194375
	minimum = 0.013 (at node 3)
	maximum = 0.032 (at node 10)
Injected flit rate average = 0.02
	minimum = 0.012 (at node 14)
	maximum = 0.029 (at node 7)
Accepted flit rate average= 0.0194375
	minimum = 0.013 (at node 3)
	maximum = 0.032 (at node 10)
Injected packet length average = 1
Accepted packet length average = 1
Total in-flight flits = 9 (0 measured)
latency change    = 1
throughput change = 1
Class 0:
Packet latency average = 19.649
	minimum = 7
	maximum = 37
Network latency average = 19.649
	minimum = 7
	maximum = 37
Slowest packet = 26580
Flit latency average = 19.649
	minimum = 7
	maximum = 37
Slowest flit = 26580
Fragmentation average = 0
	minimum = 0
	maximum = 0
Injected packet rate average = 0.0203125
	minimum = 0.016 (at node 14)
	maximum = 0.025 (at node 9)
Accepted packet rate average = 0.0200313
	minimum = 0.0125 (at node 13)
	maximum = 0.029 (at node 6)
Injected flit rate average = 0.0203125
	minimum = 0.016 (at node 14)
	maximum = 0.025 (at node 9)
Accepted flit rate average= 0.0200313
	minimum = 0.0125 (at node 13)
	maximum = 0.029 (at node 6)
Injected packet length average = 1
Accepted packet length average = 1
Total in-flight flits = 9 (0 measured)
latency change    = 0.00739103
throughput change = 0.0296412
Class 0:
Packet latency average = 18.9405
	minimum = 7
	maximum = 37
Network latency average = 18.9405
	minimum = 7
	maximum = 37
Slowest packet = 27300
Flit latency average = 18.9405
	minimum = 7
	maximum = 37
Slowest flit = 27300
Fragmentation average = 0
	minimum = 0
	maximum = 0
Injected packet rate average = 0.0205625
	minimum = 0.015 (at node 7)
	maximum = 0.029 (at node 3)
Accepted packet rate average = 0.021
	minimum = 0.013 (at node 15)
	maximum = 0.028 (at node 1)
Injected flit rate average = 0.0205625
	minimum = 0.015 (at node 7)
	maximum = 0.029 (at node 3)
Accepted flit rate average= 0.021
	minimum = 0.013 (at node 15)
	maximum = 0.028 (at node 1)
Injected packet length average = 1
Accepted packet length average = 1
Total in-flight flits = 2 (0 measured)
latency change    = 0.0374072
throughput change = 0.046131
Warmed up ...Time used is 3000 cycles
Class 0:
Packet latency average = 19.4637
	minimum = 7
	maximum = 37
Network latency average = 19.4637
	minimum = 7
	maximum = 37
Slowest packet = 27567
Flit latency average = 19.4639
	minimum = 7
	maximum = 37
Slowest flit = 27567
Fragmentation average = 0
	minimum = 0
	maximum = 0
Injected packet rate average = 0.020125
	minimum = 0.015 (at node 0)
	maximum = 0.025 (at node 3)
Accepted packet rate average = 0.0199375
	minimum = 0.012 (at node 8)
	maximum = 0.026 (at node 0)
Injected flit rate average = 0.020125
	minimum = 0.015 (at node 0)
	maximum = 0.025 (at node 3)
Accepted flit rate average= 0.0199375
	minimum = 0.012 (at node 8)
	maximum = 0.026 (at node 0)
Injected packet length average = 1
Accepted packet length average = 1
Total in-flight flits = 5 (5 measured)
latency change    = 0.0268832
throughput change = 0.0532915
Class 0:
Packet latency average = 19.3468
	minimum = 7
	maximum = 37
Network latency average = 19.3468
	minimum = 7
	maximum = 37
Slowest packet = 27567
Flit latency average = 19.3473
	minimum = 7
	maximum = 37
Slowest flit = 27567
Fragmentation average = 0
	minimum = 0
	maximum = 0
Injected packet rate average = 0.0209063
	minimum = 0.016 (at node 7)
	maximum = 0.0265 (at node 3)
Accepted packet rate average = 0.020875
	minimum = 0.0135 (at node 15)
	maximum = 0.027 (at node 4)
Injected flit rate average = 0.0209063
	minimum = 0.016 (at node 7)
	maximum = 0.0265 (at node 3)
Accepted flit rate average= 0.020875
	minimum = 0.0135 (at node 15)
	maximum = 0.027 (at node 4)
Injected packet length average = 1
Accepted packet length average = 1
Total in-flight flits = 3 (3 measured)
latency change    = 0.00604106
throughput change = 0.0449102
Class 0:
Packet latency average = 19.4457
	minimum = 7
	maximum = 37
Network latency average = 19.4457
	minimum = 7
	maximum = 37
Slowest packet = 27567
Flit latency average = 19.4458
	minimum = 7
	maximum = 37
Slowest flit = 27567
Fragmentation average = 0
	minimum = 0
	maximum = 0
Injected packet rate average = 0.02
	minimum = 0.0173333 (at node 7)
	maximum = 0.024 (at node 3)
Accepted packet rate average = 0.02
	minimum = 0.0153333 (at node 5)
	maximum = 0.024 (at node 4)
Injected flit rate average = 0.02
	minimum = 0.0173333 (at node 7)
	maximum = 0.024 (at node 3)
Accepted flit rate average= 0.02
	minimum = 0.0153333 (at node 5)
	maximum = 0.024 (at node 4)
Injected packet length average = 1
Accepted packet length average = 1
Total in-flight flits = 2 (2 measured)
latency change    = 0.00508458
throughput change = 0.04375
Class 0:
Packet latency average = 19.3002
	minimum = 7
	maximum = 37
Network latency average = 19.3002
	minimum = 7
	maximum = 37
Slowest packet = 27567
Flit latency average = 19.3005
	minimum = 7
	maximum = 37
Slowest flit = 27567
Fragmentation average = 0
	minimum = 0
	maximum = 0
Injected packet rate average = 0.0192344
	minimum = 0.01675 (at node 7)
	maximum = 0.02275 (at node 3)
Accepted packet rate average = 0.0191875
	minimum = 0.01475 (at node 5)
	maximum = 0.022 (at node 0)
Injected flit rate average = 0.0192344
	minimum = 0.01675 (at node 7)
	maximum = 0.02275 (at node 3)
Accepted flit rate average= 0.0191875
	minimum = 0.01475 (at node 5)
	maximum = 0.022 (at node 0)
Injected packet length average = 1
Accepted packet length average = 1
Total in-flight flits = 5 (5 measured)
latency change    = 0.00754176
throughput change = 0.0423453
Draining all recorded packets ...
Draining remaining packets ...
Time taken is 7040 cycles
Class 0:
Packet latency average = 19.2934
	minimum = 7
	maximum = 37
Network latency average = 19.2934
	minimum = 7
	maximum = 37
Slowest packet = 28949
Flit latency average = 19.2934
	minimum = 7
	maximum = 37
Slowest flit = 28949
Fragmentation average = 0
	minimum = 0
	maximum = 0
Injected packet rate average = 0.021375
	minimum = 0.014 (at node 7)
	maximum = 0.031 (at node 5)
Accepted packet rate average = 0.020875
	minimum = 0.014 (at node 14)
	maximum = 0.028 (at node 12)
Injected flit rate average = 0.021375
	minimum = 0.014 (at node 7)
	maximum = 0.031 (at node 5)
Accepted flit rate average= 0.020875
	minimum = 0.014 (at node 14)
	maximum = 0.028 (at node 12)
Injected packet length average = 1
Accepted packet length average = 1
Total in-flight flits = 8 (0 measured)
latency change    = 1
throughput change = 1
Class 0:
Packet latency average = 19.5347
	minimum = 7
	maximum = 37
Network latency average = 19.5347
	minimum = 7
	maximum = 37
Slowest packet = 28949
Flit latency average = 19.5347
	minimum = 7
	maximum = 37
Slowest flit = 28949
Fragmentation average = 0
	minimum = 0
	maximum = 0
Injected packet rate average = 0.0206563
	minimum = 0.0135 (at node 7)
	maximum = 0.0255 (at node 14)
Accepted packet rate average = 0.0202813
	minimum = 0.016 (at node 4)
	maximum = 0.0275 (at node 11)
Injected flit rate average = 0.0206563
	minimum = 0.0135 (at node 7)
	maximum = 0.0255 (at node 14)
Accepted flit rate average= 0.0202813
	minimum = 0.016 (at node 4)
	maximum = 0.0275 (at node 11)
Injected packet length average = 1
Accepted packet length average = 1
Total in-flight flits = 12 (0 measured)
latency change    = 0.0123501
[...]
	maximum = 37
Slowest flit = 213848
Fragmentation average = 0
	minimum = 0
	maximum = 0
Injected packet rate average = 0.0201875
	minimum = 0.013 (at node 6)
	maximum = 0.032 (at node 10)
Accepted packet rate average = 0.02
	minimum = 0.012 (at node 15)
	maximum = 0.026 (at node 9)
Injected flit rate average = 0.0201875
	minimum = 0.013 (at node 6)
	maximum = 0.032 (at node 10)
Accepted flit rate average= 0.02
	minimum = 0.012 (at node 15)
	maximum = 0.026 (at node 9)
Injected packet length average = 1
Accepted packet length average = 1
Total in-flight flits = 3 (0 measured)
latency change    = 1
throughput change = 1
Class 0:
Packet latency average = 19.0854
	minimum = 7
	maximum = 37
Network latency average = 19.0854
	minimum = 7
	maximum = 37
Slowest packet = 213848
Flit latency average = 19.0854
	minimum = 7
	maximum = 37
Slowest flit = 213848
Fragmentation average = 0
	minimum = 0
	maximum = 0
Injected packet rate average = 0.0202813
	minimum = 0.0135 (at node 14)
	maximum = 0.026 (at node 10)
Accepted packet rate average = 0.020125
	minimum = 0.0165 (at node 15)
	maximum = 0.024 (at node 3)
Injected flit rate average = 0.0202813
	minimum = 0.0135 (at node 14)
	maximum = 0.026 (at node 10)
Accepted flit rate average= 0.020125
	minimum = 0.0165 (at node 15)
	maximum = 0.024 (at node 3)
Injected packet length average = 1
Accepted packet length average = 1
Total in-flight flits = 5 (0 measured)
latency change    = 0.0161002
throughput change = 0.00621118
Class 0:
Packet latency average = 19.1759
	minimum = 7
	maximum = 37
Network latency average = 19.1759
	minimum = 7
	maximum = 37
Slowest packet = 214592
Flit latency average = 19.1759
	minimum = 7
	maximum = 37
Slowest flit = 214592
Fragmentation average = 0
	minimum = 0
	maximum = 0
Injected packet rate average = 0.0191875
	minimum = 0.016 (at node 6)
	maximum = 0.031 (at node 10)
Accepted packet rate average = 0.0191875
	minimum = 0.011 (at node 8)
	maximum = 0.028 (at node 14)
Injected flit rate average = 0.0191875
	minimum = 0.016 (at node 6)
	maximum = 0.031 (at node 10)
Accepted flit rate average= 0.0191875
	minimum = 0.011 (at node 8)
	maximum = 0.028 (at node 14)
Injected packet length average = 1
Accepted packet length average = 1
Total in-flight flits = 5 (0 measured)
latency change    = 0.00471905
throughput change = 0.0488599
Warmed up ...Time used is 3000 cycles
Class 0:
Packet latency average = 19.6098
	minimum = 7
	maximum = 37
Network latency average = 19.6098
	minimum = 7
	maximum = 37
Slowest packet = 214758
Flit latency average = 19.6161
	minimum = 7
	maximum = 37
Slowest flit = 214758
Fragmentation average = 0
	minimum = 0
	maximum = 0
Injected packet rate average = 0.019375
	minimum = 0.01 (at node 6)
	maximum = 0.025 (at node 14)
Accepted packet rate average = 0.019375
	minimum = 0.012 (at node 1)
	maximum = 0.029 (at node 6)
Injected flit rate average = 0.019375
	minimum = 0.01 (at node 6)
	maximum = 0.025 (at node 14)
Accepted flit rate average= 0.019375
	minimum = 0.012 (at node 1)
	maximum = 0.029 (at node 6)
Injected packet length average = 1
Accepted packet length average = 1
Total in-flight flits = 5 (5 measured)
latency change    = 0.0221287
throughput change = 0.00967742
Class 0:
Packet latency average = 19.6554
	minimum = 7
	maximum = 37
Network latency average = 19.6554
	minimum = 7
	maximum = 37
Slowest packet = 214758
Flit latency average = 19.6581
	minimum = 7
	maximum = 37
Slowest flit = 214758
Fragmentation average = 0
	minimum = 0
	maximum = 0
Injected packet rate average = 0.0205938
	minimum = 0.014 (at node 4)
	maximum = 0.027 (at node 10)
Accepted packet rate average = 0.0205625
	minimum = 0.0145 (at node 2)
	maximum = 0.0245 (at node 3)
Injected flit rate average = 0.0205938
	minimum = 0.014 (at node 4)
	maximum = 0.027 (at node 10)
Accepted flit rate average= 0.0205625
	minimum = 0.0145 (at node 2)
	maximum = 0.0245 (at node 3)
Injected packet length average = 1
Accepted packet length average = 1
Total in-flight flits = 6 (6 measured)
latency change    = 0.00231999
throughput change = 0.0577508
Class 0:
Packet latency average = 19.6259
	minimum = 7
	maximum = 37
Network latency average = 19.6259
	minimum = 7
	maximum = 37
Slowest packet = 214758
Flit latency average = 19.6278
	minimum = 7
	maximum = 37
Slowest flit = 214758
Fragmentation average = 0
	minimum = 0
	maximum = 0
Injected packet rate average = 0.0204375
	minimum = 0.0156667 (at node 4)
	maximum = 0.0263333 (at node 14)
Accepted packet rate average = 0.020375
	minimum = 0.015 (at node 4)
	maximum = 0.025 (at node 8)
Injected flit rate average = 0.0204375
	minimum = 0.0156667 (at node 4)
	maximum = 0.0263333 (at node 14)
Accepted flit rate average= 0.020375
	minimum = 0.015 (at node 4)
	maximum = 0.025 (at node 8)
Injected packet length average = 1
Accepted packet length average = 1
Total in-flight flits = 8 (8 measured)
latency change    = 0.00150501
throughput change = 0.00920245
Class 0:
Packet latency average = 19.6785
	minimum = 7
	maximum = 38
Network latency average = 19.6785
	minimum = 7
	maximum = 38
Slowest packet = 215997
Flit latency average = 19.6797
	minimum = 7
	maximum = 38
Slowest flit = 215997
Fragmentation average = 0
	minimum = 0
	maximum = 0
Injected packet rate average = 0.0203281
	minimum = 0.01725 (at node 1)
	maximum = 0.02625 (at node 14)
Accepted packet rate average = 0.0203438
	minimum = 0.01625 (at node 2)
	maximum = 0.0235 (at node 8)
Injected flit rate average = 0.0203281
	minimum = 0.01725 (at node 1)
	maximum = 0.02625 (at node 14)
Accepted flit rate average= 0.0203438
	minimum = 0.01625 (at node 2)
	maximum = 0.0235 (at node 8)
Injected packet length average = 1
Accepted packet length average = 1
Total in-flight flits = 4 (4 measured)
latency change    = 0.00267244
throughput change = 0.0015361
Class 0:
Packet latency average = 19.4784
	minimum = 7
	maximum = 38
Network latency average = 19.4784
	minimum = 7
	maximum = 38
Slowest packet = 215997
Flit latency average = 19.4801
	minimum = 7
	maximum = 38
Slowest flit = 215997
Fragmentation average = 0
	minimum = 0
	maximum = 0
Injected packet rate average = 0.0197375
	minimum = 0.017 (at node 1)
	maximum = 0.0256 (at node 14)
Accepted packet rate average = 0.0197375
	minimum = 0.016 (at node 2)
	maximum = 0.0228 (at node 14)
Injected flit rate average = 0.0197375
	minimum = 0.017 (at node 1)
	maximum = 0.0256 (at node 14)
Accepted flit rate average= 0.0197375
	minimum = 0.016 (at node 2)
	maximum = 0.0228 (at node 14)
Injected packet length average = 1
Accepted packet length average = 1
Total in-flight flits = 5 (5 measured)
latency change    = 0.0102724
throughput change = 0.0307156
Draining all recorded packets ...
Draining remaining packets ...
Time taken is 8055 cycles
Class 0:
Packet latency average = 19.652
	minimum = 7
	maximum = 37
Network latency average = 19.652
	minimum = 7
	maximum = 37
Slowest packet = 216367
Flit latency average = 19.652
	minimum = 7
	maximum = 37
Slowest flit = 216367
Fragmentation average = 0
	minimum = 0
	maximum = 0
Injected packet rate average = 0.0203125
	minimum = 0.014 (at node 0)
	maximum = 0.024 (at node 2)
Accepted packet rate average = 0.0199375
	minimum = 0.011 (at node 1)
	maximum = 0.028 (at node 13)
Injected flit rate average = 0.0203125
	minimum = 0.014 (at node 0)
	maximum = 0.024 (at node 2)
Accepted flit rate average= 0.0199375
	minimum = 0.011 (at node 1)
	maximum = 0.028 (at node 13)
Injected packet length average = 1
Accepted packet length average = 1
Total in-flight flits = 6 (0 measured)
latency change    = 1
throughput change = 1
Class 0:
Packet latency average = 19.2072
	minimum = 7
	maximum = 38
Network latency average = 19.2072
	minimum = 7
	maximum = 38
Slowest packet = 216930
Flit latency average = 19.2072
	minimum = 7
	maximum = 38
Slowest flit = 216930
Fragmentation average = 0
	minimum = 0
	maximum = 0
Injected packet rate average = 0.0203125
	minimum = 0.016 (at node 15)
	maximum = 0.024 (at node 2)
Accepted packet rate average = 0.0200625
	minimum = 0.015 (at node 7)
	maximum = 0.027 (at node 11)
Injected flit rate average = 0.0203125
	minimum = 0.016 (at node 15)
	maximum = 0.024 (at node 2)
Accepted flit rate average= 0.0200625
	minimum = 0.015 (at node 7)
	maximum = 0.027 (at node 11)
Injected packet length average = 1
Accepted packet length average = 1
Total in-flight flits = 8 (0 measured)
latency change    = 0.0231618
throughput change = 0.00623053
Class 0:
Packet latency average = 19.0548
	minimum = 7
	maximum = 37
Network latency average = 19.0548
	minimum = 7
	maximum = 37
Slowest packet = 216996
Flit latency average = 19.0548
	minimum = 7
	maximum = 37
Slowest flit = 216996
Fragmentation average = 0
	minimum = 0
	maximum = 0
Injected packet rate average = 0.0180625
	minimum = 0.011 (at node 0)
	maximum = 0.025 (at node 5)
Accepted packet rate average = 0.01825
	minimum = 0.01 (at node 13)
	maximum = 0.024 (at node 0)
Injected flit rate average = 0.0180625
	minimum = 0.011 (at node 0)
	maximum = 0.025 (at node 5)
Accepted flit rate average= 0.01825
	minimum = 0.01 (at node 13)
	maximum = 0.024 (at node 0)
Injected packet length average = 1
Accepted packet length average = 1
Total in-flight flits = 5 (0 measured)
latency change    = 0.00799644
throughput change = 0.0993151
Warmed up ...Time used is 3000 cycles
Class 0:
Packet latency average = 18.7221
	minimum = 7
	maximum = 37
Network latency average = 18.7221
	minimum = 7
	maximum = 37
Slowest packet = 217273
Flit latency average = 18.8006
	minimum = 7
	maximum = 37
Slowest flit = 217273
Fragmentation average = 0
	minimum = 0
	maximum = 0
Injected packet rate average = 0.021375
	minimum = 0.013 (at node 8)
	maximum = 0.03 (at node 12)
Accepted packet rate average = 0.021
	minimum = 0.015 (at node 9)
	maximum = 0.03 (at node 11)
Injected flit rate average = 0.021375
	minimum = 0.013 (at node 8)
	maximum = 0.03 (at node 12)
Accepted flit rate average= 0.021
	minimum = 0.015 (at node 9)
	maximum = 0.03 (at node 11)
Injected packet length average = 1
Accepted packet length average = 1
Total in-flight flits = 11 (11 measured)
latency change    = 0.0177726
throughput change = 0.130952
Class 0:
Packet latency average = 19.061
	minimum = 7
	maximum = 37
Network latency average = 19.061
	minimum = 7
	maximum = 37
Slowest packet = 217273
Flit latency average = 19.0983
	minimum = 7
	maximum = 37
Slowest flit = 217273
Fragmentation average = 0
	minimum = 0
	maximum = 0
Injected packet rate average = 0.0208125
	minimum = 0.014 (at node 8)
	maximum = 0.028 (at node 12)
Accepted packet rate average = 0.0206563
	minimum = 0.0145 (at node 13)
	maximum = 0.025 (at node 10)
Injected flit rate average = 0.0208125
	minimum = 0.014 (at node 8)
	maximum = 0.028 (at node 12)
Accepted flit rate average= 0.0206563
	minimum = 0.0145 (at node 13)
	maximum = 0.025 (at node 10)
Injected packet length average = 1
Accepted packet length average = 1
Total in-flight flits = 10 (10 measured)
latency change    = 0.0177809
throughput change = 0.0166415
Class 0:
Packet latency average = 19.3143
	minimum = 7
	maximum = 38
Network latency average = 19.3143
	minimum = 7
	maximum = 38
Slowest packet = 218027
Flit latency average = 19.3372
	minimum = 7
	maximum = 38
Slowest flit = 218027
Fragmentation average = 0
	minimum = 0
	maximum = 0
Injected packet rate average = 0.021375
	minimum = 0.016 (at node 8)
	maximum = 0.027 (at node 0)
Accepted packet rate average = 0.0213125
	minimum = 0.0173333 (at node 13)
	maximum = 0.024 (at node 3)
Injected flit rate average = 0.021375
	minimum = 0.016 (at node 8)
	maximum = 0.027 (at node 0)
Accepted flit rate average= 0.0213125
	minimum = 0.0173333 (at node 13)
	maximum = 0.024 (at node 3)
Injected packet length average = 1
Accepted packet length average = 1
Total in-flight flits = 8 (8 measured)
latency change    = 0.013118
throughput change = 0.0307918
Class 0:
Packet latency average = 19.2239
	minimum = 7
	maximum = 38
Network latency average = 19.2239
	minimum = 7
	maximum = 38
Slowest packet = 218027
Flit latency average = 19.2418
	minimum = 7
	maximum = 38
Slowest flit = 218027
Fragmentation average = 0
	minimum = 0
	maximum = 0
Injected packet rate average = 0.0209375
	minimum = 0.0165 (at node 4)
	maximum = 0.0255 (at node 2)
Accepted packet rate average = 0.020875
	minimum = 0.0165 (at node 13)
	maximum = 0.02375 (at node 3)
Injected flit rate average = 0.0209375
	minimum = 0.0165 (at node 4)
	maximum = 0.0255 (at node 2)
Accepted flit rate average= 0.020875
	minimum = 0.0165 (at node 13)
	maximum = 0.02375 (at node 3)
Injected packet length average = 1
Accepted packet length average = 1
Total in-flight flits = 9 (9 measured)
latency change    = 0.00470508
throughput change = 0.0209581
Draining all recorded packets ...
Draining remaining packets ...
Time taken is 7054 cycles
Class 0:
Packet latency average = 19.6254
	minimum = 7
	maximum = 37
Network latency average = 19.6254
	minimum = 7
	maximum = 37
Slowest packet = 218668
Flit latency average = 19.6254
	minimum = 7
	maximum = 37
Slowest flit = 218668
Fragmentation average = 0
	minimum = 0
	maximum = 0
Injected packet rate average = 0.019125
	minimum = 0.012 (at node 4)
	maximum = 0.027 (at node 14)
Accepted packet rate average = 0.0186875
	minimum = 0.012 (at node 1)
	maximum = 0.027 (at node 5)
Injected flit rate average = 0.019125
	minimum = 0.012 (at node 4)
	maximum = 0.027 (at node 14)
Accepted flit rate average= 0.0186875
	minimum = 0.012 (at node 1)
	maximum = 0.027 (at node 5)
Injected packet length average = 1
Accepted packet length average = 1
Total in-flight flits = 7 (0 measured)
latency change    = 1
throughput change = 1
Class 0:
Packet latency average = 19.5331
	minimum = 7
	maximum = 37
Network latency average = 19.5331
	minimum = 7
	maximum = 37
Slowest packet = 218668
Flit latency average = 19.5331
	minimum = 7
	maximum = 37
Slowest flit = 218668
Fragmentation average = 0
	minimum = 0
	maximum = 0
Injected packet rate average = 0.0195938
	minimum = 0.0125 (at node 15)
	maximum = 0.0245 (at node 2)
Accepted packet rate average = 0.0193437
	minimum = 0.014 (at node 1)
	maximum = 0.0275 (at node 5)
Injected flit rate average = 0.0195938
	minimum = 0.0125 (at node 15)
	maximum = 0.0245 (at node 2)
Accepted flit rate average= 0.0193437
	minimum = 0.014 (at node 1)
	maximum = 0.0275 (at node 5)
Injected packet length average = 1
Accepted packet length average = 1
Total in-flight flits = 8 (0 measured)
latency change    = 0.00472531
throughput change = 0.0339257
Class 0:
Packet latency average = 18.697
	minimum = 7
	maximum = 37
Network latency average = 18.697
	minimum = 7
	maximum = 37
Slowest packet = 219274
Flit latency average = 18.697
	minimum = 7
	maximum = 37
Slowest flit = 219274
Fragmentation average = 0
	minimum = 0
	maximum = 0
Injected packet rate average = 0.0185
	minimum = 0.009 (at node 14)
	maximum = 0.029 (at node 2)
Accepted packet rate average = 0.0185625
	minimum = 0.015 (at node 13)
	maximum = 0.026 (at node 0)
Injected flit rate average = 0.0185
	minimum = 0.009 (at node 14)
	maximum = 0.029 (at node 2)
Accepted flit rate average= 0.0185625
	minimum = 0.015 (at node 13)
	maximum = 0.026 (at node 0)
Injected packet length average = 1
Accepted packet length average = 1
Total in-flight flits = 7 (0 measured)
latency change    = 0.0447211
throughput change = 0.0420875
Warmed up ...Time used is 3000 cycles
Class 0:
Packet latency average = 20.3468
	minimum = 7
	maximum = 37
Network latency average = 20.3468
	minimum = 7
	maximum = 37
Slowest packet = 219536
Flit latency average = 20.3849
	minimum = 7
	maximum = 37
Slowest flit = 219536
Fragmentation average = 0
	minimum = 0
	maximum = 0
Injected packet rate average = 0.01875
	minimum = 0.01 (at node 9)
	maximum = 0.027 (at node 0)
Accepted packet rate average = 0.019
	minimum = 0.009 (at node 12)
	maximum = 0.024 (at node 11)
Injected flit rate average = 0.01875
	minimum = 0.01 (at node 9)
	maximum = 0.027 (at node 0)
Accepted flit rate average= 0.019
	minimum = 0.009 (at node 12)
	maximum = 0.024 (at node 11)
Injected packet length average = 1
Accepted packet length average = 1
Total in-flight flits = 3 (3 measured)
latency change    = 0.0810856
throughput change = 0.0230263
Class 0:
Packet latency average = 19.7564
	minimum = 7
	maximum = 37
Network latency average = 19.7564
	minimum = 7
	maximum = 37
Slowest packet = 219536
Flit latency average = 19.7811
	minimum = 7
	maximum = 37
Slowest flit = 219536
Fragmentation average = 0
	minimum = 0
	maximum = 0
Injected packet rate average = 0.0197813
	minimum = 0.0135 (at node 11)
	maximum = 0.024 (at node 15)
Accepted packet rate average = 0.0198438
	minimum = 0.013 (at node 5)
	maximum = 0.028 (at node 8)
Injected flit rate average = 0.0197813
	minimum = 0.0135 (at node 11)
	maximum = 0.024 (at node 15)
Accepted flit rate average= 0.0198438
	minimum = 0.013 (at node 5)
	maximum = 0.028 (at node 8)
Injected packet length average = 1
Accepted packet length average = 1
Total in-flight flits = 5 (5 measured)
latency change    = 0.0298856
throughput change = 0.0425197
Class 0:
Packet latency average = 19.6965
	minimum = 7
	maximum = 37
Network latency average = 19.6965
	minimum = 7
	maximum = 37
Slowest packet = 219536
Flit latency average = 19.713
	minimum = 7
	maximum = 37
Slowest flit = 219536
Fragmentation average = 0
	minimum = 0
	maximum = 0
Injected packet rate average = 0.0204167
	minimum = 0.0153333 (at node 12)
	maximum = 0.0256667 (at node 2)
Accepted packet rate average = 0.0203958
	minimum = 0.013 (at node 5)
	maximum = 0.0286667 (at node 8)
Injected flit rate average = 0.0204167
	minimum = 0.0153333 (at node 12)
	maximum = 0.0256667 (at node 2)
Accepted flit rate average= 0.0203958
	minimum = 0.013 (at node 5)
	maximum = 0.0286667 (at node 8)
Injected packet length average = 1
Accepted packet length average = 1
Total in-flight flits = 8 (8 measured)
latency change    = 0.00303949
throughput change = 0.0270684
Class 0:
Packet latency average = 19.6195
	minimum = 7
	maximum = 37
Network latency average = 19.6195
	minimum = 7
	maximum = 37
Slowest packet = 219536
Flit latency average = 19.6324
	minimum = 7
	maximum = 37
Slowest flit = 219536
Fragmentation average = 0
	minimum = 0
	maximum = 0
Injected packet rate average = 0.0201563
	minimum = 0.01525 (at node 12)
	maximum = 0.02525 (at node 2)
Accepted packet rate average = 0.0201875
	minimum = 0.015 (at node 5)
	maximum = 0.02725 (at node 8)
Injected flit rate average = 0.0201563
	minimum = 0.01525 (at node 12)
	maximum = 0.02525 (at node 2)
Accepted flit rate average= 0.0201875
	minimum = 0.015 (at node 5)
	maximum = 0.02725 (at node 8)
Injected packet length average = 1
Accepted packet length average = 1
Total in-flight flits = 5 (5 measured)
latency change    = 0.00392706
throughput change = 0.0103199
Draining all recorded packets ...
Draining remaining packets ...
Time taken is 7022 cycles
====== Overall Traffic Statistics ======
====== Traffic class 0 ======
Packet latency average = 19.51 (100 samples)
	minimum = 7 (100 samples)
	maximum = 37.3 (100 samples)
Network latency average = 19.51 (100 samples)
	minimum = 7 (100 samples)
	maximum = 37.29 (100 samples)
Flit latency average = 19.5218 (100 samples)
	minimum = 7 (100 samples)
	maximum = 37.29 (100 samples)
Fragmentation average = 0 (100 samples)
	minimum = 0 (100 samples)
	maximum = 0 (100 samples)
Injected packet rate average = 0.0200326 (100 samples)
	minimum = 0.0161295 (100 samples)
	maximum = 0.0240957 (100 samples)
Accepted packet rate average = 0.0200368 (100 samples)
	minimum = 0.0159333 (100 samples)
	maximum = 0.0242139 (100 samples)
Injected flit rate average = 0.0200326 (100 samples)
	minimum = 0.0161295 (100 samples)
	maximum = 0.0240957 (100 samples)
Accepted flit rate average = 0.0200368 (100 samples)
	minimum = 0.0159333 (100 samples)
	maximum = 0.0242139 (100 samples)
Injected packet size average = 1 (100 samples)
Accepted packet size average = 1 (100 samples)
Hops average = 3.49885 (100 samples)
Total run time 5.15675
