BEGIN Configuration File: /tmp/bs_1138183_313927.cfg
topology = mesh;
k = 4;
n = 2;
routing_function = min_adapt;
num_vcs = 4;
vc_buf_size = 4;
wait_for_tail_credit = 1;
vc_allocator = islip;
sw_allocator = islip;
alloc_iters = 1;
credit_delay = 2;
routing_delay = 1;
vc_alloc_delay = 1;
sw_alloc_delay = 1;
input_speedup = 2;
output_speedup = 1;
internal_speedup = 1.0;
traffic = uniform;
packet_size = 1;
sim_type = latency;
injection_rate = 0.1;
warmup_periods = 3;
sample_period = 1000;
sim_count = 100;
seed = 4;

END Configuration File: /tmp/bs_1138183_313927.cfg
Class 0:
Packet latency average = 21.5235
	minimum = 7
	maximum = 64
Network latency average = 21.5235
	minimum = 7
	maximum = 64
Slowest packet = 102
Flit latency average = 21.5235
	minimum = 7
	maximum = 64
Slowest flit = 102
Fragmentation average = 0
	minimum = 0
	maximum = 0
Injected packet rate average = 0.100312
	minimum = 0.082 (at node 6)
	maximum = 0.111 (at node 2)
Accepted packet rate average = 0.0985
	minimum = 0.085 (at node 2)
	maximum = 0.111 (at node 12)
Injected flit rate average = 0.100312
	minimum = 0.082 (at node 6)
	maximum = 0.111 (at node 2)
Accepted flit rate average= 0.0985
	minimum = 0.085 (at node 2)
	maximum = 0.111 (at node 12)
Injected packet length average = 1
Accepted packet length average = 1
Total in-flight flits = 29 (0 measured)
latency change    = 1
throughput change = 1
Class 0:
Packet latency average = 21.5699
	minimum = 7
	maximum = 89
Network latency average = 21.5693
	minimum = 7
	maximum = 89
Slowest packet = 2740
Flit latency average = 21.5693
	minimum = 7
	maximum = 89
Slowest flit = 2740
Fragmentation average = 0
	minimum = 0
	maximum = 0
Injected packet rate average = 0.101781
	minimum = 0.093 (at node 6)
	maximum = 0.113 (at node 2)
Accepted packet rate average = 0.100781
	minimum = 0.091 (at node 9)
	maximum = 0.111 (at node 0)
Injected flit rate average = 0.101781
	minimum = 0.093 (at node 6)
	maximum = 0.113 (at node 2)
Accepted flit rate average= 0.100781
	minimum = 0.091 (at node 9)
	maximum = 0.111 (at node 0)
Injected packet length average = 1
Accepted packet length average = 1
Total in-flight flits = 32 (0 measured)
latency change    = 0.00215324
throughput change = 0.0226357
Class 0:
Packet latency average = 21.1952
	minimum = 7
	maximum = 80
Network latency average = 21.1945
	minimum = 7
	maximum = 80
Slowest packet = 3341
Flit latency average = 21.1945
	minimum = 7
	maximum = 80
Slowest flit = 3341
Fragmentation average = 0
	minimum = 0
	maximum = 0
Injected packet rate average = 0.10075
	minimum = 0.08 (at node 6)
	maximum = 0.118 (at node 10)
Accepted packet rate average = 0.100562
	minimum = 0.083 (at node 5)
	maximum = 0.119 (at node 7)
Injected flit rate average = 0.10075
	minimum = 0.08 (at node 6)
	maximum = 0.118 (at node 10)
Accepted flit rate average= 0.100562
	minimum = 0.083 (at node 5)
	maximum = 0.119 (at node 7)
Injected packet length average = 1
Accepted packet length average = 1
Total in-flight flits = 35 (0 measured)
latency change    = 0.0176819
throughput change = 0.00217526
Warmed up ...Time used is 3000 cycles
Class 0:
Packet latency average = 21.2505
	minimum = 7
	maximum = 74
Network latency average = 21.2505
	minimum = 7
	maximum = 74
Slowest packet = 6242
Flit latency average = 21.3829
	minimum = 7
	maximum = 74
Slowest flit = 6242
Fragmentation average = 0
	minimum = 0
	maximum = 0
Injected packet rate average = 0.0991875
	minimum = 0.085 (at node 12)
	maximum = 0.122 (at node 9)
Accepted packet rate average = 0.09925
	minimum = 0.085 (at node 1)
	maximum = 0.116 (at node 13)
Injected flit rate average = 0.0991875
	minimum = 0.085 (at node 12)
	maximum = 0.122 (at node 9)
Accepted flit rate average= 0.09925
	minimum = 0.085 (at node 1)
	maximum = 0.116 (at node 13)
Injected packet length average = 1
Accepted packet length average = 1
Total in-flight flits = 34 (34 measured)
latency change    = 0.00260374
throughput change = 0.0132242
Class 0:
Packet latency average = 21.2708
	minimum = 7
	maximum = 74
Network latency average = 21.2705
	minimum = 7
	maximum = 74
Slowest packet = 6242
Flit latency average = 21.3358
	minimum = 7
	maximum = 74
Slowest flit = 6242
Fragmentation average = 0
	minimum = 0
	maximum = 0
Injected packet rate average = 0.1
	minimum = 0.088 (at node 4)
	maximum = 0.113 (at node 6)
Accepted packet rate average = 0.100219
	minimum = 0.0885 (at node 11)
	maximum = 0.1095 (at node 0)
Injected flit rate average = 0.1
	minimum = 0.088 (at node 4)
	maximum = 0.113 (at node 6)
Accepted flit rate average= 0.100219
	minimum = 0.0885 (at node 11)
	maximum = 0.1095 (at node 0)
Injected packet length average = 1
Accepted packet length average = 1
Total in-flight flits = 28 (28 measured)
latency change    = 0.000955494
throughput change = 0.00966635
Class 0:
Packet latency average = 21.3419
	minimum = 7
	maximum = 74
Network latency average = 21.3408
	minimum = 7
	maximum = 74
Slowest packet = 6242
Flit latency average = 21.3839
	minimum = 7
	maximum = 74
Slowest flit = 6242
Fragmentation average = 0
	minimum = 0
	maximum = 0
Injected packet rate average = 0.0999375
	minimum = 0.0886667 (at node 2)
	maximum = 0.110667 (at node 6)
Accepted packet rate average = 0.100125
	minimum = 0.0916667 (at node 8)
	maximum = 0.108667 (at node 14)
Injected flit rate average = 0.0999375
	minimum = 0.0886667 (at node 2)
	maximum = 0.110667 (at node 6)
Accepted flit rate average= 0.100125
	minimum = 0.0916667 (at node 8)
	maximum = 0.108667 (at node 14)
Injected packet length average = 1
Accepted packet length average = 1
Total in-flight flits = 26 (26 measured)
latency change    = 0.00332914
throughput change = 0.00093633
Draining all recorded packets ...
Draining remaining packets ...
Time taken is 6081 cycles
Class 0:
Packet latency average = 21.6087
	minimum = 7
	maximum = 95
Network latency average = 21.6074
	minimum = 7
	maximum = 95
Slowest packet = 10757
Flit latency average = 21.6074
	minimum = 7
	maximum = 95
Slowest flit = 10757
Fragmentation average = 0
	minimum = 0
	maximum = 0
Injected packet rate average = 0.0985625
	minimum = 0.086 (at node 7)
	maximum = 0.116 (at node 12)
Accepted packet rate average = 0.0963125
	minimum = 0.089 (at node 12)
	maximum = 0.107 (at node 7)
Injected flit rate average = 0.0985625
	minimum = 0.086 (at node 7)
	maximum = 0.116 (at node 12)
Accepted flit rate average= 0.0963125
	minimum = 0.089 (at node 12)
	maximum = 0.107 (at node 7)
Injected packet length average = 1
Accepted packet length average = 1
Total in-flight flits = 36 (0 measured)
latency change    = 1
throughput change = 1
Class 0:
Packet latency average = 21.5587
	minimum = 7
	maximum = 95
Network latency average = 21.5574
	minimum = 7
	maximum = 95
Slowest packet = 10757
Flit latency average = 21.5574
	minimum = 7
	maximum = 95
Slowest flit = 10757
Fragmentation average = 0
	minimum = 0
	maximum = 0
Injected packet rate average = 0.100656
	minimum = 0.09 (at node 8)
	maximum = 0.1215 (at node 12)
Accepted packet rate average = 0.0993437
	minimum = 0.0905 (at node 15)
	maximum = 0.1095 (at node 8)
Injected flit rate average = 0.100656
	minimum = 0.09 (at node 8)
	maximum = 0.1215 (at node 12)
Accepted flit rate average= 0.0993437
	minimum = 0.0905 (at node 15)
	maximum = 0.1095 (at node 8)
Injected packet length average = 1
Accepted packet length average = 1
Total in-flight flits = 42 (0 measured)
latency change    = 0.00232062
throughput change = 0.0305127
Class 0:
Packet latency average = 21.588
	minimum = 7
	maximum = 69
Network latency average = 21.588
	minimum = 7
	maximum = 69
Slowest packet = 13840
Flit latency average = 21.588
	minimum = 7
	maximum = 69
Slowest flit = 13840
Fragmentation average = 0
	minimum = 0
	maximum = 0
Injected packet rate average = 0.1
	minimum = 0.089 (at node 1)
	maximum = 0.113 (at node 13)
Accepted packet rate average = 0.100875
	minimum = 0.085 (at node 13)
	maximum = 0.119 (at node 15)
Injected flit rate average = 0.1
	minimum = 0.089 (at node 1)
	maximum = 0.113 (at node 13)
Accepted flit rate average= 0.100875
	minimum = 0.085 (at node 13)
	maximum = 0.119 (at node 15)
Injected packet length average = 1
Accepted packet length average = 1
Total in-flight flits = 28 (0 measured)
latency change    = 0.00135788
throughput change = 0.0151797
Warmed up ...Time used is 3000 cycles
Class 0:
Packet latency average = 21.5979
	minimum = 7
	maximum = 99
Network latency average = 21.5979
	minimum = 7
	maximum = 99
Slowest packet = 14822
Flit latency average = 21.6799
	minimum = 7
	maximum = 99
Slowest flit = 14822
Fragmentation average = 0
	minimum = 0
	maximum = 0
Injected packet rate average = 0.0976875
	minimum = 0.084 (at node 0)
	maximum = 0.118 (at node 12)
Accepted packet rate average = 0.0978125
	minimum = 0.08 (at node 1)
	maximum = 0.109 (at node 0)
Injected flit rate average = 0.0976875
	minimum = 0.084 (at node 0)
	maximum = 0.118 (at node 12)
Accepted flit rate average= 0.0978125
	minimum = 0.08 (at node 1)
	maximum = 0.109 (at node 0)
Injected packet length average = 1
Accepted packet length average = 1
Total in-flight flits = 26 (26 measured)
latency change    = 0.00046013
throughput change = 0.0313099
Class 0:
Packet latency average = 21.2105
	minimum = 7
	maximum = 99
Network latency average = 21.2105
	minimum = 7
	maximum = 99
Slowest packet = 14822
Flit latency average = 21.2542
	minimum = 7
	maximum = 99
Slowest flit = 14822
Fragmentation average = 0
	minimum = 0
	maximum = 0
Injected packet rate average = 0.0997813
	minimum = 0.089 (at node 0)
	maximum = 0.113 (at node 10)
Accepted packet rate average = 0.0994375
	minimum = 0.092 (at node 7)
	maximum = 0.1145 (at node 0)
Injected flit rate average = 0.0997813
	minimum = 0.089 (at node 0)
	maximum = 0.113 (at node 10)
Accepted flit rate average= 0.0994375
	minimum = 0.092 (at node 7)
	maximum = 0.1145 (at node 0)
Injected packet length average = 1
Accepted packet length average = 1
Total in-flight flits = 39 (39 measured)
latency change    = 0.0182641
throughput change = 0.0163419
Class 0:
Packet latency average = 21.301
	minimum = 7
	maximum = 99
Network latency average = 21.301
	minimum = 7
	maximum = 99
Slowest packet = 14822
Flit latency average = 21.3294
	minimum = 7
	maximum = 99
Slowest flit = 14822
Fragmentation average = 0
	minimum = 0
	maximum = 0
Injected packet rate average = 0.100458
	minimum = 0.0903333 (at node 5)
	maximum = 0.110667 (at node 15)
Accepted packet rate average = 0.10025
	minimum = 0.094 (at node 13)
	maximum = 0.115667 (at node 0)
Injected flit rate average = 0.100458
	minimum = 0.0903333 (at node 5)
	maximum = 0.110667 (at node 15)
Accepted flit rate average= 0.10025
	minimum = 0.094 (at node 13)
	maximum = 0.115667 (at node 0)
Injected packet length average = 1
Accepted packet length average = 1
Total in-flight flits = 38 (38 measured)
latency change    = 0.00424755
throughput change = 0.00810474
Draining all recorded packets ...
Draining remaining packets ...
Time taken is 6080 cycles
Class 0:
Packet latency average = 21.6178
	minimum = 7
	maximum = 74
Network latency average = 21.6172
	minimum = 7
	maximum = 74
Slowest packet = 20274
Flit latency average = 21.6172
	minimum = 7
	maximum = 74
Slowest flit = 20274
Fragmentation average = 0
	minimum = 0
	maximum = 0
Injected packet rate average = 0.098375
	minimum = 0.081 (at node 13)
	maximum = 0.121 (at node 15)
Accepted packet rate average = 0.096
	minimum = 0.08 (at node 7)
	maximum = 0.108 (at node 14)
Injected flit rate average = 0.098375
	minimum = 0.081 (at node 13)
	maximum = 0.121 (at node 15)
Accepted flit rate average= 0.096
	minimum = 0.08 (at node 7)
	maximum = 0.108 (at node 14)
Injected packet length average = 1
Accepted packet length average = 1
Total in-flight flits = 38 (0 measured)
latency change    = 1
throughput change = 1
Class 0:
Packet latency average = 21.4479
	minimum = 7
	maximum = 82
Network latency average = 21.4463
	minimum = 7
	maximum = 82
Slowest packet = 21437
Flit latency average = 21.4463
	minimum = 7
	maximum = 82
Slowest flit = 21437
Fragmentation average = 0
	minimum = 0
	maximum = 0
Injected packet rate average = 0.0996875
	minimum = 0.0875 (at node 3)
	maximum = 0.115 (at node 6)
Accepted packet rate average = 0.099
	minimum = 0.088 (at node 7)
	maximum = 0.108 (at node 8)
Injected flit rate average = 0.0996875
	minimum = 0.0875 (at node 3)
	maximum = 0.115 (at node 6)
Accepted flit rate average= 0.099
	minimum = 0.088 (at node 7)
	maximum = 0.108 (at node 8)
Injected packet length average = 1
Accepted packet length average = 1
Total in-flight flits = 22 (0 measured)
latency change    = 0.00792254
throughput change = 0.030303
Class 0:
Packet latency average = 21.271
	minimum = 7
	maximum = 91
Network latency average = 21.271
	minimum = 7
	maximum = 91
Slowest packet = 23743
Flit latency average = 21.271
	minimum = 7
	maximum = 91
Slowest flit = 23743
Fragmentation average = 0
	minimum = 0
	maximum = 0
Injected packet rate average = 0.0976875
	minimum = 0.079 (at node 5)
	maximum = 0.117 (at node 2)
Accepted packet rate average = 0.0973125
	minimum = 0.078 (at node 15)
	maximum = 0.118 (at node 14)
Injected flit rate average = 0.0976875
	minimum = 0.079 (at node 5)
	maximum = 0.117 (at node 2)
Accepted flit rate average= 0.0973125
	minimum = 0.078 (at node 15)
	maximum = 0.118 (at node 14)
Injected packet length average = 1
Accepted packet length average = 1
Total in-flight flits = 28 (0 measured)
latency change    = 0.00831566
throughput change = 0.017341
Warmed up ...Time used is 3000 cycles
Class 0:
Packet latency average = 21.3329
	minimum = 7
	maximum = 67
Network latency average = 21.329
	minimum = 7
	maximum = 67
Slowest packet = 24259
Flit latency average = 21.3651
	minimum = 7
	maximum = 67
Slowest flit = 24259
Fragmentation average = 0
	minimum = 0
	maximum = 0
Injected packet rate average = 0.099375
	minimum = 0.089 (at node 1)
	maximum = 0.109 (at node 15)
Accepted packet rate average = 0.09825
	minimum = 0.075 (at node 5)
	maximum = 0.11 (at node 6)
Injected flit rate average = 0.099375
	minimum = 0.089 (at node 1)
	maximum = 0.109 (at node 15)
Accepted flit rate average= 0.09825
	minimum = 0.075 (at node 5)
	maximum = 0.11 (at node 6)
Injected packet length average = 1
Accepted packet length average = 1
Total in-flight flits = 46 (46 measured)
latency change    = 0.0029001
throughput change = 0.00954198
Class 0:
Packet latency average = 21.3128
	minimum = 7
	maximum = 67
Network latency average = 21.3109
	minimum = 7
	maximum = 67
Slowest packet = 24259
Flit latency average = 21.3289
	minimum = 7
	maximum = 67
Slowest flit = 24259
Fragmentation average = 0
	minimum = 0
	maximum = 0
Injected packet rate average = 0.0996875
	minimum = 0.087 (at node 1)
	maximum = 0.1155 (at node 15)
Accepted packet rate average = 0.099375
	minimum = 0.085 (at node 5)
	maximum = 0.121 (at node 6)
Injected flit rate average = 0.0996875
	minimum = 0.087 (at node 1)
	maximum = 0.1155 (at node 15)
Accepted flit rate average= 0.099375
	minimum = 0.085 (at node 5)
	maximum = 0.121 (at node 6)
Injected packet length average = 1
Accepted packet length average = 1
Total in-flight flits = 38 (38 measured)
latency change    = 0.000942358
throughput change = 0.0113208
Class 0:
Packet latency average = 21.4638
	minimum = 7
	maximum = 70
Network latency average = 21.4625
	minimum = 7
	maximum = 70
Slowest packet = 27948
Flit latency average = 21.4737
	minimum = 7
	maximum = 70
Slowest flit = 27948
Fragmentation average = 0
	minimum = 0
	maximum = 0
Injected packet rate average = 0.0992708
	minimum = 0.0886667 (at node 1)
	maximum = 0.111667 (at node 15)
Accepted packet rate average = 0.0990417
	minimum = 0.0856667 (at node 5)
	maximum = 0.116 (at node 6)
Injected flit rate average = 0.0992708
	minimum = 0.0886667 (at node 1)
	maximum = 0.111667 (at node 15)
Accepted flit rate average= 0.0990417
	minimum = 0.0856667 (at node 5)
	maximum = 0.116 (at node 6)
Injected packet length average = 1
Accepted packet length average = 1
Total in-flight flits = 39 (39 measured)
latency change    = 0.00703509
throughput change = 0.00336559
Draining all recorded packets ...
Draining remaining packets ...
Time taken is 6095 cycles
Class 0:
Packet latency average = 21.5526
	minimum = 7
	maximum = 76
Network latency average = 21.5526
	minimum = 7
	maximum = 76
Slowest packet = 29545
Flit latency average = 21.5526
	minimum = 7
	maximum = 76
Slowest flit = 29545
Fragmentation average = 0
	minimum = 0
	maximum = 0
Injected packet rate average = 0.10025
	minimum = 0.087 (at node 10)
	maximum = 0.117 (at node 15)
Accepted packet rate average = 0.0979375
	minimum = 0.082 (at node 14)
	maximum = 0.112 (at node 6)
Injected flit rate average = 0.10025
	minimum = 0.087 (at node 10)
	maximum = 0.117 (at node 15)
Accepted flit rate average= 0.0979375
	minimum = 0.082 (at node 14)
	maximum = 0.112 (at node 6)
Injected packet length average = 1
Accepted packet length average = 1
Total in-flight flits = 37 (0 measured)
latency change    = 1
throughput change = 1
Class 0:
Packet latency average = 21.5731
	minimum = 7
	maximum = 76
Network latency average = 21.5724
	minimum = 7
	maximum = 76
Slowest packet = 29545
Flit latency average = 21.5724
	minimum = 7
	maximum = 76
Slowest flit = 29545
Fragmentation average = 0
	minimum = 0
	maximum = 0
Injected packet rate average = 0.0999375
	minimum = 0.086 (at node 3)
	maximum = 0.1155 (at node 9)
Accepted packet rate average = 0.0990313
	minimum = 0.0855 (at node 14)
	maximum = 0.1095 (at node 15)
Injected flit rate average = 0.0999375
	minimum = 0.086 (at node 3)
	maximum = 0.1155 (at node 9)
Accepted flit rate average= 0.0990313
	minimum = 0.0855 (at node 14)
	maximum = 0.1095 (at node 15)
Injected packet length average = 1
Accepted packet length average = 1
Total in-flight flits = 29 (0 measured)
latency change    = 0.000945766
throughput change = 0.0110445
Class 0:
Packet latency average = 21.1262
	minimum = 7
	maximum = 82
Network latency average = 21.1256
	minimum = 7
	maximum = 82
Slowest packet = 32864
Flit latency average = 21.1256
	minimum = 7
	maximum = 82
Slowest flit = 32864
Fragmentation average = 0
	minimum = 0
	maximum = 0
Injected packet rate average = 0.098
	minimum = 0.083 (at node 2)
	maximum = 0.116 (at node 4)
Accepted packet rate average = 0.0975625
	minimum = 0.083 (at node 15)
	maximum = 0.113 (at node 11)
Injected flit rate average = 0.098
	minimum = 0.083 (at node 2)
	maximum = 0.116 (at node 4)
Accepted flit rate average= 0.0975625
	minimum = 0.083 (at node 15)
	maximum = 0.113 (at node 11)
Injected packet length average = 1
Accepted packet length average = 1
Total in-flight flits = 36 (0 measured)
latency change    = 0.0211515
throughput change = 0.0150545
Warmed up ...Time used is 3000 cycles
Class 0:
Packet latency average = 21.2189
	minimum = 7
	maximum = 84
Network latency average = 21.2183
	minimum = 7
	maximum = 84
Slowest packet = 34241
Flit latency average = 21.3448
	minimum = 7
	maximum = 84
Slowest flit = 34241
Fragmentation average = 0
	minimum = 0
	maximum = 0
Injected packet rate average = 0.1045
	minimum = 0.09 (at node 8)
	maximum = 0.118 (at node 12)
Accepted packet rate average = 0.105313
	minimum = 0.09 (at node 6)
	maximum = 0.132 (at node 8)
Injected flit rate average = 0.1045
	minimum = 0.09 (at node 8)
	maximum = 0.118 (at node 12)
Accepted flit rate average= 0.105313
	minimum = 0.09 (at node 6)
	maximum = 0.132 (at node 8)
Injected packet length average = 1
Accepted packet length average = 1
Total in-flight flits = 23 (23 measured)
latency change    = 0.00436966
throughput change = 0.0735905
Class 0:
Packet latency average = 21.2303
	minimum = 7
	maximum = 84
Network latency average = 21.2297
	minimum = 7
	maximum = 84
Slowest packet = 34241
Flit latency average = 21.2952
	minimum = 7
	maximum = 84
Slowest flit = 34241
Fragmentation average = 0
	minimum = 0
	maximum = 0
Injected packet rate average = 0.101219
	minimum = 0.094 (at node 7)
	maximum = 0.1115 (at node 13)
Accepted packet rate average = 0.101531
	minimum = 0.0905 (at node 6)
	maximum = 0.1185 (at node 5)
Injected flit rate average = 0.101219
	minimum = 0.094 (at node 7)
	maximum = 0.1115 (at node 13)
Accepted flit rate average= 0.101531
	minimum = 0.0905 (at node 6)
	maximum = 0.1185 (at node 5)
Injected packet length average = 1
Accepted packet length average = 1
Total in-flight flits = 26 (26 measured)
latency change    = 0.000536676
throughput change = 0.0372422
Class 0:
Packet latency average = 21.3861
	minimum = 7
	maximum = 84
Network latency average = 21.3856
	minimum = 7
	maximum = 84
Slowest packet = 34241
Flit latency average = 21.4287
	minimum = 7
	maximum = 84
Slowest flit = 34241
Fragmentation average = 0
	minimum = 0
	maximum = 0
Injected packet rate average = 0.100333
	minimum = 0.089 (at node 7)
	maximum = 0.106 (at node 11)
Accepted packet rate average = 0.100312
	minimum = 0.0926667 (at node 6)
	maximum = 0.110667 (at node 8)
Injected flit rate average = 0.100333
	minimum = 0.089 (at node 7)
	maximum = 0.106 (at node 11)
Accepted flit rate average= 0.100312
	minimum = 0.0926667 (at node 6)
	maximum = 0.110667 (at node 8)
Injected packet length average = 1
Accepted packet length average = 1
Total in-flight flits = 37 (37 measured)
latency change    = 0.00728277
throughput change = 0.0121495
Class 0:
Packet latency average = 21.4392
	minimum = 7
	maximum = 84
Network latency average = 21.4389
	minimum = 7
	maximum = 84
Slowest packet = 34241
Flit latency average = 21.4706
	minimum = 7
	maximum = 84
Slowest flit = 34241
Fragmentation average = 0
	minimum = 0
	maximum = 0
Injected packet rate average = 0.101031
	minimum = 0.093 (at node 7)
	maximum = 0.10825 (at node 8)
Accepted packet rate average = 0.101
	minimum = 0.092 (at node 6)
	maximum = 0.11175 (at node 8)
Injected flit rate average = 0.101031
	minimum = 0.093 (at node 7)
	maximum = 0.10825 (at node 8)
Accepted flit rate average= 0.101
	minimum = 0.092 (at node 6)
	maximum = 0.11175 (at node 8)
Injected packet length average = 1
Accepted packet length average = 1
Total in-flight flits = 38 (38 measured)
latency change    = 0.00247716
throughput change = 0.00680693
Draining all recorded packets ...
Draining remaining packets ...
Time taken is 7098 cycles
Class 0:
Packet latency average = 21.3786
	minimum = 7
	maximum = 80
Network latency average = 21.3774
	minimum = 7
	maximum = 80
Slowest packet = 41375
Flit latency average = 21.3774
	minimum = 7
	maximum = 80
Slowest flit = 41375
Fragmentation average = 0
	minimum = 0
	maximum = 0
Injected packet rate average = 0.10175
	minimum = 0.079 (at node 11)
	maximum = 0.134 (at node 4)
Accepted packet rate average = 0.099375
	minimum = 0.077 (at node 6)
	maximum = 0.122 (at node 10)
Injected flit rate average = 0.10175
	minimum = 0.079 (at node 11)
	maximum = 0.134 (at node 4)
Accepted flit rate average= 0.099375
	minimum = 0.077 (at node 6)
	maximum = 0.122 (at node 10)
Injected packet length average = 1
Accepted packet length average = 1
Total in-flight flits = 38 (0 measured)
latency change    = 1
throughput change = 1
Class 0:
Packet latency average = 21.4062
	minimum = 7
	maximum = 84
Network latency average = 21.4055
	minimum = 7
	maximum = 84
Slowest packet = 42630
Flit latency average = 21.4055
	minimum = 7
	maximum = 84
Slowest flit = 42630
Fragmentation average = 0
	minimum = 0
	maximum = 0
Injected packet rate average = 0.100406
	minimum = 0.0855 (at node 11)
	maximum = 0.123 (at node 4)
Accepted packet rate average = 0.09925
	minimum = 0.083 (at node 0)
	maximum = 0.113 (at node 4)
Injected flit rate average = 0.100406
	minimum = 0.0855 (at node 11)
	maximum = 0.123 (at node 4)
Accepted flit rate average= 0.09925
	minimum = 0.083 (at node 0)
	maximum = 0.113 (at node 4)
Injected packet length average = 1
Accepted packet length average = 1
Total in-flight flits = 37 (0 measured)
latency change    = 0.00128724
throughput change = 0.00125945
Class 0:
Packet latency average = 21.207
	minimum = 7
	maximum = 72
Network latency average = 21.2051
	minimum = 7
	maximum = 72
Slowest packet = 44816
Flit latency average = 21.2051
	minimum = 7
	maximum = 72
Slowest flit = 44816
Fragmentation average = 0
	minimum = 0
	maximum = 0
Injected packet rate average = 0.0980625
	minimum = 0.08 (at node 14)
	maximum = 0.114 (at node 10)
Accepted packet rate average = 0.0978125
	minimum = 0.074 (at node 9)
	maximum = 0.11 (at node 15)
Injected flit rate average = 0.0980625
	minimum = 0.08 (at node 14)
	maximum = 0.114 (at node 10)
Accepted flit rate average= 0.0978125
	minimum = 0.074 (at node 9)
	maximum = 0.11 (at node 15)
Injected packet length average = 1
Accepted packet length average = 1
Total in-flight flits = 41 (0 measured)
latency change    = 0.0093904
throughput change = 0.0146965
Warmed up ...Time used is 3000 cycles
Class 0:
Packet latency average = 21.9233
	minimum = 7
	maximum = 71
Network latency average = 21.9233
	minimum = 7
	maximum = 71
Slowest packet = 46235
Flit latency average = 22.0377
	minimum = 7
	maximum = 71
Slowest flit = 46235
Fragmentation average = 0
	minimum = 0
	maximum = 0
Injected packet rate average = 0.0990625
	minimum = 0.087 (at node 6)
	maximum = 0.114 (at node 15)
Accepted packet rate average = 0.0995625
	minimum = 0.083 (at node 8)
	maximum = 0.121 (at node 1)
Injected flit rate average = 0.0990625
	minimum = 0.087 (at node 6)
	maximum = 0.114 (at node 15)
Accepted flit rate average= 0.0995625
	minimum = 0.083 (at node 8)
	maximum = 0.121 (at node 1)
Injected packet length average = 1
Accepted packet length average = 1
Total in-flight flits = 33 (33 measured)
latency change    = 0.0326728
throughput change = 0.0175769
Class 0:
Packet latency average = 21.5905
	minimum = 7
	maximum = 85
Network latency average = 21.5902
	minimum = 7
	maximum = 85
Slowest packet = 47867
Flit latency average = 21.6514
	minimum = 7
	maximum = 85
Slowest flit = 47867
Fragmentation average = 0
	minimum = 0
	maximum = 0
Injected packet rate average = 0.09975
	minimum = 0.0925 (at node 9)
	maximum = 0.1075 (at node 15)
Accepted packet rate average = 0.099875
	minimum = 0.092 (at node 7)
	maximum = 0.107 (at node 1)
Injected flit rate average = 0.09975
	minimum = 0.0925 (at node 9)
	maximum = 0.1075 (at node 15)
Accepted flit rate average= 0.099875
	minimum = 0.092 (at node 7)
	maximum = 0.107 (at node 1)
Injected packet length average = 1
Accepted packet length average = 1
Total in-flight flits = 37 (37 measured)
latency change    = 0.0154157
throughput change = 0.00312891
Class 0:
Packet latency average = 21.4334
	minimum = 7
	maximum = 85
Network latency average = 21.433
	minimum = 7
	maximum = 85
Slowest packet = 47867
Flit latency average = 21.475
	minimum = 7
	maximum = 85
Slowest flit = 47867
Fragmentation average = 0
	minimum = 0
	maximum = 0
Injected packet rate average = 0.100125
	minimum = 0.095 (at node 2)
	maximum = 0.103667 (at node 12)
Accepted packet rate average = 0.100396
	minimum = 0.0956667 (at node 3)
	maximum = 0.106 (at node 1)
Injected flit rate average = 0.100125
	minimum = 0.095 (at node 2)
	maximum = 0.103667 (at node 12)
Accepted flit rate average= 0.100396
	minimum = 0.0956667 (at node 3)
	maximum = 0.106 (at node 1)
Injected packet length average = 1
Accepted packet length average = 1
Total in-flight flits = 28 (28 measured)
latency change    = 0.00732716
throughput change = 0.0051878
Draining all recorded packets ...
Draining remaining packets ...
Time taken is 6084 cycles
Class 0:
Packet latency average = 21.4128
	minimum = 7
	maximum = 80
Network latency average = 21.4128
	minimum = 7
	maximum = 80
Slowest packet = 50512
Flit latency average = 21.4128
	minimum = 7
	maximum = 80
Slowest flit = 50512
Fragmentation average = 0
	minimum = 0
	maximum = 0
Injected packet rate average = 0.0970625
	minimum = 0.085 (at node 4)
	maximum = 0.111 (at node 9)
Accepted packet rate average = 0.0949375
	minimum = 0.086 (at node 4)
	maximum = 0.117 (at node 9)
Injected flit rate average = 0.0970625
	minimum = 0.085 (at node 4)
	maximum = 0.111 (at node 9)
Accepted flit rate average= 0.0949375
	minimum = 0.086 (at node 4)
	maximum = 0.117 (at node 9)
Injected packet length average = 1
Accepted packet length average = 1
Total in-flight flits = 34 (0 measured)
latency change    = 1
throughput change = 1
Class 0:
Packet latency average = 21.4486
	minimum = 7
	maximum = 87
Network latency average = 21.4486
	minimum = 7
	maximum = 87
Slowest packet = 52113
Flit latency average = 21.4486
	minimum = 7
	maximum = 87
Slowest flit = 52113
Fragmentation average = 0
	minimum = 0
	maximum = 0
Injected packet rate average = 0.100344
	minimum = 0.0865 (at node 3)
	maximum = 0.1115 (at node 7)
Accepted packet rate average = 0.0993437
	minimum = 0.0895 (at node 4)
	maximum = 0.1095 (at node 1)
Injected flit rate average = 0.100344
	minimum = 0.0865 (at node 3)
	maximum = 0.1115 (at node 7)
Accepted flit rate average= 0.0993437
	minimum = 0.0895 (at node 4)
	maximum = 0.1095 (at node 1)
Injected packet length average = 1
Accepted packet length average = 1
Total in-flight flits = 32 (0 measured)
latency change    = 0.00166898
throughput change = 0.0443536
Class 0:
Packet latency average = 21.1108
	minimum = 7
	maximum = 68
Network latency average = 21.1102
	minimum = 7
	maximum = 68
Slowest packet = 54320
Flit latency average = 21.1102
	minimum = 7
	maximum = 68
Slowest flit = 54320
Fragmentation average = 0
	minimum = 0
	maximum = 0
Injected packet rate average = 0.102125
	minimum = 0.086 (at node 8)
	maximum = 0.124 (at node 11)
Accepted packet rate average = 0.101562
	minimum = 0.087 (at node 3)
	maximum = 0.113 (at node 6)
Injected flit rate average = 0.102125
	minimum = 0.086 (at node 8)
	maximum = 0.124 (at node 11)
Accepted flit rate average= 0.101562
	minimum = 0.087 (at node 3)
	maximum = 0.113 (at node 6)
Injected packet length average = 1
Accepted packet length average = 1
Total in-flight flits = 41 (0 measured)
latency change    = 0.0160013
throughput change = 0.0218462
Warmed up ...Time used is 3000 cycles
Class 0:
Packet latency average = 20.6436
	minimum = 7
	maximum = 91
Network latency average = 20.6436
	minimum = 7
	maximum = 91
Slowest packet = 56311
Flit latency average = 20.7103
	minimum = 7
	maximum = 91
Slowest flit = 56311
Fragmentation average = 0
	minimum = 0
	maximum = 0
Injected packet rate average = 0.102938
	minimum = 0.083 (at node 3)
	maximum = 0.125 (at node 0)
Accepted packet rate average = 0.103563
	minimum = 0.087 (at node 2)
	maximum = 0.126 (at node 3)
Injected flit rate average = 0.102938
	minimum = 0.083 (at node 3)
	maximum = 0.125 (at node 0)
Accepted flit rate average= 0.103563
	minimum = 0.087 (at node 2)
	maximum = 0.126 (at node 3)
Injected packet length average = 1
Accepted packet length average = 1
Total in-flight flits = 31 (31 measured)
latency change    = 0.022632
throughput change = 0.019312
Class 0:
Packet latency average = 21.025
	minimum = 7
	maximum = 91
Network latency average = 21.0241
	minimum = 7
	maximum = 91
Slowest packet = 56311
Flit latency average = 21.0528
	minimum = 7
	maximum = 91
Slowest flit = 56311
Fragmentation average = 0
	minimum = 0
	maximum = 0
Injected packet rate average = 0.103625
	minimum = 0.0935 (at node 14)
	maximum = 0.1165 (at node 8)
Accepted packet rate average = 0.103656
	minimum = 0.0945 (at node 2)
	maximum = 0.119 (at node 3)
Injected flit rate average = 0.103625
	minimum = 0.0935 (at node 14)
	maximum = 0.1165 (at node 8)
Accepted flit rate average= 0.103656
	minimum = 0.0945 (at node 2)
	maximum = 0.119 (at node 3)
Injected packet length average = 1
Accepted packet length average = 1
Total in-flight flits = 40 (40 measured)
latency change    = 0.0181434
throughput change = 0.000904432
Class 0:
Packet latency average = 21.2081
	minimum = 7
	maximum = 91
Network latency average = 21.2075
	minimum = 7
	maximum = 91
Slowest packet = 56311
Flit latency average = 21.2251
	minimum = 7
	maximum = 91
Slowest flit = 56311
Fragmentation average = 0
	minimum = 0
	maximum = 0
Injected packet rate average = 0.102979
	minimum = 0.0953333 (at node 6)
	maximum = 0.113333 (at node 8)
Accepted packet rate average = 0.103083
	minimum = 0.091 (at node 2)
	maximum = 0.117 (at node 0)
Injected flit rate average = 0.102979
	minimum = 0.0953333 (at node 6)
	maximum = 0.113333 (at node 8)
Accepted flit rate average= 0.103083
	minimum = 0.091 (at node 2)
	maximum = 0.117 (at node 0)
Injected packet length average = 1
Accepted packet length average = 1
Total in-flight flits = 36 (36 measured)
latency change    = 0.00863066
throughput change = 0.0055578
Draining all recorded packets ...
Draining remaining packets ...
Time taken is 6072 cycles
Class 0:
Packet latency average = 21.148
	minimum = 7
	maximum = 106
Network latency average = 21.1474
	minimum = 7
	maximum = 106
Slowest packet = 59877
Flit latency average = 21.1474
	minimum = 7
	maximum = 106
Slowest flit = 59877
Fragmentation average = 0
	minimum = 0
	maximum = 0
Injected packet rate average = 0.098875
	minimum = 0.086 (at node 10)
	maximum = 0.109 (at node 8)
Accepted packet rate average = 0.097125
	minimum = 0.075 (at node 12)
	maximum = 0.118 (at node 14)
Injected flit rate average = 0.098875
	minimum = 0.086 (at node 10)
	maximum = 0.109 (at node 8)
Accepted flit rate average= 0.097125
	minimum = 0.075 (at node 12)
	maximum = 0.118 (at node 14)
Injected packet length average = 1
Accepted packet length average = 1
Total in-flight flits = 28 (0 measured)
latency change    = 1
throughput change = 1
Class 0:
Packet latency average = 21.4166
	minimum = 7
	maximum = 106
Network latency average = 21.4163
	minimum = 7
	maximum = 106
Slowest packet = 59877
Flit latency average = 21.4163
	minimum = 7
	maximum = 106
Slowest flit = 59877
Fragmentation average = 0
	minimum = 0
	maximum = 0
Injected packet rate average = 0.0987813
	minimum = 0.0875 (at node 10)
	maximum = 0.109 (at node 13)
Accepted packet rate average = 0.0978125
	minimum = 0.0825 (at node 12)
	maximum = 0.113 (at node 5)
Injected flit rate average = 0.0987813
	minimum = 0.0875 (at node 10)
	maximum = 0.109 (at node 13)
Accepted flit rate average= 0.0978125
	minimum = 0.0825 (at node 12)
	maximum = 0.113 (at node 5)
Injected packet length average = 1
Accepted packet length average = 1
Total in-flight flits = 31 (0 measured)
latency change    = 0.0125421
throughput change = 0.00702875
Class 0:
Packet latency average = 21.9059
	minimum = 7
	maximum = 81
Network latency average = 21.9059
	minimum = 7
	maximum = 81
Slowest packet = 63929
Flit latency average = 21.9059
	minimum = 7
	maximum = 81
Slowest flit = 63929
Fragmentation average = 0
	minimum = 0
	maximum = 0
Injected packet rate average = 0.1005
	minimum = 0.081 (at node 5)
	maximum = 0.112 (at node 3)
Accepted packet rate average = 0.100312
	minimum = 0.081 (at node 4)
	maximum = 0.113 (at node 7)
Injected flit rate average = 0.1005
	minimum = 0.081 (at node 5)
	maximum = 0.112 (at node 3)
Accepted flit rate average= 0.100312
	minimum = 0.081 (at node 4)
	maximum = 0.113 (at node 7)
Injected packet length average = 1
Accepted packet length average = 1
Total in-flight flits = 34 (0 measured)
latency change    = 0.0223367
throughput change = 0.0249221
Warmed up ...Time used is 3000 cycles
Class 0:
Packet latency average = 21.3458
	minimum = 7
	maximum = 80
Network latency average = 21.3458
	minimum = 7
	maximum = 80
Slowest packet = 65515
Flit latency average = 21.4052
	minimum = 7
	maximum = 80
Slowest flit = 65515
Fragmentation average = 0
	minimum = 0
	maximum = 0
Injected packet rate average = 0.0996875
	minimum = 0.087 (at node 14)
	maximum = 0.114 (at node 2)
Accepted packet rate average = 0.0991875
	minimum = 0.083 (at node 14)
	maximum = 0.12 (at node 9)
Injected flit rate average = 0.0996875
	minimum = 0.087 (at node 14)
	maximum = 0.114 (at node 2)
Accepted flit rate average= 0.0991875
	minimum = 0.083 (at node 14)
	maximum = 0.12 (at node 9)
Injected packet length average = 1
Accepted packet length average = 1
Total in-flight flits = 42 (42 measured)
latency change    = 0.0262411
throughput change = 0.0113422
Class 0:
Packet latency average = 21.3207
	minimum = 7
	maximum = 80
Network latency average = 21.3207
	minimum = 7
	maximum = 80
Slowest packet = 65515
Flit latency average = 21.3499
	minimum = 7
	maximum = 80
Slowest flit = 65515
Fragmentation average = 0
	minimum = 0
	maximum = 0
Injected packet rate average = 0.101688
	minimum = 0.09 (at node 14)
	maximum = 0.1095 (at node 2)
Accepted packet rate average = 0.102
	minimum = 0.0925 (at node 11)
	maximum = 0.1115 (at node 4)
Injected flit rate average = 0.101688
	minimum = 0.09 (at node 14)
	maximum = 0.1095 (at node 2)
Accepted flit rate average= 0.102
	minimum = 0.0925 (at node 11)
	maximum = 0.1115 (at node 4)
Injected packet length average = 1
Accepted packet length average = 1
Total in-flight flits = 24 (24 measured)
latency change    = 0.00117441
throughput change = 0.0275735
Class 0:
Packet latency average = 21.1947
	minimum = 7
	maximum = 80
Network latency average = 21.1945
	minimum = 7
	maximum = 80
Slowest packet = 65515
Flit latency average = 21.215
	minimum = 7
	maximum = 80
Slowest flit = 65515
Fragmentation average = 0
	minimum = 0
	maximum = 0
Injected packet rate average = 0.100667
	minimum = 0.0913333 (at node 14)
	maximum = 0.109333 (at node 9)
Accepted packet rate average = 0.100667
	minimum = 0.0923333 (at node 3)
	maximum = 0.111333 (at node 6)
Injected flit rate average = 0.100667
	minimum = 0.0913333 (at node 14)
	maximum = 0.109333 (at node 9)
Accepted flit rate average= 0.100667
	minimum = 0.0923333 (at node 3)
	maximum = 0.111333 (at node 6)
Injected packet length average = 1
Accepted packet length average = 1
Total in-flight flits = 34 (34 measured)
latency change    = 0.0059486
throughput change = 0.013245
Draining all recorded packets ...
Draining remaining packets ...
Time taken is 6085 cycles
Class 0:
Packet latency average = 21.6336
	minimum = 7
	maximum = 84
Network latency average = 21.6336
	minimum = 7
	maximum = 84
Slowest packet = 70455
Flit latency average = 21.6336
	minimum = 7
	maximum = 84
Slowest flit = 70455
Fragmentation average = 0
	minimum = 0
	maximum = 0
Injected packet rate average = 0.102625
	minimum = 0.085 (at node 13)
	maximum = 0.118 (at node 12)
Accepted packet rate average = 0.100812
	minimum = 0.079 (at node 8)
	maximum = 0.127 (at node 12)
Injected flit rate average = 0.102625
	minimum = 0.085 (at node 13)
	maximum = 0.118 (at node 12)
Accepted flit rate average= 0.100812
	minimum = 0.079 (at node 8)
	maximum = 0.127 (at node 12)
Injected packet length average = 1
Accepted packet length average = 1
Total in-flight flits = 29 (0 measured)
latency change    = 1
throughput change = 1
Class 0:
Packet latency average = 21.3473
	minimum = 7
	maximum = 84
Network latency average = 21.3473
	minimum = 7
	maximum = 84
Slowest packet = 70455
Flit latency average = 21.3473
	minimum = 7
	maximum = 84
Slowest flit = 70455
Fragmentation average = 0
	minimum = 0
	maximum = 0
Injected packet rate average = 0.101187
	minimum = 0.09 (at node 13)
	maximum = 0.115 (at node 5)
Accepted packet rate average = 0.0999687
	minimum = 0.089 (at node 8)
	maximum = 0.11 (at node 12)
Injected flit rate average = 0.101187
	minimum = 0.09 (at node 13)
	maximum = 0.115 (at node 5)
Accepted flit rate average= 0.0999687
	minimum = 0.089 (at node 8)
	maximum = 0.11 (at node 12)
Injected packet length average = 1
Accepted packet length average = 1
Total in-flight flits = 39 (0 measured)
latency change    = 0.0134118
throughput change = 0.00844014
Class 0:
Packet latency average = 21.5076
	minimum = 7
	maximum = 74
Network latency average = 21.5076
	minimum = 7
	maximum = 74
Slowest packet = 73758
Flit latency average = 21.5076
	minimum = 7
	maximum = 74
Slowest flit = 73758
Fragmentation average = 0
	minimum = 0
	maximum = 0
Injected packet rate average = 0.106125
	minimum = 0.091 (at node 6)
	maximum = 0.115 (at node 2)
Accepted packet rate average = 0.106375
	minimum = 0.095 (at node 10)
	maximum = 0.122 (at node 14)
Injected flit rate average = 0.106125
	minimum = 0.091 (at node 6)
	maximum = 0.115 (at node 2)
Accepted flit rate average= 0.106375
	minimum = 0.095 (at node 10)
	maximum = 0.122 (at node 14)
Injected packet length average = 1
Accepted packet length average = 1
Total in-flight flits = 35 (0 measured)
latency change    = 0.00745512
throughput change = 0.0602233
Warmed up ...Time used is 3000 cycles
Class 0:
Packet latency average = 21.1324
	minimum = 7
	maximum = 73
Network latency average = 21.1324
	minimum = 7
	maximum = 73
Slowest packet = 75056
Flit latency average = 21.2011
	minimum = 7
	maximum = 73
Slowest flit = 75056
Fragmentation average = 0
	minimum = 0
	maximum = 0
Injected packet rate average = 0.100375
	minimum = 0.083 (at node 2)
	maximum = 0.123 (at node 11)
Accepted packet rate average = 0.100375
	minimum = 0.089 (at node 7)
	maximum = 0.119 (at node 10)
Injected flit rate average = 0.100375
	minimum = 0.083 (at node 2)
	maximum = 0.123 (at node 11)
Accepted flit rate average= 0.100375
	minimum = 0.089 (at node 7)
	maximum = 0.119 (at node 10)
Injected packet length average = 1
Accepted packet length average = 1
Total in-flight flits = 35 (35 measured)
latency change    = 0.0177565
throughput change = 0.0597758
Class 0:
Packet latency average = 21.3294
	minimum = 7
	maximum = 74
Network latency average = 21.3285
	minimum = 7
	maximum = 73
Slowest packet = 75056
Flit latency average = 21.361
	minimum = 7
	maximum = 73
Slowest flit = 75056
Fragmentation average = 0
	minimum = 0
	maximum = 0
Injected packet rate average = 0.0993125
	minimum = 0.0875 (at node 2)
	maximum = 0.112 (at node 9)
Accepted packet rate average = 0.099375
	minimum = 0.09 (at node 8)
	maximum = 0.1125 (at node 10)
Injected flit rate average = 0.0993125
	minimum = 0.0875 (at node 2)
	maximum = 0.112 (at node 9)
Accepted flit rate average= 0.099375
	minimum = 0.09 (at node 8)
	maximum = 0.1125 (at node 10)
Injected packet length average = 1
Accepted packet length average = 1
Total in-flight flits = 33 (33 measured)
latency change    = 0.00923664
throughput change = 0.0100629
Class 0:
Packet latency average = 21.3885
	minimum = 7
	maximum = 74
Network latency average = 21.3878
	minimum = 7
	maximum = 74
Slowest packet = 75056
Flit latency average = 21.409
	minimum = 7
	maximum = 74
Slowest flit = 78685
Fragmentation average = 0
	minimum = 0
	maximum = 0
Injected packet rate average = 0.1
	minimum = 0.093 (at node 14)
	maximum = 0.11 (at node 9)
Accepted packet rate average = 0.1
	minimum = 0.0866667 (at node 8)
	maximum = 0.108667 (at node 10)
Injected flit rate average = 0.1
	minimum = 0.093 (at node 14)
	maximum = 0.11 (at node 9)
Accepted flit rate average= 0.1
	minimum = 0.0866667 (at node 8)
	maximum = 0.108667 (at node 10)
Injected packet length average = 1
Accepted packet length average = 1
Total in-flight flits = 35 (35 measured)
latency change    = 0.00276064
throughput change = 0.00625
Class 0:
Packet latency average = 21.358
	minimum = 7
	maximum = 74
Network latency average = 21.3575
	minimum = 7
	maximum = 74
Slowest packet = 75056
Flit latency average = 21.3735
	minimum = 7
	maximum = 74
Slowest flit = 78685
Fragmentation average = 0
	minimum = 0
	maximum = 0
Injected packet rate average = 0.0999219
	minimum = 0.0925 (at node 14)
	maximum = 0.107 (at node 10)
Accepted packet rate average = 0.100016
	minimum = 0.089 (at node 8)
	maximum = 0.1105 (at node 10)
Injected flit rate average = 0.0999219
	minimum = 0.0925 (at node 14)
	maximum = 0.107 (at node 10)
Accepted flit rate average= 0.100016
	minimum = 0.089 (at node 8)
	maximum = 0.1105 (at node 10)
Injected packet length average = 1
Accepted packet length average = 1
Total in-flight flits = 29 (29 measured)
latency change    = 0.00142625
throughput change = 0.000156226
Draining all recorded packets ...
Draining remaining packets ...
Time taken is 7072 cycles
Class 0:
Packet latency average = 21.4252
	minimum = 7
	maximum = 71
Network latency average = 21.424
	minimum = 7
	maximum = 71
Slowest packet = 81539
Flit latency average = 21.424
	minimum = 7
	maximum = 71
Slowest flit = 81539
Fragmentation average = 0
	minimum = 0
	maximum = 0
Injected packet rate average = 0.104813
	minimum = 0.088 (at node 4)
	maximum = 0.119 (at node 0)
Accepted packet rate average = 0.10275
	minimum = 0.084 (at node 9)
	maximum = 0.123 (at node 6)
Injected flit rate average = 0.104813
	minimum = 0.088 (at node 4)
	maximum = 0.119 (at node 0)
Accepted flit rate average= 0.10275
	minimum = 0.084 (at node 9)
	maximum = 0.123 (at node 6)
Injected packet length average = 1
Accepted packet length average = 1
Total in-flight flits = 33 (0 measured)
latency change    = 1
throughput change = 1
Class 0:
Packet latency average = 21.4293
	minimum = 7
	maximum = 76
Network latency average = 21.428
	minimum = 7
	maximum = 76
Slowest packet = 82943
Flit latency average = 21.428
	minimum = 7
	maximum = 76
Slowest flit = 82943
Fragmentation average = 0
	minimum = 0
	maximum = 0
Injected packet rate average = 0.102281
	minimum = 0.094 (at node 6)
	maximum = 0.1145 (at node 3)
Accepted packet rate average = 0.101406
	minimum = 0.088 (at node 3)
	maximum = 0.112 (at node 6)
Injected flit rate average = 0.102281
	minimum = 0.094 (at node 6)
	maximum = 0.1145 (at node 3)
Accepted flit rate average= 0.101406
	minimum = 0.088 (at node 3)
	maximum = 0.112 (at node 6)
Injected packet length average = 1
Accepted packet length average = 1
Total in-flight flits = 28 (0 measured)
latency change    = 0.000191016
throughput change = 0.0132512
Class 0:
Packet latency average = 21.4569
	minimum = 7
	maximum = 70
Network latency average = 21.4517
	minimum = 7
	maximum = 70
Slowest packet = 85052
Flit latency average = 21.4517
	minimum = 7
	maximum = 70
Slowest flit = 85052
Fragmentation average = 0
	minimum = 0
	maximum = 0
Injected packet rate average = 0.0960625
	minimum = 0.076 (at node 0)
	maximum = 0.114 (at node 10)
Accepted packet rate average = 0.09575
	minimum = 0.084 (at node 7)
	maximum = 0.111 (at node 9)
Injected flit rate average = 0.0960625
	minimum = 0.076 (at node 0)
	maximum = 0.114 (at node 10)
Accepted flit rate average= 0.09575
	minimum = 0.084 (at node 7)
	maximum = 0.111 (at node 9)
Injected packet length average = 1
Accepted packet length average = 1
Total in-flight flits = 33 (0 measured)
latency change    = 0.00128831
throughput change = 0.0590731
Warmed up ...Time used is 3000 cycles
Class 0:
Packet latency average = 21.0553
	minimum = 7
	maximum = 74
Network latency average = 21.0553
	minimum = 7
	maximum = 74
Slowest packet = 86071
Flit latency average = 21.1209
	minimum = 7
	maximum = 74
Slowest flit = 86071
Fragmentation average = 0
	minimum = 0
	maximum = 0
Injected packet rate average = 0.098625
	minimum = 0.084 (at node 13)
	maximum = 0.112 (at node 9)
Accepted packet rate average = 0.09925
	minimum = 0.085 (at node 8)
	maximum = 0.116 (at node 14)
Injected flit rate average = 0.098625
	minimum = 0.084 (at node 13)
	maximum = 0.112 (at node 9)
Accepted flit rate average= 0.09925
	minimum = 0.085 (at node 8)
	maximum = 0.116 (at node 14)
Injected packet length average = 1
Accepted packet length average = 1
Total in-flight flits = 23 (23 measured)
latency change    = 0.0190742
throughput change = 0.0352645
Class 0:
Packet latency average = 21.4083
	minimum = 7
	maximum = 93
Network latency average = 21.4083
	minimum = 7
	maximum = 93
Slowest packet = 88019
Flit latency average = 21.4377
	minimum = 7
	maximum = 93
Slowest flit = 88019
Fragmentation average = 0
	minimum = 0
	maximum = 0
Injected packet rate average = 0.0986563
	minimum = 0.0905 (at node 0)
	maximum = 0.113 (at node 12)
Accepted packet rate average = 0.0985313
	minimum = 0.087 (at node 15)
	maximum = 0.114 (at node 13)
Injected flit rate average = 0.0986563
	minimum = 0.0905 (at node 0)
	maximum = 0.113 (at node 12)
Accepted flit rate average= 0.0985313
	minimum = 0.087 (at node 15)
	maximum = 0.114 (at node 13)
Injected packet length average = 1
Accepted packet length average = 1
Total in-flight flits = 37 (37 measured)
latency change    = 0.0164902
throughput change = 0.00729464
Class 0:
Packet latency average = 21.3637
	minimum = 7
	maximum = 93
Network latency average = 21.3633
	minimum = 7
	maximum = 93
Slowest packet = 88019
Flit latency average = 21.3832
	minimum = 7
	maximum = 93
Slowest flit = 88019
Fragmentation average = 0
	minimum = 0
	maximum = 0
Injected packet rate average = 0.0983333
	minimum = 0.0866667 (at node 0)
	maximum = 0.107667 (at node 14)
Accepted packet rate average = 0.0983542
	minimum = 0.0936667 (at node 11)
	maximum = 0.108333 (at node 13)
Injected flit rate average = 0.0983333
	minimum = 0.0866667 (at node 0)
	maximum = 0.107667 (at node 14)
Accepted flit rate average= 0.0983542
	minimum = 0.0936667 (at node 11)
	maximum = 0.108333 (at node 13)
Injected packet length average = 1
Accepted packet length average = 1
Total in-flight flits = 32 (32 measured)
latency change    = 0.00208947
throughput change = 0.00180047
Draining all recorded packets ...
Draining remaining packets ...
Time taken is 6073 cycles
Class 0:
Packet latency average = 21.2327
	minimum = 7
	maximum = 88
Network latency average = 21.232
	minimum = 7
	maximum = 88
Slowest packet = 91890
Flit latency average = 21.232
	minimum = 7
	maximum = 88
Slowest flit = 91890
Fragmentation average = 0
	minimum = 0
	maximum = 0
Injected packet rate average = 0.100562
	minimum = 0.082 (at node 12)
	maximum = 0.118 (at node 11)
Accepted packet rate average = 0.0983125
	minimum = 0.082 (at node 3)
	maximum = 0.113 (at node 9)
Injected flit rate average = 0.100562
	minimum = 0.082 (at node 12)
	maximum = 0.118 (at node 11)
Accepted flit rate average= 0.0983125
	minimum = 0.082 (at node 3)
	maximum = 0.113 (at node 9)
Injected packet length average = 1
Accepted packet length average = 1
Total in-flight flits = 36 (0 measured)
latency change    = 1
throughput change = 1
Class 0:
Packet latency average = 21.3155
	minimum = 7
	maximum = 88
Network latency average = 21.3151
	minimum = 7
	maximum = 88
Slowest packet = 91890
Flit latency average = 21.3151
	minimum = 7
	maximum = 88
Slowest flit = 91890
Fragmentation average = 0
	minimum = 0
	maximum = 0
Injected packet rate average = 0.09975
	minimum = 0.087 (at node 12)
	maximum = 0.1115 (at node 11)
Accepted packet rate average = 0.0984687
	minimum = 0.091 (at node 4)
	maximum = 0.1095 (at node 12)
Injected flit rate average = 0.09975
	minimum = 0.087 (at node 12)
	maximum = 0.1115 (at node 11)
Accepted flit rate average= 0.0984687
	minimum = 0.091 (at node 4)
	maximum = 0.1095 (at node 12)
Injected packet length average = 1
Accepted packet length average = 1
Total in-flight flits = 41 (0 measured)
latency change    = 0.00388352
throughput change = 0.0015868
Class 0:
Packet latency average = 21.3109
	minimum = 7
	maximum = 83
Network latency average = 21.3102
	minimum = 7
	maximum = 83
Slowest packet = 94272
Flit latency average = 21.3102
	minimum = 7
	maximum = 83
Slowest flit = 94272
Fragmentation average = 0
	minimum = 0
	maximum = 0
Injected packet rate average = 0.0978125
	minimum = 0.081 (at node 4)
	maximum = 0.112 (at node 5)
Accepted packet rate average = 0.0983125
	minimum = 0.086 (at node 5)
	maximum = 0.113 (at node 10)
Injected flit rate average = 0.0978125
	minimum = 0.081 (at node 4)
	maximum = 0.112 (at node 5)
Accepted flit rate average= 0.0983125
	minimum = 0.086 (at node 5)
	maximum = 0.113 (at node 10)
Injected packet length average = 1
Accepted packet length average = 1
Total in-flight flits = 33 (0 measured)
latency change    = 0.000215123
throughput change = 0.00158932
Warmed up ...Time used is 3000 cycles
Class 0:
Packet latency average = 21.3661
	minimum = 7
	maximum = 80
Network latency average = 21.3661
	minimum = 7
	maximum = 80
Slowest packet = 95293
Flit latency average = 21.4222
	minimum = 7
	maximum = 80
Slowest flit = 95293
Fragmentation average = 0
	minimum = 0
	maximum = 0
Injected packet rate average = 0.0976875
	minimum = 0.081 (at node 1)
	maximum = 0.117 (at node 6)
Accepted packet rate average = 0.098
	minimum = 0.066 (at node 14)
	maximum = 0.119 (at node 11)
Injected flit rate average = 0.0976875
	minimum = 0.081 (at node 1)
	maximum = 0.117 (at node 6)
Accepted flit rate average= 0.098
	minimum = 0.066 (at node 14)
	maximum = 0.119 (at node 11)
Injected packet length average = 1
Accepted packet length average = 1
Total in-flight flits = 28 (28 measured)
latency change    = 0.002586
throughput change = 0.00318878
Class 0:
Packet latency average = 21.6496
	minimum = 7
	maximum = 106
Network latency average = 21.649
	minimum = 7
	maximum = 106
Slowest packet = 97525
Flit latency average = 21.674
	minimum = 7
	maximum = 106
Slowest flit = 97525
Fragmentation average = 0
	minimum = 0
	maximum = 0
Injected packet rate average = 0.0981875
	minimum = 0.085 (at node 14)
	maximum = 0.118 (at node 6)
Accepted packet rate average = 0.0980625
	minimum = 0.0805 (at node 14)
	maximum = 0.117 (at node 11)
Injected flit rate average = 0.0981875
	minimum = 0.085 (at node 14)
	maximum = 0.118 (at node 6)
Accepted flit rate average= 0.0980625
	minimum = 0.0805 (at node 14)
	maximum = 0.117 (at node 11)
Injected packet length average = 1
Accepted packet length average = 1
Total in-flight flits = 37 (37 measured)
latency change    = 0.0130937
throughput change = 0.000637349
Class 0:
Packet latency average = 21.4609
	minimum = 7
	maximum = 106
Network latency average = 21.4605
	minimum = 7
	maximum = 106
Slowest packet = 97525
Flit latency average = 21.4784
	minimum = 7
	maximum = 106
Slowest flit = 97525
Fragmentation average = 0
	minimum = 0
	maximum = 0
Injected packet rate average = 0.0986875
	minimum = 0.0863333 (at node 5)
	maximum = 0.116667 (at node 6)
Accepted packet rate average = 0.0985833
	minimum = 0.091 (at node 14)
	maximum = 0.108333 (at node 11)
Injected flit rate average = 0.0986875
	minimum = 0.0863333 (at node 5)
	maximum = 0.116667 (at node 6)
Accepted flit rate average= 0.0985833
	minimum = 0.091 (at node 14)
	maximum = 0.108333 (at node 11)
Injected packet length average = 1
Accepted packet length average = 1
Total in-flight flits = 38 (38 measured)
latency change    = 0.0087903
throughput change = 0.00528318
Draining all recorded packets ...
Draining remaining packets ...
Time taken is 6083 cycles
Class 0:
Packet latency average = 20.8715
	minimum = 7
	maximum = 64
Network latency average = 20.8709
	minimum = 7
	maximum = 64
Slowest packet = 100984
Flit latency average = 20.8709
	minimum = 7
	maximum = 64
Slowest flit = 100984
Fragmentation average = 0
	minimum = 0
	maximum = 0
Injected packet rate average = 0.10325
	minimum = 0.095 (at node 0)
	maximum = 0.111 (at node 2)
Accepted packet rate average = 0.101187
	minimum = 0.089 (at node 8)
	maximum = 0.11 (at node 6)
Injected flit rate average = 0.10325
	minimum = 0.095 (at node 0)
	maximum = 0.111 (at node 2)
Accepted flit rate average= 0.101187
	minimum = 0.089 (at node 8)
	maximum = 0.11 (at node 6)
Injected packet length average = 1
Accepted packet length average = 1
Total in-flight flits = 33 (0 measured)
latency change    = 1
throughput change = 1
Class 0:
Packet latency average = 21.2217
	minimum = 7
	maximum = 77
Network latency average = 21.2214
	minimum = 7
	maximum = 77
Slowest packet = 102204
Flit latency average = 21.2214
	minimum = 7
	maximum = 77
Slowest flit = 102204
Fragmentation average = 0
	minimum = 0
	maximum = 0
Injected packet rate average = 0.102031
	minimum = 0.0895 (at node 5)
	maximum = 0.111 (at node 7)
Accepted packet rate average = 0.100781
	minimum = 0.091 (at node 8)
	maximum = 0.111 (at node 10)
Injected flit rate average = 0.102031
	minimum = 0.0895 (at node 5)
	maximum = 0.111 (at node 7)
Accepted flit rate average= 0.100781
	minimum = 0.091 (at node 8)
	maximum = 0.111 (at node 10)
Injected packet length average = 1
Accepted packet length average = 1
Total in-flight flits = 40 (0 measured)
latency change    = 0.016501
throughput change = 0.00403101
Class 0:
Packet latency average = 21.9247
	minimum = 7
	maximum = 67
Network latency average = 21.9247
	minimum = 7
	maximum = 67
Slowest packet = 103506
Flit latency average = 21.9247
	minimum = 7
	maximum = 67
Slowest flit = 103506
Fragmentation average = 0
	minimum = 0
	maximum = 0
Injected packet rate average = 0.0980625
	minimum = 0.073 (at node 8)
	maximum = 0.114 (at node 0)
Accepted packet rate average = 0.098
	minimum = 0.079 (at node 8)
	maximum = 0.129 (at node 10)
Injected flit rate average = 0.0980625
	minimum = 0.073 (at node 8)
	maximum = 0.114 (at node 0)
Accepted flit rate average= 0.098
	minimum = 0.079 (at node 8)
	maximum = 0.129 (at node 10)
Injected packet length average = 1
Accepted packet length average = 1
Total in-flight flits = 41 (0 measured)
latency change    = 0.032066
throughput change = 0.0283801
Warmed up ...Time used is 3000 cycles
Class 0:
Packet latency average = 21.2962
	minimum = 7
	maximum = 75
Network latency average = 21.2962
	minimum = 7
	maximum = 75
Slowest packet = 105625
Flit latency average = 21.3431
	minimum = 7
	maximum = 75
Slowest flit = 105625
Fragmentation average = 0
	minimum = 0
	maximum = 0
Injected packet rate average = 0.097625
	minimum = 0.079 (at node 10)
	maximum = 0.109 (at node 15)
Accepted packet rate average = 0.0985625
	minimum = 0.081 (at node 7)
	maximum = 0.118 (at node 14)
Injected flit rate average = 0.097625
	minimum = 0.079 (at node 10)
	maximum = 0.109 (at node 15)
Accepted flit rate average= 0.0985625
	minimum = 0.081 (at node 7)
	maximum = 0.118 (at node 14)
Injected packet length average = 1
Accepted packet length average = 1
Total in-flight flits = 26 (26 measured)
latency change    = 0.0295133
throughput change = 0.00570704
Class 0:
Packet latency average = 21.2533
	minimum = 7
	maximum = 82
Network latency average = 21.2533
	minimum = 7
	maximum = 82
Slowest packet = 107609
Flit latency average = 21.2769
	minimum = 7
	maximum = 82
Slowest flit = 107609
Fragmentation average = 0
	minimum = 0
	maximum = 0
Injected packet rate average = 0.0997187
	minimum = 0.088 (at node 10)
	maximum = 0.108 (at node 6)
Accepted packet rate average = 0.100219
	minimum = 0.09 (at node 10)
	maximum = 0.116 (at node 14)
Injected flit rate average = 0.0997187
	minimum = 0.088 (at node 10)
	maximum = 0.108 (at node 6)
Accepted flit rate average= 0.100219
	minimum = 0.09 (at node 10)
	maximum = 0.116 (at node 14)
Injected packet length average = 1
Accepted packet length average = 1
Total in-flight flits = 25 (25 measured)
latency change    = 0.00201886
throughput change = 0.0165263
Class 0:
Packet latency average = 21.3798
	minimum = 7
	maximum = 82
Network latency average = 21.3798
	minimum = 7
	maximum = 82
Slowest packet = 107609
Flit latency average = 21.3945
	minimum = 7
	maximum = 82
Slowest flit = 107609
Fragmentation average = 0
	minimum = 0
	maximum = 0
Injected packet rate average = 0.0999167
	minimum = 0.0913333 (at node 10)
	maximum = 0.108667 (at node 6)
Accepted packet rate average = 0.100292
	minimum = 0.0893333 (at node 15)
	maximum = 0.109 (at node 3)
Injected flit rate average = 0.0999167
	minimum = 0.0913333 (at node 10)
	maximum = 0.108667 (at node 6)
Accepted flit rate average= 0.100292
	minimum = 0.0893333 (at node 15)
	maximum = 0.109 (at node 3)
Injected packet length average = 1
Accepted packet length average = 1
Total in-flight flits = 23 (23 measured)
latency change    = 0.00591812
throughput change = 0.000727046
Draining all recorded packets ...
Draining remaining packets ...
Time taken is 6080 cycles
Class 0:
Packet latency average = 21.2083
	minimum = 7
	maximum = 72
Network latency average = 21.2083
	minimum = 7
	maximum = 72
Slowest packet = 111122
Flit latency average = 21.2083
	minimum = 7
	maximum = 72
Slowest flit = 111122
Fragmentation average = 0
	minimum = 0
	maximum = 0
Injected packet rate average = 0.0979375
	minimum = 0.084 (at node 10)
	maximum = 0.115 (at node 15)
Accepted packet rate average = 0.0954375
	minimum = 0.082 (at node 1)
	maximum = 0.117 (at node 0)
Injected flit rate average = 0.0979375
	minimum = 0.084 (at node 10)
	maximum = 0.115 (at node 15)
Accepted flit rate average= 0.0954375
	minimum = 0.082 (at node 1)
	maximum = 0.117 (at node 0)
Injected packet length average = 1
Accepted packet length average = 1
Total in-flight flits = 40 (0 measured)
latency change    = 1
throughput change = 1
Class 0:
Packet latency average = 21.0991
	minimum = 7
	maximum = 72
Network latency average = 21.0991
	minimum = 7
	maximum = 72
Slowest packet = 111122
Flit latency average = 21.0991
	minimum = 7
	maximum = 72
Slowest flit = 111122
Fragmentation average = 0
	minimum = 0
	maximum = 0
Injected packet rate average = 0.099375
	minimum = 0.0915 (at node 10)
	maximum = 0.111 (at node 7)
Accepted packet rate average = 0.0980625
	minimum = 0.0885 (at node 1)
	maximum = 0.107 (at node 8)
Injected flit rate average = 0.099375
	minimum = 0.0915 (at node 10)
	maximum = 0.111 (at node 7)
Accepted flit rate average= 0.0980625
	minimum = 0.0885 (at node 1)
	maximum = 0.107 (at node 8)
Injected packet length average = 1
Accepted packet length average = 1
Total in-flight flits = 42 (0 measured)
latency change    = 0.00517291
throughput change = 0.0267686
Class 0:
Packet latency average = 21.8932
	minimum = 7
	maximum = 77
Network latency average = 21.8907
	minimum = 7
	maximum = 77
Slowest packet = 114284
Flit latency average = 21.8907
	minimum = 7
	maximum = 77
Slowest flit = 114284
Fragmentation average = 0
	minimum = 0
	maximum = 0
Injected packet rate average = 0.10125
	minimum = 0.083 (at node 5)
	maximum = 0.115 (at node 15)
Accepted packet rate average = 0.10125
	minimum = 0.091 (at node 10)
	maximum = 0.11 (at node 0)
Injected flit rate average = 0.10125
	minimum = 0.083 (at node 5)
	maximum = 0.115 (at node 15)
Accepted flit rate average= 0.10125
	minimum = 0.091 (at node 10)
	maximum = 0.11 (at node 0)
Injected packet length average = 1
Accepted packet length average = 1
Total in-flight flits = 42 (0 measured)
latency change    = 0.0362716
throughput change = 0.0314815
Warmed up ...Time used is 3000 cycles
Class 0:
Packet latency average = 21.4974
	minimum = 7
	maximum = 67
Network latency average = 21.4974
	minimum = 7
	maximum = 67
Slowest packet = 115840
Flit latency average = 21.5979
	minimum = 7
	maximum = 67
Slowest flit = 115840
Fragmentation average = 0
	minimum = 0
	maximum = 0
Injected packet rate average = 0.099125
	minimum = 0.08 (at node 10)
	maximum = 0.116 (at node 9)
Accepted packet rate average = 0.10025
	minimum = 0.086 (at node 5)
	maximum = 0.112 (at node 2)
Injected flit rate average = 0.099125
	minimum = 0.08 (at node 10)
	maximum = 0.116 (at node 9)
Accepted flit rate average= 0.10025
	minimum = 0.086 (at node 5)
	maximum = 0.112 (at node 2)
Injected packet length average = 1
Accepted packet length average = 1
Total in-flight flits = 24 (24 measured)
latency change    = 0.0184101
throughput change = 0.00997506
Class 0:
Packet latency average = 21.5614
	minimum = 7
	maximum = 74
Network latency average = 21.5607
	minimum = 7
	maximum = 74
Slowest packet = 117616
Flit latency average = 21.6099
	minimum = 7
	maximum = 74
Slowest flit = 117616
Fragmentation average = 0
	minimum = 0
	maximum = 0
Injected packet rate average = 0.100219
	minimum = 0.0885 (at node 10)
	maximum = 0.1105 (at node 4)
Accepted packet rate average = 0.100625
	minimum = 0.089 (at node 5)
	maximum = 0.11 (at node 13)
Injected flit rate average = 0.100219
	minimum = 0.0885 (at node 10)
	maximum = 0.1105 (at node 4)
Accepted flit rate average= 0.100625
	minimum = 0.089 (at node 5)
	maximum = 0.11 (at node 13)
Injected packet length average = 1
Accepted packet length average = 1
Total in-flight flits = 29 (29 measured)
latency change    = 0.00296457
throughput change = 0.00372671
Class 0:
Packet latency average = 21.4747
	minimum = 7
	maximum = 82
Network latency average = 21.4743
	minimum = 7
	maximum = 82
Slowest packet = 118275
Flit latency average = 21.5076
	minimum = 7
	maximum = 82
Slowest flit = 118275
Fragmentation average = 0
	minimum = 0
	maximum = 0
Injected packet rate average = 0.101125
	minimum = 0.0913333 (at node 6)
	maximum = 0.109 (at node 4)
Accepted packet rate average = 0.101292
	minimum = 0.0926667 (at node 7)
	maximum = 0.111667 (at node 3)
Injected flit rate average = 0.101125
	minimum = 0.0913333 (at node 6)
	maximum = 0.109 (at node 4)
Accepted flit rate average= 0.101292
	minimum = 0.0926667 (at node 7)
	maximum = 0.111667 (at node 3)
Injected packet length average = 1
Accepted packet length average = 1
Total in-flight flits = 34 (34 measured)
latency change    = 0.00403594
throughput change = 0.00658165
Draining all recorded packets ...
Draining remaining packets ...
Time taken is 6080 cycles
Class 0:
Packet latency average = 21.3717
	minimum = 7
	maximum = 68
Network latency average = 21.3697
	minimum = 7
	maximum = 68
Slowest packet = 120387
Flit latency average = 21.3697
	minimum = 7
	maximum = 68
Slowest flit = 120387
Fragmentation average = 0
	minimum = 0
	maximum = 0
Injected packet rate average = 0.0988125
	minimum = 0.088 (at node 9)
	maximum = 0.114 (at node 0)
Accepted packet rate average = 0.0966875
	minimum = 0.083 (at node 1)
	maximum = 0.109 (at node 10)
Injected flit rate average = 0.0988125
	minimum = 0.088 (at node 9)
	maximum = 0.114 (at node 0)
Accepted flit rate average= 0.0966875
	minimum = 0.083 (at node 1)
	maximum = 0.109 (at node 10)
Injected packet length average = 1
Accepted packet length average = 1
Total in-flight flits = 34 (0 measured)
latency change    = 1
throughput change = 1
Class 0:
Packet latency average = 21.3644
	minimum = 7
	maximum = 72
Network latency average = 21.3631
	minimum = 7
	maximum = 72
Slowest packet = 122128
Flit latency average = 21.3631
	minimum = 7
	maximum = 72
Slowest flit = 122128
Fragmentation average = 0
	minimum = 0
	maximum = 0
Injected packet rate average = 0.0977187
	minimum = 0.0895 (at node 3)
	maximum = 0.1135 (at node 0)
Accepted packet rate average = 0.0965625
	minimum = 0.0855 (at node 12)
	maximum = 0.1045 (at node 5)
Injected flit rate average = 0.0977187
	minimum = 0.0895 (at node 3)
	maximum = 0.1135 (at node 0)
Accepted flit rate average= 0.0965625
	minimum = 0.0855 (at node 12)
	maximum = 0.1045 (at node 5)
Injected packet length average = 1
Accepted packet length average = 1
Total in-flight flits = 37 (0 measured)
latency change    = 0.000341027
throughput change = 0.0012945
Class 0:
Packet latency average = 21.2126
	minimum = 7
	maximum = 81
Network latency average = 21.2114
	minimum = 7
	maximum = 81
Slowest packet = 123159
Flit latency average = 21.2114
	minimum = 7
	maximum = 81
Slowest flit = 123159
Fragmentation average = 0
	minimum = 0
	maximum = 0
Injected packet rate average = 0.102813
	minimum = 0.074 (at node 3)
	maximum = 0.125 (at node 1)
Accepted packet rate average = 0.102
	minimum = 0.087 (at node 1)
	maximum = 0.124 (at node 15)
Injected flit rate average = 0.102813
	minimum = 0.074 (at node 3)
	maximum = 0.125 (at node 1)
Accepted flit rate average= 0.102
	minimum = 0.087 (at node 1)
	maximum = 0.124 (at node 15)
Injected packet length average = 1
Accepted packet length average = 1
Total in-flight flits = 50 (0 measured)
latency change    = 0.00715511
throughput change = 0.0533088
Warmed up ...Time used is 3000 cycles
Class 0:
Packet latency average = 21.0358
	minimum = 7
	maximum = 67
Network latency average = 21.0358
	minimum = 7
	maximum = 67
Slowest packet = 124489
Flit latency average = 21.2274
	minimum = 7
	maximum = 67
Slowest flit = 124489
Fragmentation average = 0
	minimum = 0
	maximum = 0
Injected packet rate average = 0.103563
	minimum = 0.086 (at node 4)
	maximum = 0.122 (at node 5)
Accepted packet rate average = 0.104438
	minimum = 0.092 (at node 5)
	maximum = 0.119 (at node 4)
Injected flit rate average = 0.103563
	minimum = 0.086 (at node 4)
	maximum = 0.122 (at node 5)
Accepted flit rate average= 0.104438
	minimum = 0.092 (at node 5)
	maximum = 0.119 (at node 4)
Injected packet length average = 1
Accepted packet length average = 1
Total in-flight flits = 36 (36 measured)
latency change    = 0.00840673
throughput change = 0.0233393
Class 0:
Packet latency average = 21.1036
	minimum = 7
	maximum = 67
Network latency average = 21.1026
	minimum = 7
	maximum = 67
Slowest packet = 124489
Flit latency average = 21.2008
	minimum = 7
	maximum = 67
Slowest flit = 124489
Fragmentation average = 0
	minimum = 0
	maximum = 0
Injected packet rate average = 0.100781
	minimum = 0.0865 (at node 4)
	maximum = 0.1115 (at node 13)
Accepted packet rate average = 0.100844
	minimum = 0.0815 (at node 5)
	maximum = 0.1115 (at node 7)
Injected flit rate average = 0.100781
	minimum = 0.0865 (at node 4)
	maximum = 0.1115 (at node 13)
Accepted flit rate average= 0.100844
	minimum = 0.0815 (at node 5)
	maximum = 0.1115 (at node 7)
Injected packet length average = 1
Accepted packet length average = 1
Total in-flight flits = 48 (48 measured)
latency change    = 0.00321161
throughput change = 0.0356368
Class 0:
Packet latency average = 21.2586
	minimum = 7
	maximum = 85
Network latency average = 21.258
	minimum = 7
	maximum = 85
Slowest packet = 128126
Flit latency average = 21.3211
	minimum = 7
	maximum = 85
Slowest flit = 128126
Fragmentation average = 0
	minimum = 0
	maximum = 0
Injected packet rate average = 0.101708
	minimum = 0.092 (at node 6)
	maximum = 0.109 (at node 13)
Accepted packet rate average = 0.101979
	minimum = 0.0883333 (at node 5)
	maximum = 0.11 (at node 1)
Injected flit rate average = 0.101708
	minimum = 0.092 (at node 6)
	maximum = 0.109 (at node 13)
Accepted flit rate average= 0.101979
	minimum = 0.0883333 (at node 5)
	maximum = 0.11 (at node 1)
Injected packet length average = 1
Accepted packet length average = 1
Total in-flight flits = 37 (37 measured)
latency change    = 0.007294
throughput change = 0.0111338
Draining all recorded packets ...
Draining remaining packets ...
Time taken is 6072 cycles
Class 0:
Packet latency average = 20.869
	minimum = 7
	maximum = 95
Network latency average = 20.8684
	minimum = 7
	maximum = 95
Slowest packet = 129856
Flit latency average = 20.8684
	minimum = 7
	maximum = 95
Slowest flit = 129856
Fragmentation average = 0
	minimum = 0
	maximum = 0
Injected packet rate average = 0.1
	minimum = 0.086 (at node 11)
	maximum = 0.113 (at node 1)
Accepted packet rate average = 0.0978125
	minimum = 0.08 (at node 3)
	maximum = 0.117 (at node 1)
Injected flit rate average = 0.1
	minimum = 0.086 (at node 11)
	maximum = 0.113 (at node 1)
Accepted flit rate average= 0.0978125
	minimum = 0.08 (at node 3)
	maximum = 0.117 (at node 1)
Injected packet length average = 1
Accepted packet length average = 1
Total in-flight flits = 35 (0 measured)
latency change    = 1
throughput change = 1
Class 0:
Packet latency average = 20.9987
	minimum = 7
	maximum = 110
Network latency average = 20.9984
	minimum = 7
	maximum = 110
Slowest packet = 131457
Flit latency average = 20.9984
	minimum = 7
	maximum = 110
Slowest flit = 131457
Fragmentation average = 0
	minimum = 0
	maximum = 0
Injected packet rate average = 0.099
	minimum = 0.0885 (at node 6)
	maximum = 0.109 (at node 13)
Accepted packet rate average = 0.0977813
	minimum = 0.082 (at node 3)
	maximum = 0.112 (at node 1)
Injected flit rate average = 0.099
	minimum = 0.0885 (at node 6)
	maximum = 0.109 (at node 13)
Accepted flit rate average= 0.0977813
	minimum = 0.082 (at node 3)
	maximum = 0.112 (at node 1)
Injected packet length average = 1
Accepted packet length average = 1
Total in-flight flits = 39 (0 measured)
latency change    = 0.00617714
throughput change = 0.000319591
Class 0:
Packet latency average = 22.2969
	minimum = 7
	maximum = 101
Network latency average = 22.2963
	minimum = 7
	maximum = 101
Slowest packet = 133396
Flit latency average = 22.2963
	minimum = 7
	maximum = 101
Slowest flit = 133396
Fragmentation average = 0
	minimum = 0
	maximum = 0
Injected packet rate average = 0.100437
	minimum = 0.089 (at node 13)
	maximum = 0.114 (at node 11)
Accepted packet rate average = 0.100625
	minimum = 0.086 (at node 15)
	maximum = 0.114 (at node 2)
Injected flit rate average = 0.100437
	minimum = 0.089 (at node 13)
	maximum = 0.114 (at node 11)
Accepted flit rate average= 0.100625
	minimum = 0.086 (at node 15)
	maximum = 0.114 (at node 2)
Injected packet length average = 1
Accepted packet length average = 1
Total in-flight flits = 36 (0 measured)
latency change    = 0.0582221
throughput change = 0.0282609
Warmed up ...Time used is 3000 cycles
Class 0:
Packet latency average = 21.7293
	minimum = 7
	maximum = 69
Network latency average = 21.7293
	minimum = 7
	maximum = 69
Slowest packet = 134242
Flit latency average = 21.8447
	minimum = 7
	maximum = 74
Slowest flit = 133911
Fragmentation average = 0
	minimum = 0
	maximum = 0
Injected packet rate average = 0.105875
	minimum = 0.091 (at node 14)
	maximum = 0.12 (at node 1)
Accepted packet rate average = 0.105438
	minimum = 0.092 (at node 11)
	maximum = 0.124 (at node 13)
Injected flit rate average = 0.105875
	minimum = 0.091 (at node 14)
	maximum = 0.12 (at node 1)
Accepted flit rate average= 0.105438
	minimum = 0.092 (at node 11)
	maximum = 0.124 (at node 13)
Injected packet length average = 1
Accepted packet length average = 1
Total in-flight flits = 43 (43 measured)
latency change    = 0.0261233
throughput change = 0.0456432
Class 0:
Packet latency average = 21.6513
	minimum = 7
	maximum = 76
Network latency average = 21.6513
	minimum = 7
	maximum = 76
Slowest packet = 136311
Flit latency average = 21.7109
	minimum = 7
	maximum = 76
Slowest flit = 136311
Fragmentation average = 0
	minimum = 0
	maximum = 0
Injected packet rate average = 0.103594
	minimum = 0.0895 (at node 8)
	maximum = 0.118 (at node 6)
Accepted packet rate average = 0.103656
	minimum = 0.0885 (at node 12)
	maximum = 0.1175 (at node 13)
Injected flit rate average = 0.103594
	minimum = 0.0895 (at node 8)
	maximum = 0.118 (at node 6)
Accepted flit rate average= 0.103656
	minimum = 0.0885 (at node 12)
	maximum = 0.1175 (at node 13)
Injected packet length average = 1
Accepted packet length average = 1
Total in-flight flits = 34 (34 measured)
latency change    = 0.00359928
throughput change = 0.0171842
Class 0:
Packet latency average = 21.5773
	minimum = 7
	maximum = 76
Network latency average = 21.5767
	minimum = 7
	maximum = 76
Slowest packet = 136311
Flit latency average = 21.6175
	minimum = 7
	maximum = 76
Slowest flit = 136311
Fragmentation average = 0
	minimum = 0
	maximum = 0
Injected packet rate average = 0.101958
	minimum = 0.089 (at node 8)
	maximum = 0.117667 (at node 6)
Accepted packet rate average = 0.102125
	minimum = 0.0906667 (at node 12)
	maximum = 0.118 (at node 13)
Injected flit rate average = 0.101958
	minimum = 0.089 (at node 8)
	maximum = 0.117667 (at node 6)
Accepted flit rate average= 0.102125
	minimum = 0.0906667 (at node 12)
	maximum = 0.118 (at node 13)
Injected packet length average = 1
Accepted packet length average = 1
Total in-flight flits = 28 (28 measured)
latency change    = 0.00343208
throughput change = 0.0149939
Draining all recorded packets ...
Draining remaining packets ...
Time taken is 6065 cycles
Class 0:
Packet latency average = 21.1626
	minimum = 7
	maximum = 76
Network latency average = 21.1607
	minimum = 7
	maximum = 76
Slowest packet = 140018
Flit latency average = 21.1607
	minimum = 7
	maximum = 76
Slowest flit = 140018
Fragmentation average = 0
	minimum = 0
	maximum = 0
Injected packet rate average = 0.10075
	minimum = 0.088 (at node 7)
	maximum = 0.116 (at node 4)
Accepted packet rate average = 0.0988125
	minimum = 0.076 (at node 11)
	maximum = 0.109 (at node 9)
Injected flit rate average = 0.10075
	minimum = 0.088 (at node 7)
	maximum = 0.116 (at node 4)
Accepted flit rate average= 0.0988125
	minimum = 0.076 (at node 11)
	maximum = 0.109 (at node 9)
Injected packet length average = 1
Accepted packet length average = 1
Total in-flight flits = 31 (0 measured)
latency change    = 1
throughput change = 1
Class 0:
Packet latency average = 21.4316
	minimum = 7
	maximum = 76
Network latency average = 21.4301
	minimum = 7
	maximum = 76
Slowest packet = 140018
Flit latency average = 21.4301
	minimum = 7
	maximum = 76
Slowest flit = 140018
Fragmentation average = 0
	minimum = 0
	maximum = 0
Injected packet rate average = 0.10025
	minimum = 0.0895 (at node 7)
	maximum = 0.108 (at node 14)
Accepted packet rate average = 0.0991875
	minimum = 0.082 (at node 5)
	maximum = 0.11 (at node 3)
Injected flit rate average = 0.10025
	minimum = 0.0895 (at node 7)
	maximum = 0.108 (at node 14)
Accepted flit rate average= 0.0991875
	minimum = 0.082 (at node 5)
	maximum = 0.11 (at node 3)
Injected packet length average = 1
Accepted packet length average = 1
Total in-flight flits = 34 (0 measured)
latency change    = 0.0125551
throughput change = 0.00378072
Class 0:
Packet latency average = 21.0398
	minimum = 7
	maximum = 68
Network latency average = 21.0391
	minimum = 7
	maximum = 68
Slowest packet = 142474
Flit latency average = 21.0391
	minimum = 7
	maximum = 68
Slowest flit = 142474
Fragmentation average = 0
	minimum = 0
	maximum = 0
Injected packet rate average = 0.100062
	minimum = 0.08 (at node 14)
	maximum = 0.12 (at node 3)
Accepted packet rate average = 0.100625
	minimum = 0.073 (at node 8)
	maximum = 0.119 (at node 9)
Injected flit rate average = 0.100062
	minimum = 0.08 (at node 14)
	maximum = 0.12 (at node 3)
Accepted flit rate average= 0.100625
	minimum = 0.073 (at node 8)
	maximum = 0.119 (at node 9)
Injected packet length average = 1
Accepted packet length average = 1
Total in-flight flits = 25 (0 measured)
latency change    = 0.0186257
throughput change = 0.0142857
Warmed up ...Time used is 3000 cycles
Class 0:
Packet latency average = 21.6598
	minimum = 7
	maximum = 71
Network latency average = 21.6598
	minimum = 7
	maximum = 71
Slowest packet = 144115
Flit latency average = 21.6854
	minimum = 7
	maximum = 71
Slowest flit = 144115
Fragmentation average = 0
	minimum = 0
	maximum = 0
Injected packet rate average = 0.099875
	minimum = 0.088 (at node 0)
	maximum = 0.114 (at node 1)
Accepted packet rate average = 0.099125
	minimum = 0.082 (at node 6)
	maximum = 0.112 (at node 8)
Injected flit rate average = 0.099875
	minimum = 0.088 (at node 0)
	maximum = 0.114 (at node 1)
Accepted flit rate average= 0.099125
	minimum = 0.082 (at node 6)
	maximum = 0.112 (at node 8)
Injected packet length average = 1
Accepted packet length average = 1
Total in-flight flits = 37 (37 measured)
latency change    = 0.0286282
throughput change = 0.0151324
Class 0:
Packet latency average = 21.6686
	minimum = 7
	maximum = 71
Network latency average = 21.6682
	minimum = 7
	maximum = 71
Slowest packet = 144115
Flit latency average = 21.6809
	minimum = 7
	maximum = 71
Slowest flit = 144115
Fragmentation average = 0
	minimum = 0
	maximum = 0
Injected packet rate average = 0.0998125
	minimum = 0.0855 (at node 11)
	maximum = 0.112 (at node 1)
Accepted packet rate average = 0.0995
	minimum = 0.087 (at node 9)
	maximum = 0.109 (at node 12)
Injected flit rate average = 0.0998125
	minimum = 0.0855 (at node 11)
	maximum = 0.112 (at node 1)
Accepted flit rate average= 0.0995
	minimum = 0.087 (at node 9)
	maximum = 0.109 (at node 12)
Injected packet length average = 1
Accepted packet length average = 1
Total in-flight flits = 35 (35 measured)
latency change    = 0.000403006
throughput change = 0.00376884
Class 0:
Packet latency average = 21.4718
	minimum = 7
	maximum = 71
Network latency average = 21.4716
	minimum = 7
	maximum = 71
Slowest packet = 144115
Flit latency average = 21.481
	minimum = 7
	maximum = 71
Slowest flit = 144115
Fragmentation average = 0
	minimum = 0
	maximum = 0
Injected packet rate average = 0.100021
	minimum = 0.089 (at node 11)
	maximum = 0.107333 (at node 1)
Accepted packet rate average = 0.099875
	minimum = 0.09 (at node 9)
	maximum = 0.107 (at node 12)
Injected flit rate average = 0.100021
	minimum = 0.089 (at node 11)
[...]
	minimum = 0.085 (at node 2)
	maximum = 0.108 (at node 1)
Accepted packet rate average = 0.0975
	minimum = 0.077 (at node 10)
	maximum = 0.116 (at node 14)
Injected flit rate average = 0.0978125
	minimum = 0.085 (at node 2)
	maximum = 0.108 (at node 1)
Accepted flit rate average= 0.0975
	minimum = 0.077 (at node 10)
	maximum = 0.116 (at node 14)
Injected packet length average = 1
Accepted packet length average = 1
Total in-flight flits = 38 (38 measured)
latency change    = 0.0154173
throughput change = 0.00833333
Class 0:
Packet latency average = 21.4349
	minimum = 7
	maximum = 107
Network latency average = 21.4336
	minimum = 7
	maximum = 107
Slowest packet = 952185
Flit latency average = 21.4879
	minimum = 7
	maximum = 107
Slowest flit = 952185
Fragmentation average = 0
	minimum = 0
	maximum = 0
Injected packet rate average = 0.0983437
	minimum = 0.0845 (at node 2)
	maximum = 0.1095 (at node 1)
Accepted packet rate average = 0.09825
	minimum = 0.081 (at node 10)
	maximum = 0.116 (at node 1)
Injected flit rate average = 0.0983437
	minimum = 0.0845 (at node 2)
	maximum = 0.1095 (at node 1)
Accepted flit rate average= 0.09825
	minimum = 0.081 (at node 10)
	maximum = 0.116 (at node 1)
Injected packet length average = 1
Accepted packet length average = 1
Total in-flight flits = 36 (36 measured)
latency change    = 0.0068163
throughput change = 0.00763359
Class 0:
Packet latency average = 21.5049
	minimum = 7
	maximum = 107
Network latency average = 21.503
	minimum = 7
	maximum = 107
Slowest packet = 952185
Flit latency average = 21.5383
	minimum = 7
	maximum = 107
Slowest flit = 952185
Fragmentation average = 0
	minimum = 0
	maximum = 0
Injected packet rate average = 0.0994375
	minimum = 0.091 (at node 10)
	maximum = 0.107 (at node 13)
Accepted packet rate average = 0.0993958
	minimum = 0.09 (at node 10)
	maximum = 0.117333 (at node 1)
Injected flit rate average = 0.0994375
	minimum = 0.091 (at node 10)
	maximum = 0.107 (at node 13)
Accepted flit rate average= 0.0993958
	minimum = 0.09 (at node 10)
	maximum = 0.117333 (at node 1)
Injected packet length average = 1
Accepted packet length average = 1
Total in-flight flits = 35 (35 measured)
latency change    = 0.00325257
throughput change = 0.011528
Draining all recorded packets ...
Draining remaining packets ...
Time taken is 6111 cycles
Class 0:
Packet latency average = 21.5396
	minimum = 7
	maximum = 93
Network latency average = 21.5384
	minimum = 7
	maximum = 93
Slowest packet = 954631
Flit latency average = 21.5384
	minimum = 7
	maximum = 93
Slowest flit = 954631
Fragmentation average = 0
	minimum = 0
	maximum = 0
Injected packet rate average = 0.100187
	minimum = 0.078 (at node 13)
	maximum = 0.116 (at node 6)
Accepted packet rate average = 0.09775
	minimum = 0.086 (at node 5)
	maximum = 0.112 (at node 7)
Injected flit rate average = 0.100187
	minimum = 0.078 (at node 13)
	maximum = 0.116 (at node 6)
Accepted flit rate average= 0.09775
	minimum = 0.086 (at node 5)
	maximum = 0.112 (at node 7)
Injected packet length average = 1
Accepted packet length average = 1
Total in-flight flits = 39 (0 measured)
latency change    = 1
throughput change = 1
Class 0:
Packet latency average = 21.5288
	minimum = 7
	maximum = 93
Network latency average = 21.5282
	minimum = 7
	maximum = 93
Slowest packet = 954631
Flit latency average = 21.5282
	minimum = 7
	maximum = 93
Slowest flit = 954631
Fragmentation average = 0
	minimum = 0
	maximum = 0
Injected packet rate average = 0.101281
	minimum = 0.086 (at node 13)
	maximum = 0.1125 (at node 3)
Accepted packet rate average = 0.100406
	minimum = 0.0925 (at node 15)
	maximum = 0.1075 (at node 14)
Injected flit rate average = 0.101281
	minimum = 0.086 (at node 13)
	maximum = 0.1125 (at node 3)
Accepted flit rate average= 0.100406
	minimum = 0.0925 (at node 15)
	maximum = 0.1075 (at node 14)
Injected packet length average = 1
Accepted packet length average = 1
Total in-flight flits = 28 (0 measured)
latency change    = 0.000504099
throughput change = 0.026455
Class 0:
Packet latency average = 21.3498
	minimum = 7
	maximum = 67
Network latency average = 21.3473
	minimum = 7
	maximum = 67
Slowest packet = 958114
Flit latency average = 21.3473
	minimum = 7
	maximum = 67
Slowest flit = 958114
Fragmentation average = 0
	minimum = 0
	maximum = 0
Injected packet rate average = 0.101875
	minimum = 0.089 (at node 10)
	maximum = 0.122 (at node 8)
Accepted packet rate average = 0.101312
	minimum = 0.082 (at node 7)
	maximum = 0.12 (at node 2)
Injected flit rate average = 0.101875
	minimum = 0.089 (at node 10)
	maximum = 0.122 (at node 8)
Accepted flit rate average= 0.101312
	minimum = 0.082 (at node 7)
	maximum = 0.12 (at node 2)
Injected packet length average = 1
Accepted packet length average = 1
Total in-flight flits = 37 (0 measured)
latency change    = 0.0083844
throughput change = 0.0089451
Warmed up ...Time used is 3000 cycles
Class 0:
Packet latency average = 20.9812
	minimum = 7
	maximum = 69
Network latency average = 20.9812
	minimum = 7
	maximum = 69
Slowest packet = 960199
Flit latency average = 21.0437
	minimum = 7
	maximum = 69
Slowest flit = 960199
Fragmentation average = 0
	minimum = 0
	maximum = 0
Injected packet rate average = 0.09875
	minimum = 0.079 (at node 8)
	maximum = 0.118 (at node 1)
Accepted packet rate average = 0.09875
	minimum = 0.075 (at node 6)
	maximum = 0.116 (at node 0)
Injected flit rate average = 0.09875
	minimum = 0.079 (at node 8)
	maximum = 0.118 (at node 1)
Accepted flit rate average= 0.09875
	minimum = 0.075 (at node 6)
	maximum = 0.116 (at node 0)
Injected packet length average = 1
Accepted packet length average = 1
Total in-flight flits = 37 (37 measured)
latency change    = 0.0175671
throughput change = 0.0259494
Class 0:
Packet latency average = 21.2589
	minimum = 7
	maximum = 90
Network latency average = 21.2585
	minimum = 7
	maximum = 90
Slowest packet = 960849
Flit latency average = 21.2865
	minimum = 7
	maximum = 90
Slowest flit = 960849
Fragmentation average = 0
	minimum = 0
	maximum = 0
Injected packet rate average = 0.0985625
	minimum = 0.085 (at node 8)
	maximum = 0.108 (at node 1)
Accepted packet rate average = 0.0989375
	minimum = 0.088 (at node 6)
	maximum = 0.1135 (at node 0)
Injected flit rate average = 0.0985625
	minimum = 0.085 (at node 8)
	maximum = 0.108 (at node 1)
Accepted flit rate average= 0.0989375
	minimum = 0.088 (at node 6)
	maximum = 0.1135 (at node 0)
Injected packet length average = 1
Accepted packet length average = 1
Total in-flight flits = 25 (25 measured)
latency change    = 0.0130611
throughput change = 0.00189514
Class 0:
Packet latency average = 21.2342
	minimum = 7
	maximum = 90
Network latency average = 21.2339
	minimum = 7
	maximum = 90
Slowest packet = 960849
Flit latency average = 21.253
	minimum = 7
	maximum = 90
Slowest flit = 960849
Fragmentation average = 0
	minimum = 0
	maximum = 0
Injected packet rate average = 0.0971667
	minimum = 0.0886667 (at node 3)
	maximum = 0.110333 (at node 1)
Accepted packet rate average = 0.0973958
	minimum = 0.0833333 (at node 1)
	maximum = 0.108333 (at node 8)
Injected flit rate average = 0.0971667
	minimum = 0.0886667 (at node 3)
	maximum = 0.110333 (at node 1)
Accepted flit rate average= 0.0973958
	minimum = 0.0833333 (at node 1)
	maximum = 0.108333 (at node 8)
Injected packet length average = 1
Accepted packet length average = 1
Total in-flight flits = 26 (26 measured)
latency change    = 0.00116397
throughput change = 0.0158289
Draining all recorded packets ...
Draining remaining packets ...
Time taken is 6063 cycles
Class 0:
Packet latency average = 21.6061
	minimum = 7
	maximum = 76
Network latency average = 21.6061
	minimum = 7
	maximum = 76
Slowest packet = 964380
Flit latency average = 21.6061
	minimum = 7
	maximum = 76
Slowest flit = 964380
Fragmentation average = 0
	minimum = 0
	maximum = 0
Injected packet rate average = 0.10075
	minimum = 0.084 (at node 10)
	maximum = 0.121 (at node 4)
Accepted packet rate average = 0.098375
	minimum = 0.079 (at node 2)
	maximum = 0.112 (at node 4)
Injected flit rate average = 0.10075
	minimum = 0.084 (at node 10)
	maximum = 0.121 (at node 4)
Accepted flit rate average= 0.098375
	minimum = 0.079 (at node 2)
	maximum = 0.112 (at node 4)
Injected packet length average = 1
Accepted packet length average = 1
Total in-flight flits = 38 (0 measured)
latency change    = 1
throughput change = 1
Class 0:
Packet latency average = 21.6285
	minimum = 7
	maximum = 88
Network latency average = 21.6275
	minimum = 7
	maximum = 88
Slowest packet = 967094
Flit latency average = 21.6275
	minimum = 7
	maximum = 88
Slowest flit = 967094
Fragmentation average = 0
	minimum = 0
	maximum = 0
Injected packet rate average = 0.100625
	minimum = 0.085 (at node 6)
	maximum = 0.1175 (at node 3)
Accepted packet rate average = 0.0995937
	minimum = 0.0945 (at node 10)
	maximum = 0.106 (at node 5)
Injected flit rate average = 0.100625
	minimum = 0.085 (at node 6)
	maximum = 0.1175 (at node 3)
Accepted flit rate average= 0.0995937
	minimum = 0.0945 (at node 10)
	maximum = 0.106 (at node 5)
Injected packet length average = 1
Accepted packet length average = 1
Total in-flight flits = 33 (0 measured)
latency change    = 0.00103528
throughput change = 0.0122372
Class 0:
Packet latency average = 22.1336
	minimum = 7
	maximum = 78
Network latency average = 22.1336
	minimum = 7
	maximum = 78
Slowest packet = 968534
Flit latency average = 22.1336
	minimum = 7
	maximum = 78
Slowest flit = 968534
Fragmentation average = 0
	minimum = 0
	maximum = 0
Injected packet rate average = 0.0988125
	minimum = 0.086 (at node 2)
	maximum = 0.124 (at node 3)
Accepted packet rate average = 0.0986875
	minimum = 0.082 (at node 14)
	maximum = 0.107 (at node 8)
Injected flit rate average = 0.0988125
	minimum = 0.086 (at node 2)
	maximum = 0.124 (at node 3)
Accepted flit rate average= 0.0986875
	minimum = 0.082 (at node 14)
	maximum = 0.107 (at node 8)
Injected packet length average = 1
Accepted packet length average = 1
Total in-flight flits = 35 (0 measured)
latency change    = 0.0228222
throughput change = 0.00918303
Warmed up ...Time used is 3000 cycles
Class 0:
Packet latency average = 20.608
	minimum = 7
	maximum = 80
Network latency average = 20.6067
	minimum = 7
	maximum = 80
Slowest packet = 970184
Flit latency average = 20.6848
	minimum = 7
	maximum = 80
Slowest flit = 970184
Fragmentation average = 0
	minimum = 0
	maximum = 0
Injected packet rate average = 0.101625
	minimum = 0.093 (at node 11)
	maximum = 0.112 (at node 13)
Accepted packet rate average = 0.102313
	minimum = 0.079 (at node 4)
	maximum = 0.118 (at node 5)
Injected flit rate average = 0.101625
	minimum = 0.093 (at node 11)
	maximum = 0.112 (at node 13)
Accepted flit rate average= 0.102313
	minimum = 0.079 (at node 4)
	maximum = 0.118 (at node 5)
Injected packet length average = 1
Accepted packet length average = 1
Total in-flight flits = 24 (24 measured)
latency change    = 0.0740314
throughput change = 0.0354307
Class 0:
Packet latency average = 20.7959
	minimum = 7
	maximum = 80
Network latency average = 20.7952
	minimum = 7
	maximum = 80
Slowest packet = 970184
Flit latency average = 20.8338
	minimum = 7
	maximum = 80
Slowest flit = 970184
Fragmentation average = 0
	minimum = 0
	maximum = 0
Injected packet rate average = 0.0983125
	minimum = 0.0895 (at node 11)
	maximum = 0.11 (at node 8)
Accepted packet rate average = 0.0981563
	minimum = 0.0805 (at node 0)
	maximum = 0.118 (at node 12)
Injected flit rate average = 0.0983125
	minimum = 0.0895 (at node 11)
	maximum = 0.11 (at node 8)
Accepted flit rate average= 0.0981563
	minimum = 0.0805 (at node 0)
	maximum = 0.118 (at node 12)
Injected packet length average = 1
Accepted packet length average = 1
Total in-flight flits = 40 (40 measured)
latency change    = 0.00903491
throughput change = 0.0423432
Class 0:
Packet latency average = 20.8819
	minimum = 7
	maximum = 80
Network latency average = 20.8815
	minimum = 7
	maximum = 80
Slowest packet = 970184
Flit latency average = 20.9066
	minimum = 7
	maximum = 80
Slowest flit = 970184
Fragmentation average = 0
	minimum = 0
	maximum = 0
Injected packet rate average = 0.0978333
	minimum = 0.0913333 (at node 1)
	maximum = 0.106333 (at node 3)
Accepted packet rate average = 0.0979583
	minimum = 0.0796667 (at node 9)
	maximum = 0.113667 (at node 12)
Injected flit rate average = 0.0978333
	minimum = 0.0913333 (at node 1)
	maximum = 0.106333 (at node 3)
Accepted flit rate average= 0.0979583
	minimum = 0.0796667 (at node 9)
	maximum = 0.113667 (at node 12)
Injected packet length average = 1
Accepted packet length average = 1
Total in-flight flits = 29 (29 measured)
latency change    = 0.00412117
throughput change = 0.00202042
Class 0:
Packet latency average = 20.9978
	minimum = 7
	maximum = 80
Network latency average = 20.9975
	minimum = 7
	maximum = 80
Slowest packet = 970184
Flit latency average = 21.0155
	minimum = 7
	maximum = 80
Slowest flit = 970184
Fragmentation average = 0
	minimum = 0
	maximum = 0
Injected packet rate average = 0.0985625
	minimum = 0.09325 (at node 12)
	maximum = 0.1055 (at node 3)
Accepted packet rate average = 0.0986719
	minimum = 0.086 (at node 9)
	maximum = 0.10975 (at node 5)
Injected flit rate average = 0.0985625
	minimum = 0.09325 (at node 12)
	maximum = 0.1055 (at node 3)
Accepted flit rate average= 0.0986719
	minimum = 0.086 (at node 9)
	maximum = 0.10975 (at node 5)
Injected packet length average = 1
Accepted packet length average = 1
Total in-flight flits = 28 (28 measured)
latency change    = 0.00551648
throughput change = 0.00723146
Draining all recorded packets ...
Draining remaining packets ...
Time taken is 7071 cycles
Class 0:
Packet latency average = 21.4517
	minimum = 7
	maximum = 69
Network latency average = 21.4504
	minimum = 7
	maximum = 69
Slowest packet = 975334
Flit latency average = 21.4504
	minimum = 7
	maximum = 69
Slowest flit = 975334
Fragmentation average = 0
	minimum = 0
	maximum = 0
Injected packet rate average = 0.0990625
	minimum = 0.084 (at node 9)
	maximum = 0.115 (at node 14)
Accepted packet rate average = 0.0976875
	minimum = 0.076 (at node 5)
	maximum = 0.109 (at node 3)
Injected flit rate average = 0.0990625
	minimum = 0.084 (at node 9)
	maximum = 0.115 (at node 14)
Accepted flit rate average= 0.0976875
	minimum = 0.076 (at node 5)
	maximum = 0.109 (at node 3)
Injected packet length average = 1
Accepted packet length average = 1
Total in-flight flits = 22 (0 measured)
latency change    = 1
throughput change = 1
Class 0:
Packet latency average = 21.2101
	minimum = 7
	maximum = 69
Network latency average = 21.2095
	minimum = 7
	maximum = 69
Slowest packet = 975334
Flit latency average = 21.2095
	minimum = 7
	maximum = 69
Slowest flit = 975334
Fragmentation average = 0
	minimum = 0
	maximum = 0
Injected packet rate average = 0.0986563
	minimum = 0.087 (at node 3)
	maximum = 0.112 (at node 4)
Accepted packet rate average = 0.0975625
	minimum = 0.0805 (at node 5)
	maximum = 0.112 (at node 15)
Injected flit rate average = 0.0986563
	minimum = 0.087 (at node 3)
	maximum = 0.112 (at node 4)
Accepted flit rate average= 0.0975625
	minimum = 0.0805 (at node 5)
	maximum = 0.112 (at node 15)
Injected packet length average = 1
Accepted packet length average = 1
Total in-flight flits = 35 (0 measured)
latency change    = 0.0113895
throughput change = 0.00128123
Class 0:
Packet latency average = 20.8359
	minimum = 7
	maximum = 64
Network latency average = 20.8359
	minimum = 7
	maximum = 64
Slowest packet = 979496
Flit latency average = 20.8359
	minimum = 7
	maximum = 64
Slowest flit = 979496
Fragmentation average = 0
	minimum = 0
	maximum = 0
Injected packet rate average = 0.09875
	minimum = 0.08 (at node 11)
	maximum = 0.117 (at node 9)
Accepted packet rate average = 0.098625
	minimum = 0.091 (at node 1)
	maximum = 0.106 (at node 10)
Injected flit rate average = 0.09875
	minimum = 0.08 (at node 11)
	maximum = 0.117 (at node 9)
Accepted flit rate average= 0.098625
	minimum = 0.091 (at node 1)
	maximum = 0.106 (at node 10)
Injected packet length average = 1
Accepted packet length average = 1
Total in-flight flits = 37 (0 measured)
latency change    = 0.017962
throughput change = 0.0107731
Warmed up ...Time used is 3000 cycles
Class 0:
Packet latency average = 21.8687
	minimum = 7
	maximum = 68
Network latency average = 21.8687
	minimum = 7
	maximum = 68
Slowest packet = 980664
Flit latency average = 21.9982
	minimum = 7
	maximum = 68
Slowest flit = 980664
Fragmentation average = 0
	minimum = 0
	maximum = 0
Injected packet rate average = 0.10175
	minimum = 0.085 (at node 1)
	maximum = 0.12 (at node 0)
Accepted packet rate average = 0.101813
	minimum = 0.066 (at node 10)
	maximum = 0.115 (at node 12)
Injected flit rate average = 0.10175
	minimum = 0.085 (at node 1)
	maximum = 0.12 (at node 0)
Accepted flit rate average= 0.101813
	minimum = 0.066 (at node 10)
	maximum = 0.115 (at node 12)
Injected packet length average = 1
Accepted packet length average = 1
Total in-flight flits = 36 (36 measured)
latency change    = 0.0472296
throughput change = 0.0313076
Class 0:
Packet latency average = 21.7499
	minimum = 7
	maximum = 86
Network latency average = 21.7499
	minimum = 7
	maximum = 86
Slowest packet = 982639
Flit latency average = 21.8167
	minimum = 7
	maximum = 86
Slowest flit = 982639
Fragmentation average = 0
	minimum = 0
	maximum = 0
Injected packet rate average = 0.100687
	minimum = 0.0915 (at node 1)
	maximum = 0.115 (at node 4)
Accepted packet rate average = 0.10075
	minimum = 0.0865 (at node 10)
	maximum = 0.1115 (at node 12)
Injected flit rate average = 0.100687
	minimum = 0.0915 (at node 1)
	maximum = 0.115 (at node 4)
Accepted flit rate average= 0.10075
	minimum = 0.0865 (at node 10)
	maximum = 0.1115 (at node 12)
Injected packet length average = 1
Accepted packet length average = 1
Total in-flight flits = 35 (35 measured)
latency change    = 0.00546195
throughput change = 0.0105459
Class 0:
Packet latency average = 21.6172
	minimum = 7
	maximum = 86
Network latency average = 21.6163
	minimum = 7
	maximum = 86
Slowest packet = 982639
Flit latency average = 21.6617
	minimum = 7
	maximum = 86
Slowest flit = 982639
Fragmentation average = 0
	minimum = 0
	maximum = 0
Injected packet rate average = 0.101083
	minimum = 0.0906667 (at node 1)
	maximum = 0.110667 (at node 0)
Accepted packet rate average = 0.101062
	minimum = 0.0896667 (at node 10)
	maximum = 0.109667 (at node 7)
Injected flit rate average = 0.101083
	minimum = 0.0906667 (at node 1)
	maximum = 0.110667 (at node 0)
Accepted flit rate average= 0.101062
	minimum = 0.0896667 (at node 10)
	maximum = 0.109667 (at node 7)
Injected packet length average = 1
Accepted packet length average = 1
Total in-flight flits = 38 (38 measured)
latency change    = 0.00614157
throughput change = 0.00309215
Draining all recorded packets ...
Draining remaining packets ...
Time taken is 6082 cycles
====== Overall Traffic Statistics ======
====== Traffic class 0 ======
Packet latency average = 21.4154 (100 samples)
	minimum = 7 (100 samples)
	maximum = 87.01 (100 samples)
Network latency average = 21.4148 (100 samples)
	minimum = 7 (100 samples)
	maximum = 87 (100 samples)
Flit latency average = 21.4421 (100 samples)
	minimum = 7 (100 samples)
	maximum = 87.3 (100 samples)
Fragmentation average = 0 (100 samples)
	minimum = 0 (100 samples)
	maximum = 0 (100 samples)
Injected packet rate average = 0.100178 (100 samples)
	minimum = 0.0907692 (100 samples)
	maximum = 0.109737 (100 samples)
Accepted packet rate average = 0.100206 (100 samples)
	minimum = 0.09019 (100 samples)
	maximum = 0.110676 (100 samples)
Injected flit rate average = 0.100178 (100 samples)
	minimum = 0.0907692 (100 samples)
	maximum = 0.109737 (100 samples)
Accepted flit rate average = 0.100206 (100 samples)
	minimum = 0.09019 (100 samples)
	maximum = 0.110676 (100 samples)
Injected packet size average = 1 (100 samples)
Accepted packet size average = 1 (100 samples)
Hops average = 3.50294 (100 samples)
Total run time 11.3214
