BEGIN Configuration File: /tmp/bs_1138183_666324.cfg
topology = mesh;
k = 4;
n = 2;
routing_function = min_adapt;
num_vcs = 4;
vc_buf_size = 4;
wait_for_tail_credit = 1;
vc_allocator = islip;
sw_allocator = islip;
alloc_iters = 1;
credit_delay = 2;
routing_delay = 1;
vc_alloc_delay = 1;
sw_alloc_delay = 1;
input_speedup = 2;
output_speedup = 1;
internal_speedup = 1.0;
traffic = transpose;
packet_size = 1;
sim_type = latency;
injection_rate = 0.01;
warmup_periods = 3;
sample_period = 1000;
sim_count = 100;
seed = 1;

END Configuration File: /tmp/bs_1138183_666324.cfg
Class 0:
Packet latency average = 18.6488
	minimum = 7
	maximum = 44
Network latency average = 18.6488
	minimum = 7
	maximum = 44
Slowest packet = 129
Flit latency average = 18.6488
	minimum = 7
	maximum = 44
Slowest flit = 129
Fragmentation average = 0
	minimum = 0
	maximum = 0
Injected packet rate average = 0.0108125
	minimum = 0.006 (at node 2)
	maximum = 0.019 (at node 7)
Accepted packet rate average = 0.0105
	minimum = 0.006 (at node 8)
	maximum = 0.019 (at node 13)
Injected flit rate average = 0.0108125
	minimum = 0.006 (at node 2)
	maximum = 0.019 (at node 7)
Accepted flit rate average= 0.0105
	minimum = 0.006 (at node 8)
	maximum = 0.019 (at node 13)
Injected packet length average = 1
Accepted packet length average = 1
Total in-flight flits = 5 (0 measured)
latency change    = 1
throughput change = 1
Class 0:
Packet latency average = 20.0661
	minimum = 7
	maximum = 46
Network latency average = 20.0661
	minimum = 7
	maximum = 46
Slowest packet = 263
Flit latency average = 20.0661
	minimum = 7
	maximum = 46
Slowest flit = 263
Fragmentation average = 0
	minimum = 0
	maximum = 0
Injected packet rate average = 0.0110312
	minimum = 0.0065 (at node 2)
	maximum = 0.014 (at node 7)
Accepted packet rate average = 0.010875
	minimum = 0.0065 (at node 8)
	maximum = 0.014 (at node 3)
Injected flit rate average = 0.0110312
	minimum = 0.0065 (at node 2)
	maximum = 0.014 (at node 7)
Accepted flit rate average= 0.010875
	minimum = 0.0065 (at node 8)
	maximum = 0.014 (at node 3)
Injected packet length average = 1
Accepted packet length average = 1
Total in-flight flits = 5 (0 measured)
latency change    = 0.0706307
throughput change = 0.0344828
Class 0:
Packet latency average = 19.8232
	minimum = 7
	maximum = 39
Network latency average = 19.8232
	minimum = 7
	maximum = 39
Slowest packet = 500
Flit latency average = 19.8232
	minimum = 7
	maximum = 39
Slowest flit = 500
Fragmentation average = 0
	minimum = 0
	maximum = 0
Injected packet rate average = 0.0100625
	minimum = 0.004 (at node 7)
	maximum = 0.018 (at node 14)
Accepted packet rate average = 0.01025
	minimum = 0.004 (at node 13)
	maximum = 0.019 (at node 11)
Injected flit rate average = 0.0100625
	minimum = 0.004 (at node 7)
	maximum = 0.018 (at node 14)
Accepted flit rate average= 0.01025
	minimum = 0.004 (at node 13)
	maximum = 0.019 (at node 11)
Injected packet length average = 1
Accepted packet length average = 1
Total in-flight flits = 2 (0 measured)
latency change    = 0.0122544
throughput change = 0.0609756
Warmed up ...Time used is 3000 cycles
Class 0:
Packet latency average = 19.3557
	minimum = 7
	maximum = 46
Network latency average = 19.3557
	minimum = 7
	maximum = 46
Slowest packet = 517
Flit latency average = 19.457
	minimum = 7
	maximum = 46
Slowest flit = 517
Fragmentation average = 0
	minimum = 0
	maximum = 0
Injected packet rate average = 0.009375
	minimum = 0.006 (at node 0)
	maximum = 0.012 (at node 2)
Accepted packet rate average = 0.0094375
	minimum = 0.006 (at node 0)
	maximum = 0.012 (at node 8)
Injected flit rate average = 0.009375
	minimum = 0.006 (at node 0)
	maximum = 0.012 (at node 2)
Accepted flit rate average= 0.0094375
	minimum = 0.006 (at node 0)
	maximum = 0.012 (at node 8)
Injected packet length average = 1
Accepted packet length average = 1
Total in-flight flits = 1 (1 measured)
latency change    = 0.0241513
throughput change = 0.0860927
Class 0:
Packet latency average = 20.5096
	minimum = 7
	maximum = 46
Network latency average = 20.5096
	minimum = 7
	maximum = 46
Slowest packet = 517
Flit latency average = 20.5506
	minimum = 7
	maximum = 46
Slowest flit = 517
Fragmentation average = 0
	minimum = 0
	maximum = 0
Injected packet rate average = 0.00996875
	minimum = 0.007 (at node 10)
	maximum = 0.013 (at node 1)
Accepted packet rate average = 0.009875
	minimum = 0.007 (at node 10)
	maximum = 0.013 (at node 13)
Injected flit rate average = 0.00996875
	minimum = 0.007 (at node 10)
	maximum = 0.013 (at node 1)
Accepted flit rate average= 0.009875
	minimum = 0.007 (at node 10)
	maximum = 0.013 (at node 13)
Injected packet length average = 1
Accepted packet length average = 1
Total in-flight flits = 5 (5 measured)
latency change    = 0.0562591
throughput change = 0.0443038
Class 0:
Packet latency average = 20.1792
	minimum = 7
	maximum = 46
Network latency average = 20.1792
	minimum = 7
	maximum = 46
Slowest packet = 517
Flit latency average = 20.2093
	minimum = 7
	maximum = 46
Slowest flit = 517
Fragmentation average = 0
	minimum = 0
	maximum = 0
Injected packet rate average = 0.0095625
	minimum = 0.006 (at node 13)
	maximum = 0.0123333 (at node 2)
Accepted packet rate average = 0.00945833
	minimum = 0.00666667 (at node 7)
	maximum = 0.0113333 (at node 8)
Injected flit rate average = 0.0095625
	minimum = 0.006 (at node 13)
	maximum = 0.0123333 (at node 2)
Accepted flit rate average= 0.00945833
	minimum = 0.00666667 (at node 7)
	maximum = 0.0113333 (at node 8)
Injected packet length average = 1
Accepted packet length average = 1
Total in-flight flits = 7 (7 measured)
latency change    = 0.0163708
throughput change = 0.0440529
Class 0:
Packet latency average = 19.8626
	minimum = 7
	maximum = 46
Network latency average = 19.8626
	minimum = 7
	maximum = 46
Slowest packet = 517
Flit latency average = 19.8861
	minimum = 7
	maximum = 46
Slowest flit = 517
Fragmentation average = 0
	minimum = 0
	maximum = 0
Injected packet rate average = 0.00948437
	minimum = 0.00725 (at node 13)
	maximum = 0.01175 (at node 2)
Accepted packet rate average = 0.00946875
	minimum = 0.0075 (at node 5)
	maximum = 0.0115 (at node 8)
Injected flit rate average = 0.00948437
	minimum = 0.00725 (at node 13)
	maximum = 0.01175 (at node 2)
Accepted flit rate average= 0.00946875
	minimum = 0.0075 (at node 5)
	maximum = 0.0115 (at node 8)
Injected packet length average = 1
Accepted packet length average = 1
Total in-flight flits = 3 (3 measured)
latency change    = 0.0159406
throughput change = 0.00110011
Class 0:
Packet latency average = 19.7568
	minimum = 7
	maximum = 46
Network latency average = 19.7568
	minimum = 7
	maximum = 46
Slowest packet = 517
Flit latency average = 19.7755
	minimum = 7
	maximum = 46
Slowest flit = 517
Fragmentation average = 0
	minimum = 0
	maximum = 0
Injected packet rate average = 0.0097
	minimum = 0.0084 (at node 1)
	maximum = 0.0118 (at node 4)
Accepted packet rate average = 0.0096875
	minimum = 0.0084 (at node 2)
	maximum = 0.0114 (at node 1)
Injected flit rate average = 0.0097
	minimum = 0.0084 (at node 1)
	maximum = 0.0118 (at node 4)
Accepted flit rate average= 0.0096875
	minimum = 0.0084 (at node 2)
	maximum = 0.0114 (at node 1)
Injected packet length average = 1
Accepted packet length average = 1
Total in-flight flits = 3 (3 measured)
latency change    = 0.00535467
throughput change = 0.0225806
Draining all recorded packets ...
Draining remaining packets ...
Time taken is 8035 cycles
Class 0:
Packet latency average = 19.7063
	minimum = 7
	maximum = 45
Network latency average = 19.7063
	minimum = 7
	maximum = 45
Slowest packet = 1399
Flit latency average = 19.7063
	minimum = 7
	maximum = 45
Slowest flit = 1399
Fragmentation average = 0
	minimum = 0
	maximum = 0
Injected packet rate average = 0.01025
	minimum = 0.007 (at node 5)
	maximum = 0.013 (at node 7)
Accepted packet rate average = 0.01
	minimum = 0.007 (at node 5)
	maximum = 0.013 (at node 10)
Injected flit rate average = 0.01025
	minimum = 0.007 (at node 5)
	maximum = 0.013 (at node 7)
Accepted flit rate average= 0.01
	minimum = 0.007 (at node 5)
	maximum = 0.013 (at node 10)
Injected packet length average = 1
Accepted packet length average = 1
Total in-flight flits = 4 (0 measured)
latency change    = 1
throughput change = 1
Class 0:
Packet latency average = 19.9814
	minimum = 7
	maximum = 45
Network latency average = 19.9814
	minimum = 7
	maximum = 45
Slowest packet = 1399
Flit latency average = 19.9814
	minimum = 7
	maximum = 45
Slowest flit = 1399
Fragmentation average = 0
	minimum = 0
	maximum = 0
Injected packet rate average = 0.0101875
	minimum = 0.0085 (at node 5)
	maximum = 0.013 (at node 2)
Accepted packet rate average = 0.0100938
	minimum = 0.0085 (at node 5)
	maximum = 0.013 (at node 8)
Injected flit rate average = 0.0101875
	minimum = 0.0085 (at node 5)
	maximum = 0.013 (at node 2)
Accepted flit rate average= 0.0100938
	minimum = 0.0085 (at node 5)
	maximum = 0.013 (at node 8)
Injected packet length average = 1
Accepted packet length average = 1
Total in-flight flits = 3 (0 measured)
latency change    = 0.0137715
throughput change = 0.00928793
Class 0:
Packet latency average = 19.071
	minimum = 7
	maximum = 38
Network latency average = 19.071
	minimum = 7
	maximum = 38
Slowest packet = 1641
Flit latency average = 19.071
	minimum = 7
	maximum = 38
Slowest flit = 1641
Fragmentation average = 0
	minimum = 0
	maximum = 0
Injected packet rate average = 0.0095
	minimum = 0.003 (at node 8)
	maximum = 0.015 (at node 6)
Accepted packet rate average = 0.0096875
	minimum = 0.003 (at node 2)
	maximum = 0.015 (at node 6)
Injected flit rate average = 0.0095
	minimum = 0.003 (at node 8)
	maximum = 0.015 (at node 6)
Accepted flit rate average= 0.0096875
	minimum = 0.003 (at node 2)
	maximum = 0.015 (at node 6)
Injected packet length average = 1
Accepted packet length average = 1
Total in-flight flits = 0 (0 measured)
latency change    = 0.0477404
throughput change = 0.0419355
Warmed up ...Time used is 3000 cycles
Class 0:
Packet latency average = 19.6846
	minimum = 7
	maximum = 45
Network latency average = 19.6846
	minimum = 7
	maximum = 45
Slowest packet = 1830
Flit latency average = 19.6846
	minimum = 7
	maximum = 45
Slowest flit = 1830
Fragmentation average = 0
	minimum = 0
	maximum = 0
Injected packet rate average = 0.0085
	minimum = 0.005 (at node 3)
	maximum = 0.017 (at node 9)
Accepted packet rate average = 0.008125
	minimum = 0.004 (at node 12)
	maximum = 0.016 (at node 6)
Injected flit rate average = 0.0085
	minimum = 0.005 (at node 3)
	maximum = 0.017 (at node 9)
Accepted flit rate average= 0.008125
	minimum = 0.004 (at node 12)
	maximum = 0.016 (at node 6)
Injected packet length average = 1
Accepted packet length average = 1
Total in-flight flits = 6 (6 measured)
latency change    = 0.031174
throughput change = 0.192308
Class 0:
Packet latency average = 20.1404
	minimum = 7
	maximum = 45
Network latency average = 20.1404
	minimum = 7
	maximum = 45
Slowest packet = 1830
Flit latency average = 20.1404
	minimum = 7
	maximum = 45
Slowest flit = 1830
Fragmentation average = 0
	minimum = 0
	maximum = 0
Injected packet rate average = 0.00925
	minimum = 0.0055 (at node 0)
	maximum = 0.013 (at node 8)
Accepted packet rate average = 0.009125
	minimum = 0.0055 (at node 0)
	maximum = 0.0125 (at node 2)
Injected flit rate average = 0.00925
	minimum = 0.0055 (at node 0)
	maximum = 0.013 (at node 8)
Accepted flit rate average= 0.009125
	minimum = 0.0055 (at node 0)
	maximum = 0.0125 (at node 2)
Injected packet length average = 1
Accepted packet length average = 1
Total in-flight flits = 4 (4 measured)
latency change    = 0.0226309
throughput change = 0.109589
Class 0:
Packet latency average = 20.0824
	minimum = 7
	maximum = 45
Network latency average = 20.0824
	minimum = 7
	maximum = 45
Slowest packet = 1830
Flit latency average = 20.0824
	minimum = 7
	maximum = 45
Slowest flit = 1830
Fragmentation average = 0
	minimum = 0
	maximum = 0
Injected packet rate average = 0.0089375
	minimum = 0.00633333 (at node 0)
	maximum = 0.011 (at node 4)
Accepted packet rate average = 0.00885417
	minimum = 0.00633333 (at node 0)
	maximum = 0.011 (at node 1)
Injected flit rate average = 0.0089375
	minimum = 0.00633333 (at node 0)
	maximum = 0.011 (at node 4)
Accepted flit rate average= 0.00885417
	minimum = 0.00633333 (at node 0)
	maximum = 0.011 (at node 1)
Injected packet length average = 1
Accepted packet length average = 1
Total in-flight flits = 4 (4 measured)
latency change    = 0.002891
throughput change = 0.0305882
Class 0:
Packet latency average = 19.7123
	minimum = 7
	maximum = 45
Network latency average = 19.7123
	minimum = 7
	maximum = 45
Slowest packet = 1830
Flit latency average = 19.7123
	minimum = 7
	maximum = 45
Slowest flit = 1830
Fragmentation average = 0
	minimum = 0
	maximum = 0
Injected packet rate average = 0.00909375
	minimum = 0.00725 (at node 0)
	maximum = 0.0115 (at node 8)
Accepted packet rate average = 0.00901562
	minimum = 0.00725 (at node 0)
	maximum = 0.01125 (at node 2)
Injected flit rate average = 0.00909375
	minimum = 0.00725 (at node 0)
	maximum = 0.0115 (at node 8)
Accepted flit rate average= 0.00901562
	minimum = 0.00725 (at node 0)
	maximum = 0.01125 (at node 2)
Injected packet length average = 1
Accepted packet length average = 1
Total in-flight flits = 5 (5 measured)
latency change    = 0.0187724
throughput change = 0.0179087
Class 0:
Packet latency average = 19.8167
	minimum = 7
	maximum = 45
Network latency average = 19.8167
	minimum = 7
	maximum = 45
Slowest packet = 1830
Flit latency average = 19.8167
	minimum = 7
	maximum = 45
Slowest flit = 1830
Fragmentation average = 0
	minimum = 0
	maximum = 0
Injected packet rate average = 0.0091875
	minimum = 0.008 (at node 0)
	maximum = 0.011 (at node 8)
Accepted packet rate average = 0.0091375
	minimum = 0.0078 (at node 8)
	maximum = 0.011 (at node 2)
Injected flit rate average = 0.0091875
	minimum = 0.008 (at node 0)
	maximum = 0.011 (at node 8)
Accepted flit rate average= 0.0091375
	minimum = 0.0078 (at node 8)
	maximum = 0.011 (at node 2)
Injected packet length average = 1
Accepted packet length average = 1
Total in-flight flits = 4 (4 measured)
latency change    = 0.0052675
throughput change = 0.0133379
Draining all recorded packets ...
Draining remaining packets ...
Time taken is 8045 cycles
Class 0:
Packet latency average = 19.2
	minimum = 7
	maximum = 44
Network latency average = 19.2
	minimum = 7
	maximum = 44
Slowest packet = 2620
Flit latency average = 19.2
	minimum = 7
	maximum = 44
Slowest flit = 2620
Fragmentation average = 0
	minimum = 0
	maximum = 0
Injected packet rate average = 0.0104375
	minimum = 0.006 (at node 0)
	maximum = 0.016 (at node 15)
Accepted packet rate average = 0.01
	minimum = 0.005 (at node 0)
	maximum = 0.016 (at node 15)
Injected flit rate average = 0.0104375
	minimum = 0.006 (at node 0)
	maximum = 0.016 (at node 15)
Accepted flit rate average= 0.01
	minimum = 0.005 (at node 0)
	maximum = 0.016 (at node 15)
Injected packet length average = 1
Accepted packet length average = 1
Total in-flight flits = 7 (0 measured)
latency change    = 1
throughput change = 1
Class 0:
Packet latency average = 18.7642
	minimum = 7
	maximum = 44
Network latency average = 18.7642
	minimum = 7
	maximum = 44
Slowest packet = 2620
Flit latency average = 18.7642
	minimum = 7
	maximum = 44
Slowest flit = 2620
Fragmentation average = 0
	minimum = 0
	maximum = 0
Injected packet rate average = 0.0100938
	minimum = 0.006 (at node 8)
	maximum = 0.014 (at node 10)
Accepted packet rate average = 0.0099375
	minimum = 0.006 (at node 2)
	maximum = 0.014 (at node 10)
Injected flit rate average = 0.0100938
	minimum = 0.006 (at node 8)
	maximum = 0.014 (at node 10)
Accepted flit rate average= 0.0099375
	minimum = 0.006 (at node 2)
	maximum = 0.014 (at node 10)
Injected packet length average = 1
Accepted packet length average = 1
Total in-flight flits = 5 (0 measured)
latency change    = 0.0232278
throughput change = 0.00628931
Class 0:
Packet latency average = 20.131
	minimum = 7
	maximum = 48
Network latency average = 20.131
	minimum = 7
	maximum = 48
Slowest packet = 2885
Flit latency average = 20.131
	minimum = 7
	maximum = 48
Slowest flit = 2885
Fragmentation average = 0
	minimum = 0
	maximum = 0
Injected packet rate average = 0.0104375
	minimum = 0.006 (at node 1)
	maximum = 0.016 (at node 7)
Accepted packet rate average = 0.0105
	minimum = 0.006 (at node 4)
	maximum = 0.016 (at node 11)
Injected flit rate average = 0.0104375
	minimum = 0.006 (at node 1)
	maximum = 0.016 (at node 7)
Accepted flit rate average= 0.0105
	minimum = 0.006 (at node 4)
	maximum = 0.016 (at node 11)
Injected packet length average = 1
Accepted packet length average = 1
Total in-flight flits = 4 (0 measured)
latency change    = 0.0678955
throughput change = 0.0535714
Warmed up ...Time used is 3000 cycles
Class 0:
Packet latency average = 18.4444
	minimum = 7
	maximum = 44
Network latency average = 18.4444
	minimum = 7
	maximum = 44
Slowest packet = 3107
Flit latency average = 18.5904
	minimum = 7
	maximum = 44
Slowest flit = 3107
Fragmentation average = 0
	minimum = 0
	maximum = 0
Injected packet rate average = 0.0101875
	minimum = 0.003 (at node 3)
	maximum = 0.018 (at node 4)
Accepted packet rate average = 0.010375
	minimum = 0.003 (at node 12)
	maximum = 0.017 (at node 1)
Injected flit rate average = 0.0101875
	minimum = 0.003 (at node 3)
	maximum = 0.018 (at node 4)
Accepted flit rate average= 0.010375
	minimum = 0.003 (at node 12)
	maximum = 0.017 (at node 1)
Injected packet length average = 1
Accepted packet length average = 1
Total in-flight flits = 1 (1 measured)
latency change    = 0.0914372
throughput change = 0.0120482
Class 0:
Packet latency average = 18.7231
	minimum = 7
	maximum = 44
Network latency average = 18.7231
	minimum = 7
	maximum = 44
Slowest packet = 3107
Flit latency average = 18.7974
	minimum = 7
	maximum = 44
Slowest flit = 3107
Fragmentation average = 0
	minimum = 0
	maximum = 0
Injected packet rate average = 0.0096875
	minimum = 0.004 (at node 0)
	maximum = 0.0145 (at node 4)
Accepted packet rate average = 0.00971875
	minimum = 0.004 (at node 0)
	maximum = 0.0145 (at node 1)
Injected flit rate average = 0.0096875
	minimum = 0.004 (at node 0)
	maximum = 0.0145 (at node 4)
Accepted flit rate average= 0.00971875
	minimum = 0.004 (at node 0)
	maximum = 0.0145 (at node 1)
Injected packet length average = 1
Accepted packet length average = 1
Total in-flight flits = 3 (3 measured)
latency change    = 0.0148844
throughput change = 0.0675241
Class 0:
Packet latency average = 19.6095
	minimum = 7
	maximum = 51
Network latency average = 19.6095
	minimum = 7
	maximum = 51
Slowest packet = 3398
Flit latency average = 19.6496
	minimum = 7
	maximum = 51
Slowest flit = 3398
Fragmentation average = 0
	minimum = 0
	maximum = 0
Injected packet rate average = 0.0101458
	minimum = 0.005 (at node 0)
	maximum = 0.0126667 (at node 4)
Accepted packet rate average = 0.0101667
	minimum = 0.005 (at node 0)
	maximum = 0.0126667 (at node 1)
Injected flit rate average = 0.0101458
	minimum = 0.005 (at node 0)
	maximum = 0.0126667 (at node 4)
Accepted flit rate average= 0.0101667
	minimum = 0.005 (at node 0)
	maximum = 0.0126667 (at node 1)
Injected packet length average = 1
Accepted packet length average = 1
Total in-flight flits = 3 (3 measured)
latency change    = 0.0452014
throughput change = 0.0440574
Class 0:
Packet latency average = 19.5039
	minimum = 7
	maximum = 51
Network latency average = 19.5039
	minimum = 7
	maximum = 51
Slowest packet = 3398
Flit latency average = 19.5349
	minimum = 7
	maximum = 51
Slowest flit = 3398
Fragmentation average = 0
	minimum = 0
	maximum = 0
Injected packet rate average = 0.0100625
	minimum = 0.0065 (at node 14)
	maximum = 0.0115 (at node 5)
Accepted packet rate average = 0.0100781
	minimum = 0.0065 (at node 11)
	maximum = 0.0115 (at node 10)
Injected flit rate average = 0.0100625
	minimum = 0.0065 (at node 14)
	maximum = 0.0115 (at node 5)
Accepted flit rate average= 0.0100781
	minimum = 0.0065 (at node 11)
	maximum = 0.0115 (at node 10)
Injected packet length average = 1
Accepted packet length average = 1
Total in-flight flits = 3 (3 measured)
latency change    = 0.00541451
throughput change = 0.00878553
Class 0:
Packet latency average = 19.6057
	minimum = 7
	maximum = 51
Network latency average = 19.6057
	minimum = 7
	maximum = 51
Slowest packet = 3398
Flit latency average = 19.63
	minimum = 7
	maximum = 51
Slowest flit = 3398
Fragmentation average = 0
	minimum = 0
	maximum = 0
Injected packet rate average = 0.0101125
	minimum = 0.0072 (at node 0)
	maximum = 0.012 (at node 15)
Accepted packet rate average = 0.0101
	minimum = 0.007 (at node 0)
	maximum = 0.012 (at node 15)
Injected flit rate average = 0.0101125
	minimum = 0.0072 (at node 0)
	maximum = 0.012 (at node 15)
Accepted flit rate average= 0.0101
	minimum = 0.007 (at node 0)
	maximum = 0.012 (at node 15)
Injected packet length average = 1
Accepted packet length average = 1
Total in-flight flits = 5 (5 measured)
latency change    = 0.00519345
throughput change = 0.00216584
Draining all recorded packets ...
Draining remaining packets ...
Time taken is 8046 cycles
Class 0:
Packet latency average = 19.0414
	minimum = 7
	maximum = 44
Network latency average = 19.0414
	minimum = 7
	maximum = 44
Slowest packet = 3916
Flit latency average = 19.0414
	minimum = 7
	maximum = 44
Slowest flit = 3916
Fragmentation average = 0
	minimum = 0
	maximum = 0
Injected packet rate average = 0.0090625
	minimum = 0.006 (at node 8)
	maximum = 0.014 (at node 5)
Accepted packet rate average = 0.0090625
	minimum = 0.006 (at node 2)
	maximum = 0.014 (at node 5)
Injected flit rate average = 0.0090625
	minimum = 0.006 (at node 8)
	maximum = 0.014 (at node 5)
Accepted flit rate average= 0.0090625
	minimum = 0.006 (at node 2)
	maximum = 0.014 (at node 5)
Injected packet length average = 1
Accepted packet length average = 1
Total in-flight flits = 0 (0 measured)
latency change    = 1
throughput change = 1
Class 0:
Packet latency average = 19.3103
	minimum = 7
	maximum = 44
Network latency average = 19.3103
	minimum = 7
	maximum = 44
Slowest packet = 3916
Flit latency average = 19.3103
	minimum = 7
	maximum = 44
Slowest flit = 3916
Fragmentation average = 0
	minimum = 0
	maximum = 0
Injected packet rate average = 0.00925
	minimum = 0.007 (at node 0)
	maximum = 0.014 (at node 10)
Accepted packet rate average = 0.0090625
	minimum = 0.006 (at node 8)
	maximum = 0.014 (at node 10)
Injected flit rate average = 0.00925
	minimum = 0.007 (at node 0)
	maximum = 0.014 (at node 10)
Accepted flit rate average= 0.0090625
	minimum = 0.006 (at node 8)
	maximum = 0.014 (at node 10)
Injected packet length average = 1
Accepted packet length average = 1
Total in-flight flits = 6 (0 measured)
latency change    = 0.0139286
throughput change = 0
Class 0:
Packet latency average = 21.4894
	minimum = 7
	maximum = 43
Network latency average = 21.4894
	minimum = 7
	maximum = 43
Slowest packet = 4100
Flit latency average = 21.4894
	minimum = 7
	maximum = 43
Slowest flit = 4100
Fragmentation average = 0
	minimum = 0
	maximum = 0
Injected packet rate average = 0.0115625
	minimum = 0.006 (at node 8)
	maximum = 0.022 (at node 7)
Accepted packet rate average = 0.01175
	minimum = 0.006 (at node 2)
	maximum = 0.022 (at node 13)
Injected flit rate average = 0.0115625
	minimum = 0.006 (at node 8)
	maximum = 0.022 (at node 7)
Accepted flit rate average= 0.01175
	minimum = 0.006 (at node 2)
	maximum = 0.022 (at node 13)
Injected packet length average = 1
Accepted packet length average = 1
Total in-flight flits = 3 (0 measured)
latency change    = 0.1014
throughput change = 0.228723
Warmed up ...Time used is 3000 cycles
Class 0:
Packet latency average = 20.2674
	minimum = 7
	maximum = 42
Network latency average = 20.2674
	minimum = 7
	maximum = 42
Slowest packet = 4377
Flit latency average = 20.3943
	minimum = 7
	maximum = 42
Slowest flit = 4377
Fragmentation average = 0
	minimum = 0
	maximum = 0
Injected packet rate average = 0.010875
	minimum = 0.007 (at node 0)
	maximum = 0.016 (at node 13)
Accepted packet rate average = 0.0109375
	minimum = 0.007 (at node 0)
	maximum = 0.017 (at node 7)
Injected flit rate average = 0.010875
	minimum = 0.007 (at node 0)
	maximum = 0.016 (at node 13)
Accepted flit rate average= 0.0109375
	minimum = 0.007 (at node 0)
	maximum = 0.017 (at node 7)
Injected packet length average = 1
Accepted packet length average = 1
Total in-flight flits = 2 (2 measured)
latency change    = 0.0602898
throughput change = 0.0742857
Class 0:
Packet latency average = 20.1672
	minimum = 7
	maximum = 45
Network latency average = 20.1672
	minimum = 7
	maximum = 45
Slowest packet = 4611
Flit latency average = 20.2362
	minimum = 7
	maximum = 45
Slowest flit = 4611
Fragmentation average = 0
	minimum = 0
	maximum = 0
Injected packet rate average = 0.0101563
	minimum = 0.006 (at node 5)
	maximum = 0.014 (at node 14)
Accepted packet rate average = 0.0101875
	minimum = 0.006 (at node 5)
	maximum = 0.0145 (at node 11)
Injected flit rate average = 0.0101563
	minimum = 0.006 (at node 5)
	maximum = 0.014 (at node 14)
Accepted flit rate average= 0.0101875
	minimum = 0.006 (at node 5)
	maximum = 0.0145 (at node 11)
Injected packet length average = 1
Accepted packet length average = 1
Total in-flight flits = 2 (2 measured)
latency change    = 0.0049714
throughput change = 0.0736196
Class 0:
Packet latency average = 19.9466
	minimum = 7
	maximum = 47
Network latency average = 19.9466
	minimum = 7
	maximum = 47
Slowest packet = 4728
Flit latency average = 19.9939
	minimum = 7
	maximum = 47
Slowest flit = 4728
Fragmentation average = 0
	minimum = 0
	maximum = 0
Injected packet rate average = 0.0103125
	minimum = 0.006 (at node 5)
	maximum = 0.014 (at node 14)
Accepted packet rate average = 0.0102083
	minimum = 0.006 (at node 5)
	maximum = 0.0143333 (at node 11)
Injected flit rate average = 0.0103125
	minimum = 0.006 (at node 5)
	maximum = 0.014 (at node 14)
Accepted flit rate average= 0.0102083
	minimum = 0.006 (at node 5)
	maximum = 0.0143333 (at node 11)
Injected packet length average = 1
Accepted packet length average = 1
Total in-flight flits = 8 (8 measured)
latency change    = 0.0110581
throughput change = 0.00204082
Class 0:
Packet latency average = 19.9913
	minimum = 7
	maximum = 47
Network latency average = 19.9913
	minimum = 7
	maximum = 47
Slowest packet = 4728
Flit latency average = 20.0245
	minimum = 7
	maximum = 47
Slowest flit = 4728
Fragmentation average = 0
	minimum = 0
	maximum = 0
Injected packet rate average = 0.0109062
	minimum = 0.00725 (at node 5)
	maximum = 0.014 (at node 14)
Accepted packet rate average = 0.0108594
	minimum = 0.00725 (at node 5)
	maximum = 0.01425 (at node 11)
Injected flit rate average = 0.0109062
	minimum = 0.00725 (at node 5)
	maximum = 0.014 (at node 14)
Accepted flit rate average= 0.0108594
	minimum = 0.00725 (at node 5)
	maximum = 0.01425 (at node 11)
Injected packet length average = 1
Accepted packet length average = 1
Total in-flight flits = 6 (6 measured)
latency change    = 0.00223685
throughput change = 0.059952
Class 0:
Packet latency average = 19.7231
	minimum = 7
	maximum = 47
Network latency average = 19.7231
	minimum = 7
	maximum = 47
Slowest packet = 4728
Flit latency average = 19.7506
	minimum = 7
	maximum = 47
Slowest flit = 4728
Fragmentation average = 0
	minimum = 0
	maximum = 0
Injected packet rate average = 0.0108375
	minimum = 0.0076 (at node 5)
	maximum = 0.013 (at node 14)
Accepted packet rate average = 0.010825
	minimum = 0.0074 (at node 5)
	maximum = 0.0132 (at node 11)
Injected flit rate average = 0.0108375
	minimum = 0.0076 (at node 5)
	maximum = 0.013 (at node 14)
Accepted flit rate average= 0.010825
	minimum = 0.0074 (at node 5)
	maximum = 0.0132 (at node 11)
Injected packet length average = 1
Accepted packet length average = 1
Total in-flight flits = 4 (4 measured)
latency change    = 0.0136019
throughput change = 0.00317552
Class 0:
Packet latency average = 19.9873
	minimum = 7
	maximum = 56
Network latency average = 19.9873
	minimum = 7
	maximum = 56
Slowest packet = 5194
Flit latency average = 20.0097
	minimum = 7
	maximum = 56
Slowest flit = 5194
Fragmentation average = 0
	minimum = 0
	maximum = 0
Injected packet rate average = 0.01075
	minimum = 0.00733333 (at node 5)
	maximum = 0.0125 (at node 14)
Accepted packet rate average = 0.0107292
	minimum = 0.00733333 (at node 5)
	maximum = 0.0126667 (at node 11)
Injected flit rate average = 0.01075
	minimum = 0.00733333 (at node 5)
	maximum = 0.0125 (at node 14)
Accepted flit rate average= 0.0107292
	minimum = 0.00733333 (at node 5)
	maximum = 0.0126667 (at node 11)
Injected packet length average = 1
Accepted packet length average = 1
Total in-flight flits = 5 (5 measured)
latency change    = 0.0132225
throughput change = 0.00893204
Class 0:
Packet latency average = 20.187
	minimum = 7
	maximum = 56
Network latency average = 20.187
	minimum = 7
	maximum = 56
Slowest packet = 5194
Flit latency average = 20.2056
	minimum = 7
	maximum = 56
Slowest flit = 5194
Fragmentation average = 0
	minimum = 0
	maximum = 0
Injected packet rate average = 0.0107768
	minimum = 0.00814286 (at node 5)
	maximum = 0.0121429 (at node 14)
Accepted packet rate average = 0.0107679
	minimum = 0.00814286 (at node 5)
	maximum = 0.0121429 (at node 11)
Injected flit rate average = 0.0107768
	minimum = 0.00814286 (at node 5)
	maximum = 0.0121429 (at node 14)
Accepted flit rate average= 0.0107679
	minimum = 0.00814286 (at node 5)
	maximum = 0.0121429 (at node 11)
Injected packet length average = 1
Accepted packet length average = 1
Total in-flight flits = 4 (4 measured)
latency change    = 0.00989203
throughput change = 0.00359315
Draining all recorded packets ...
Draining remaining packets ...
Time taken is 10019 cycles
Class 0:
Packet latency average = 20.795
	minimum = 7
	maximum = 45
Network latency average = 20.795
	minimum = 7
	maximum = 45
Slowest packet = 5565
Flit latency average = 20.795
	minimum = 7
	maximum = 45
Slowest flit = 5565
Fragmentation average = 0
	minimum = 0
	maximum = 0
Injected packet rate average = 0.0103125
	minimum = 0.005 (at node 10)
	maximum = 0.015 (at node 7)
Accepted packet rate average = 0.0100625
	minimum = 0.005 (at node 10)
	maximum = 0.014 (at node 13)
Injected flit rate average = 0.0103125
	minimum = 0.005 (at node 10)
	maximum = 0.015 (at node 7)
Accepted flit rate average= 0.0100625
	minimum = 0.005 (at node 10)
	maximum = 0.014 (at node 13)
Injected packet length average = 1
Accepted packet length average = 1
Total in-flight flits = 4 (0 measured)
latency change    = 1
throughput change = 1
Class 0:
Packet latency average = 20.5266
	minimum = 7
	maximum = 45
Network latency average = 20.5266
	minimum = 7
	maximum = 45
Slowest packet = 5565
Flit latency average = 20.5266
	minimum = 7
	maximum = 45
Slowest flit = 5565
Fragmentation average = 0
	minimum = 0
	maximum = 0
Injected packet rate average = 0.0100313
	minimum = 0.006 (at node 15)
	maximum = 0.015 (at node 8)
Accepted packet rate average = 0.00996875
	minimum = 0.006 (at node 15)
	maximum = 0.0145 (at node 2)
Injected flit rate average = 0.0100313
	minimum = 0.006 (at node 15)
	maximum = 0.015 (at node 8)
Accepted flit rate average= 0.00996875
	minimum = 0.006 (at node 15)
	maximum = 0.0145 (at node 2)
Injected packet length average = 1
Accepted packet length average = 1
Total in-flight flits = 2 (0 measured)
latency change    = 0.013075
throughput change = 0.00940439
Class 0:
Packet latency average = 18.2293
	minimum = 7
	maximum = 45
Network latency average = 18.2293
	minimum = 7
	maximum = 45
Slowest packet = 5923
Flit latency average = 18.2293
	minimum = 7
	maximum = 45
Slowest flit = 5923
Fragmentation average = 0
	minimum = 0
	maximum = 0
Injected packet rate average = 0.009875
	minimum = 0.005 (at node 3)
	maximum = 0.017 (at node 14)
Accepted packet rate average = 0.0098125
	minimum = 0.005 (at node 9)
	maximum = 0.016 (at node 11)
Injected flit rate average = 0.009875
	minimum = 0.005 (at node 3)
	maximum = 0.017 (at node 14)
Accepted flit rate average= 0.0098125
	minimum = 0.005 (at node 9)
	maximum = 0.016 (at node 11)
Injected packet length average = 1
Accepted packet length average = 1
Total in-flight flits = 3 (0 measured)
latency change    = 0.126025
throughput change = 0.0159236
Warmed up ...Time used is 3000 cycles
Class 0:
Packet latency average = 19.05
	minimum = 7
	maximum = 40
Network latency average = 19.05
	minimum = 7
	maximum = 40
Slowest packet = 6077
Flit latency average = 18.9371
	minimum = 7
	maximum = 40
Slowest flit = 6077
Fragmentation average = 0
	minimum = 0
	maximum = 0
Injected packet rate average = 0.0089375
	minimum = 0.004 (at node 4)
	maximum = 0.017 (at node 1)
Accepted packet rate average = 0.0089375
	minimum = 0.003 (at node 2)
	maximum = 0.016 (at node 4)
Injected flit rate average = 0.0089375
	minimum = 0.004 (at node 4)
	maximum = 0.017 (at node 1)
Accepted flit rate average= 0.0089375
	minimum = 0.003 (at node 2)
	maximum = 0.016 (at node 4)
Injected packet length average = 1
Accepted packet length average = 1
Total in-flight flits = 3 (3 measured)
latency change    = 0.0430814
throughput change = 0.0979021
Class 0:
Packet latency average = 19.1111
	minimum = 7
	maximum = 40
Network latency average = 19.1111
	minimum = 7
	maximum = 40
Slowest packet = 6077
Flit latency average = 19.0583
	minimum = 7
	maximum = 40
Slowest flit = 6077
Fragmentation average = 0
	minimum = 0
	maximum = 0
Injected packet rate average = 0.00959375
	minimum = 0.007 (at node 4)
	maximum = 0.013 (at node 1)
Accepted packet rate average = 0.00965625
	minimum = 0.007 (at node 1)
	maximum = 0.013 (at node 4)
Injected flit rate average = 0.00959375
	minimum = 0.007 (at node 4)
	maximum = 0.013 (at node 1)
Accepted flit rate average= 0.00965625
	minimum = 0.007 (at node 1)
	maximum = 0.013 (at node 4)
Injected packet length average = 1
Accepted packet length average = 1
Total in-flight flits = 1 (1 measured)
latency change    = 0.00319767
throughput change = 0.0744337
Class 0:
Packet latency average = 19.2188
	minimum = 7
	maximum = 43
Network latency average = 19.2188
	minimum = 7
	maximum = 43
Slowest packet = 6319
Flit latency average = 19.1818
	minimum = 7
	maximum = 43
Slowest flit = 6319
Fragmentation average = 0
	minimum = 0
	maximum = 0
Injected packet rate average = 0.009375
	minimum = 0.00666667 (at node 13)
	maximum = 0.012 (at node 1)
Accepted packet rate average = 0.00939583
	minimum = 0.00666667 (at node 7)
	maximum = 0.012 (at node 4)
Injected flit rate average = 0.009375
	minimum = 0.00666667 (at node 13)
	maximum = 0.012 (at node 1)
Accepted flit rate average= 0.00939583
	minimum = 0.00666667 (at node 7)
	maximum = 0.012 (at node 4)
Injected packet length average = 1
Accepted packet length average = 1
Total in-flight flits = 2 (2 measured)
latency change    = 0.00560072
throughput change = 0.0277162
Class 0:
Packet latency average = 19.0785
	minimum = 7
	maximum = 44
Network latency average = 19.0785
	minimum = 7
	maximum = 44
Slowest packet = 6517
Flit latency average = 19.0515
	minimum = 7
	maximum = 44
Slowest flit = 6517
Fragmentation average = 0
	minimum = 0
	maximum = 0
Injected packet rate average = 0.0094375
	minimum = 0.00725 (at node 13)
	maximum = 0.0125 (at node 1)
Accepted packet rate average = 0.00940625
	minimum = 0.00725 (at node 7)
	maximum = 0.0125 (at node 4)
Injected flit rate average = 0.0094375
	minimum = 0.00725 (at node 13)
	maximum = 0.0125 (at node 1)
Accepted flit rate average= 0.00940625
	minimum = 0.00725 (at node 7)
	maximum = 0.0125 (at node 4)
Injected packet length average = 1
Accepted packet length average = 1
Total in-flight flits = 5 (5 measured)
latency change    = 0.0073531
throughput change = 0.00110742
Class 0:
Packet latency average = 19.0944
	minimum = 7
	maximum = 57
Network latency average = 19.0944
	minimum = 7
	maximum = 57
Slowest packet = 6681
Flit latency average = 19.0735
	minimum = 7
	maximum = 57
Slowest flit = 6681
Fragmentation average = 0
	minimum = 0
	maximum = 0
Injected packet rate average = 0.009675
	minimum = 0.0074 (at node 13)
	maximum = 0.0124 (at node 0)
Accepted packet rate average = 0.0097
	minimum = 0.0074 (at node 7)
	maximum = 0.0124 (at node 0)
Injected flit rate average = 0.009675
	minimum = 0.0074 (at node 13)
	maximum = 0.0124 (at node 0)
Accepted flit rate average= 0.0097
	minimum = 0.0074 (at node 7)
	maximum = 0.0124 (at node 0)
Injected packet length average = 1
Accepted packet length average = 1
Total in-flight flits = 1 (1 measured)
latency change    = 0.000836534
throughput change = 0.0302835
Draining all recorded packets ...
Draining remaining packets ...
Time taken is 8046 cycles
Class 0:
Packet latency average = 19.6962
	minimum = 7
	maximum = 46
Network latency average = 19.6962
	minimum = 7
	maximum = 46
Slowest packet = 6903
Flit latency average = 19.6962
	minimum = 7
	maximum = 46
Slowest flit = 6903
Fragmentation average = 0
	minimum = 0
	maximum = 0
Injected packet rate average = 0.0100625
	minimum = 0.004 (at node 0)
	maximum = 0.016 (at node 8)
Accepted packet rate average = 0.009875
	minimum = 0.004 (at node 0)
	maximum = 0.016 (at node 2)
Injected flit rate average = 0.0100625
	minimum = 0.004 (at node 0)
	maximum = 0.016 (at node 8)
Accepted flit rate average= 0.009875
	minimum = 0.004 (at node 0)
	maximum = 0.016 (at node 2)
Injected packet length average = 1
Accepted packet length average = 1
Total in-flight flits = 3 (0 measured)
latency change    = 1
throughput change = 1
Class 0:
Packet latency average = 19.6394
	minimum = 7
	maximum = 46
Network latency average = 19.6394
	minimum = 7
	maximum = 46
Slowest packet = 6903
Flit latency average = 19.6394
	minimum = 7
	maximum = 46
Slowest flit = 6903
Fragmentation average = 0
	minimum = 0
	maximum = 0
Injected packet rate average = 0.0104375
	minimum = 0.0065 (at node 0)
	maximum = 0.0155 (at node 8)
Accepted packet rate average = 0.0103125
	minimum = 0.0065 (at node 0)
	maximum = 0.0155 (at node 2)
Injected flit rate average = 0.0104375
	minimum = 0.0065 (at node 0)
	maximum = 0.0155 (at node 8)
Accepted flit rate average= 0.0103125
	minimum = 0.0065 (at node 0)
	maximum = 0.0155 (at node 2)
Injected packet length average = 1
Accepted packet length average = 1
Total in-flight flits = 4 (0 measured)
latency change    = 0.00289258
throughput change = 0.0424242
Class 0:
Packet latency average = 18.6828
	minimum = 7
	maximum = 39
Network latency average = 18.6828
	minimum = 7
	maximum = 39
Slowest packet = 7180
Flit latency average = 18.6828
	minimum = 7
	maximum = 39
Slowest flit = 7180
Fragmentation average = 0
	minimum = 0
	maximum = 0
Injected packet rate average = 0.009125
	minimum = 0.004 (at node 2)
	maximum = 0.017 (at node 4)
Accepted packet rate average = 0.0090625
	minimum = 0.004 (at node 2)
	maximum = 0.016 (at node 1)
Injected flit rate average = 0.009125
	minimum = 0.004 (at node 2)
	maximum = 0.017 (at node 4)
Accepted flit rate average= 0.0090625
	minimum = 0.004 (at node 2)
	maximum = 0.016 (at node 1)
Injected packet length average = 1
Accepted packet length average = 1
Total in-flight flits = 5 (0 measured)
latency change    = 0.0512042
throughput change = 0.137931
Warmed up ...Time used is 3000 cycles
Class 0:
Packet latency average = 19.4667
	minimum = 7
	maximum = 37
Network latency average = 19.4667
	minimum = 7
	maximum = 37
Slowest packet = 7243
Flit latency average = 19.5806
	minimum = 7
	maximum = 37
Slowest flit = 7230
Fragmentation average = 0
	minimum = 0
	maximum = 0
Injected packet rate average = 0.0095
	minimum = 0.004 (at node 7)
	maximum = 0.016 (at node 13)
Accepted packet rate average = 0.0096875
	minimum = 0.004 (at node 13)
	maximum = 0.016 (at node 7)
Injected flit rate average = 0.0095
	minimum = 0.004 (at node 7)
	maximum = 0.016 (at node 13)
Accepted flit rate average= 0.0096875
	minimum = 0.004 (at node 13)
	maximum = 0.016 (at node 7)
Injected packet length average = 1
Accepted packet length average = 1
Total in-flight flits = 2 (2 measured)
latency change    = 0.0402692
throughput change = 0.0645161
Class 0:
Packet latency average = 19.6054
	minimum = 7
	maximum = 46
Network latency average = 19.6054
	minimum = 7
	maximum = 46
Slowest packet = 7408
Flit latency average = 19.6612
	minimum = 7
	maximum = 46
Slowest flit = 7408
Fragmentation average = 0
	minimum = 0
	maximum = 0
Injected packet rate average = 0.0094375
	minimum = 0.006 (at node 11)
	maximum = 0.012 (at node 0)
Accepted packet rate average = 0.0095
	minimum = 0.0065 (at node 14)
	maximum = 0.0125 (at node 3)
Injected flit rate average = 0.0094375
	minimum = 0.006 (at node 11)
	maximum = 0.012 (at node 0)
Accepted flit rate average= 0.0095
	minimum = 0.0065 (at node 14)
	maximum = 0.0125 (at node 3)
Injected packet length average = 1
Accepted packet length average = 1
Total in-flight flits = 3 (3 measured)
latency change    = 0.00707381
throughput change = 0.0197368
Class 0:
Packet latency average = 19.875
	minimum = 7
	maximum = 46
Network latency average = 19.875
	minimum = 7
	maximum = 46
Slowest packet = 7408
Flit latency average = 19.9072
	minimum = 7
	maximum = 46
Slowest flit = 7408
Fragmentation average = 0
	minimum = 0
	maximum = 0
Injected packet rate average = 0.0100833
	minimum = 0.007 (at node 11)
	maximum = 0.0133333 (at node 12)
Accepted packet rate average = 0.0101042
	minimum = 0.007 (at node 14)
	maximum = 0.0136667 (at node 3)
Injected flit rate average = 0.0100833
	minimum = 0.007 (at node 11)
	maximum = 0.0133333 (at node 12)
Accepted flit rate average= 0.0101042
	minimum = 0.007 (at node 14)
	maximum = 0.0136667 (at node 3)
Injected packet length average = 1
Accepted packet length average = 1
Total in-flight flits = 4 (4 measured)
latency change    = 0.0135672
throughput change = 0.0597938
Class 0:
Packet latency average = 19.6336
	minimum = 7
	maximum = 46
Network latency average = 19.6336
	minimum = 7
	maximum = 46
Slowest packet = 7408
Flit latency average = 19.6603
	minimum = 7
	maximum = 46
Slowest flit = 7408
Fragmentation average = 0
	minimum = 0
	maximum = 0
Injected packet rate average = 0.00978125
	minimum = 0.00725 (at node 8)
	maximum = 0.0125 (at node 12)
Accepted packet rate average = 0.00984375
	minimum = 0.00725 (at node 2)
	maximum = 0.01275 (at node 3)
Injected flit rate average = 0.00978125
	minimum = 0.00725 (at node 8)
	maximum = 0.0125 (at node 12)
Accepted flit rate average= 0.00984375
	minimum = 0.00725 (at node 2)
	maximum = 0.01275 (at node 3)
Injected packet length average = 1
Accepted packet length average = 1
Total in-flight flits = 1 (1 measured)
latency change    = 0.0122952
throughput change = 0.026455
Class 0:
Packet latency average = 19.6065
	minimum = 7
	maximum = 50
Network latency average = 19.6065
	minimum = 7
	maximum = 50
Slowest packet = 8012
Flit latency average = 19.6276
	minimum = 7
	maximum = 50
Slowest flit = 8012
Fragmentation average = 0
	minimum = 0
	maximum = 0
Injected packet rate average = 0.0100125
	minimum = 0.0074 (at node 8)
	maximum = 0.0122 (at node 4)
Accepted packet rate average = 0.0100375
	minimum = 0.0074 (at node 2)
	maximum = 0.0124 (at node 1)
Injected flit rate average = 0.0100125
	minimum = 0.0074 (at node 8)
	maximum = 0.0122 (at node 4)
Accepted flit rate average= 0.0100375
	minimum = 0.0074 (at node 2)
	maximum = 0.0124 (at node 1)
Injected packet length average = 1
Accepted packet length average = 1
Total in-flight flits = 3 (3 measured)
latency change    = 0.00138136
throughput change = 0.0193026
Class 0:
Packet latency average = 19.4995
	minimum = 7
	maximum = 50
Network latency average = 19.4995
	minimum = 7
	maximum = 50
Slowest packet = 8012
Flit latency average = 19.5176
	minimum = 7
	maximum = 50
Slowest flit = 8012
Fragmentation average = 0
	minimum = 0
	maximum = 0
Injected packet rate average = 0.0100417
	minimum = 0.0075 (at node 8)
	maximum = 0.0128333 (at node 4)
Accepted packet rate average = 0.0100833
	minimum = 0.0075 (at node 2)
	maximum = 0.013 (at node 1)
Injected flit rate average = 0.0100417
	minimum = 0.0075 (at node 8)
	maximum = 0.0128333 (at node 4)
Accepted flit rate average= 0.0100833
	minimum = 0.0075 (at node 2)
	maximum = 0.013 (at node 1)
Injected packet length average = 1
Accepted packet length average = 1
Total in-flight flits = 1 (1 measured)
latency change    = 0.00548915
throughput change = 0.00454545
Draining all recorded packets ...
Draining remaining packets ...
Time taken is 9010 cycles
Class 0:
Packet latency average = 19.0946
	minimum = 7
	maximum = 41
Network latency average = 19.0946
	minimum = 7
	maximum = 41
Slowest packet = 8283
Flit latency average = 19.0946
	minimum = 7
	maximum = 41
Slowest flit = 8283
Fragmentation average = 0
	minimum = 0
	maximum = 0
Injected packet rate average = 0.0095
	minimum = 0.003 (at node 11)
	maximum = 0.015 (at node 4)
Accepted packet rate average = 0.00925
	minimum = 0.003 (at node 14)
	maximum = 0.015 (at node 1)
Injected flit rate average = 0.0095
	minimum = 0.003 (at node 11)
	maximum = 0.015 (at node 4)
Accepted flit rate average= 0.00925
	minimum = 0.003 (at node 14)
	maximum = 0.015 (at node 1)
Injected packet length average = 1
Accepted packet length average = 1
Total in-flight flits = 4 (0 measured)
latency change    = 1
throughput change = 1
Class 0:
Packet latency average = 19.5327
	minimum = 7
	maximum = 51
Network latency average = 19.5327
	minimum = 7
	maximum = 51
Slowest packet = 8358
Flit latency average = 19.5327
	minimum = 7
	maximum = 51
Slowest flit = 8358
Fragmentation average = 0
	minimum = 0
	maximum = 0
Injected packet rate average = 0.00965625
	minimum = 0.005 (at node 11)
	maximum = 0.0135 (at node 8)
Accepted packet rate average = 0.0095625
	minimum = 0.005 (at node 14)
	maximum = 0.013 (at node 2)
Injected flit rate average = 0.00965625
	minimum = 0.005 (at node 11)
	maximum = 0.0135 (at node 8)
Accepted flit rate average= 0.0095625
	minimum = 0.005 (at node 14)
	maximum = 0.013 (at node 2)
Injected packet length average = 1
Accepted packet length average = 1
Total in-flight flits = 3 (0 measured)
latency change    = 0.0224283
throughput change = 0.0326797
Class 0:
Packet latency average = 21.5436
	minimum = 7
	maximum = 46
Network latency average = 21.5436
	minimum = 7
	maximum = 46
Slowest packet = 8518
Flit latency average = 21.5436
	minimum = 7
	maximum = 46
Slowest flit = 8518
Fragmentation average = 0
	minimum = 0
	maximum = 0
Injected packet rate average = 0.00925
	minimum = 0.003 (at node 10)
	maximum = 0.02 (at node 12)
Accepted packet rate average = 0.0093125
	minimum = 0.003 (at node 10)
	maximum = 0.021 (at node 3)
Injected flit rate average = 0.00925
	minimum = 0.003 (at node 10)
	maximum = 0.02 (at node 12)
Accepted flit rate average= 0.0093125
	minimum = 0.003 (at node 10)
	maximum = 0.021 (at node 3)
Injected packet length average = 1
Accepted packet length average = 1
Total in-flight flits = 2 (0 measured)
latency change    = 0.0933429
throughput change = 0.0268456
Warmed up ...Time used is 3000 cycles
Class 0:
Packet latency average = 20.383
	minimum = 7
	maximum = 37
Network latency average = 20.383
	minimum = 7
	maximum = 37
Slowest packet = 8662
Flit latency average = 20.4755
	minimum = 7
	maximum = 37
Slowest flit = 8659
Fragmentation average = 0
	minimum = 0
	maximum = 0
Injected packet rate average = 0.0090625
	minimum = 0.005 (at node 1)
	maximum = 0.013 (at node 0)
Accepted packet rate average = 0.0089375
	minimum = 0.005 (at node 1)
	maximum = 0.013 (at node 0)
Injected flit rate average = 0.0090625
	minimum = 0.005 (at node 1)
	maximum = 0.013 (at node 0)
Accepted flit rate average= 0.0089375
	minimum = 0.005 (at node 1)
	maximum = 0.013 (at node 0)
Injected packet length average = 1
Accepted packet length average = 1
Total in-flight flits = 4 (4 measured)
latency change    = 0.0569419
throughput change = 0.041958
Class 0:
Packet latency average = 20.8188
	minimum = 7
	maximum = 44
Network latency average = 20.8188
	minimum = 7
	maximum = 44
Slowest packet = 8926
Flit latency average = 20.8585
	minimum = 7
	maximum = 44
Slowest flit = 8926
Fragmentation average = 0
	minimum = 0
	maximum = 0
Injected packet rate average = 0.00978125
	minimum = 0.007 (at node 15)
	maximum = 0.014 (at node 13)
Accepted packet rate average = 0.00971875
	minimum = 0.007 (at node 15)
	maximum = 0.0135 (at node 7)
Injected flit rate average = 0.00978125
	minimum = 0.007 (at node 15)
	maximum = 0.014 (at node 13)
Accepted flit rate average= 0.00971875
	minimum = 0.007 (at node 15)
	maximum = 0.0135 (at node 7)
Injected packet length average = 1
Accepted packet length average = 1
Total in-flight flits = 4 (4 measured)
latency change    = 0.0209326
throughput change = 0.0803859
Class 0:
Packet latency average = 20.7901
	minimum = 7
	maximum = 46
Network latency average = 20.7901
	minimum = 7
	maximum = 46
Slowest packet = 9073
Flit latency average = 20.8166
	minimum = 7
	maximum = 46
Slowest flit = 9073
Fragmentation average = 0
	minimum = 0
	maximum = 0
Injected packet rate average = 0.0098125
	minimum = 0.00666667 (at node 1)
	maximum = 0.015 (at node 13)
Accepted packet rate average = 0.00977083
	minimum = 0.00666667 (at node 4)
	maximum = 0.0146667 (at node 7)
Injected flit rate average = 0.0098125
	minimum = 0.00666667 (at node 1)
	maximum = 0.015 (at node 13)
Accepted flit rate average= 0.00977083
	minimum = 0.00666667 (at node 4)
	maximum = 0.0146667 (at node 7)
Injected packet length average = 1
Accepted packet length average = 1
Total in-flight flits = 4 (4 measured)
latency change    = 0.00137663
throughput change = 0.00533049
Class 0:
Packet latency average = 20.433
	minimum = 7
	maximum = 47
Network latency average = 20.433
	minimum = 7
	maximum = 47
Slowest packet = 9248
Flit latency average = 20.4534
	minimum = 7
	maximum = 47
Slowest flit = 9248
Fragmentation average = 0
	minimum = 0
	maximum = 0
Injected packet rate average = 0.0100781
	minimum = 0.0075 (at node 1)
	maximum = 0.0135 (at node 13)
Accepted packet rate average = 0.0100625
	minimum = 0.0075 (at node 4)
	maximum = 0.01325 (at node 7)
Injected flit rate average = 0.0100781
	minimum = 0.0075 (at node 1)
	maximum = 0.0135 (at node 13)
Accepted flit rate average= 0.0100625
	minimum = 0.0075 (at node 4)
	maximum = 0.01325 (at node 7)
Injected packet length average = 1
Accepted packet length average = 1
Total in-flight flits = 3 (3 measured)
latency change    = 0.017478
throughput change = 0.0289855
Class 0:
Packet latency average = 20.2132
	minimum = 7
	maximum = 47
Network latency average = 20.2132
	minimum = 7
	maximum = 47
Slowest packet = 9248
Flit latency average = 20.2304
	minimum = 7
	maximum = 47
Slowest flit = 9248
Fragmentation average = 0
	minimum = 0
	maximum = 0
Injected packet rate average = 0.009875
	minimum = 0.007 (at node 1)
	maximum = 0.013 (at node 13)
Accepted packet rate average = 0.009875
	minimum = 0.007 (at node 4)
	maximum = 0.013 (at node 7)
Injected flit rate average = 0.009875
	minimum = 0.007 (at node 1)
	maximum = 0.013 (at node 13)
Accepted flit rate average= 0.009875
	minimum = 0.007 (at node 4)
	maximum = 0.013 (at node 7)
Injected packet length average = 1
Accepted packet length average = 1
Total in-flight flits = 2 (2 measured)
latency change    = 0.0108753
throughput change = 0.0189873
Draining all recorded packets ...
Draining remaining packets ...
Time taken is 8042 cycles
Class 0:
Packet latency average = 20.3841
	minimum = 7
	maximum = 40
Network latency average = 20.3841
	minimum = 7
	maximum = 40
Slowest packet = 9464
Flit latency average = 20.3841
	minimum = 7
	maximum = 40
Slowest flit = 9464
Fragmentation average = 0
	minimum = 0
	maximum = 0
Injected packet rate average = 0.009625
	minimum = 0.003 (at node 10)
	maximum = 0.014 (at node 1)
Accepted packet rate average = 0.0094375
	minimum = 0.003 (at node 10)
	maximum = 0.014 (at node 12)
Injected flit rate average = 0.009625
	minimum = 0.003 (at node 10)
	maximum = 0.014 (at node 1)
Accepted flit rate average= 0.0094375
	minimum = 0.003 (at node 10)
	maximum = 0.014 (at node 12)
Injected packet length average = 1
Accepted packet length average = 1
Total in-flight flits = 3 (0 measured)
latency change    = 1
throughput change = 1
Class 0:
Packet latency average = 19.6019
	minimum = 7
	maximum = 40
Network latency average = 19.6019
	minimum = 7
	maximum = 40
Slowest packet = 9464
Flit latency average = 19.6019
	minimum = 7
	maximum = 40
Slowest flit = 9464
Fragmentation average = 0
	minimum = 0
	maximum = 0
Injected packet rate average = 0.0101875
	minimum = 0.007 (at node 13)
	maximum = 0.0145 (at node 9)
Accepted packet rate average = 0.00996875
	minimum = 0.007 (at node 7)
	maximum = 0.0145 (at node 6)
Injected flit rate average = 0.0101875
	minimum = 0.007 (at node 13)
	maximum = 0.0145 (at node 9)
Accepted flit rate average= 0.00996875
	minimum = 0.007 (at node 7)
	maximum = 0.0145 (at node 6)
Injected packet length average = 1
Accepted packet length average = 1
Total in-flight flits = 7 (0 measured)
latency change    = 0.0399056
throughput change = 0.0532915
Class 0:
Packet latency average = 19.0676
	minimum = 7
	maximum = 41
Network latency average = 19.0676
	minimum = 7
	maximum = 41
Slowest packet = 9858
Flit latency average = 19.0676
	minimum = 7
	maximum = 41
Slowest flit = 9858
Fragmentation average = 0
	minimum = 0
	maximum = 0
Injected packet rate average = 0.009125
	minimum = 0.006 (at node 6)
	maximum = 0.013 (at node 0)
Accepted packet rate average = 0.00925
	minimum = 0.006 (at node 6)
	maximum = 0.014 (at node 0)
Injected flit rate average = 0.009125
	minimum = 0.006 (at node 6)
	maximum = 0.013 (at node 0)
Accepted flit rate average= 0.00925
	minimum = 0.006 (at node 6)
	maximum = 0.014 (at node 0)
Injected packet length average = 1
Accepted packet length average = 1
Total in-flight flits = 5 (0 measured)
latency change    = 0.0280221
throughput change = 0.0777027
Warmed up ...Time used is 3000 cycles
Class 0:
Packet latency average = 20.5347
	minimum = 7
	maximum = 43
Network latency average = 20.5347
	minimum = 7
	maximum = 43
Slowest packet = 9970
Flit latency average = 20.5503
	minimum = 7
	maximum = 43
Slowest flit = 9970
Fragmentation average = 0
	minimum = 0
	maximum = 0
Injected packet rate average = 0.0091875
	minimum = 0.006 (at node 0)
	maximum = 0.013 (at node 2)
Accepted packet rate average = 0.0093125
	minimum = 0.005 (at node 0)
	maximum = 0.015 (at node 1)
Injected flit rate average = 0.0091875
	minimum = 0.006 (at node 0)
	maximum = 0.013 (at node 2)
Accepted flit rate average= 0.0093125
	minimum = 0.005 (at node 0)
	maximum = 0.015 (at node 1)
Injected packet length average = 1
Accepted packet length average = 1
Total in-flight flits = 3 (3 measured)
latency change    = 0.0714475
throughput change = 0.00671141
Class 0:
Packet latency average = 19.8639
	minimum = 7
	maximum = 43
Network latency average = 19.8639
	minimum = 7
	maximum = 43
Slowest packet = 9970
Flit latency average = 19.8829
	minimum = 7
	maximum = 43
Slowest flit = 9970
Fragmentation average = 0
	minimum = 0
	maximum = 0
Injected packet rate average = 0.00928125
	minimum = 0.0055 (at node 0)
	maximum = 0.0135 (at node 4)
Accepted packet rate average = 0.00934375
	minimum = 0.0055 (at node 0)
	maximum = 0.0145 (at node 1)
Injected flit rate average = 0.00928125
	minimum = 0.0055 (at node 0)
	maximum = 0.0135 (at node 4)
Accepted flit rate average= 0.00934375
	minimum = 0.0055 (at node 0)
	maximum = 0.0145 (at node 1)
Injected packet length average = 1
Accepted packet length average = 1
Total in-flight flits = 3 (3 measured)
latency change    = 0.0337686
throughput change = 0.00334448
Class 0:
Packet latency average = 19.7947
	minimum = 7
	maximum = 43
Network latency average = 19.7947
	minimum = 7
	maximum = 43
Slowest packet = 9970
Flit latency average = 19.8079
	minimum = 7
	maximum = 43
Slowest flit = 9970
Fragmentation average = 0
	minimum = 0
	maximum = 0
Injected packet rate average = 0.0095
	minimum = 0.006 (at node 15)
	maximum = 0.014 (at node 4)
Accepted packet rate average = 0.00954167
	minimum = 0.006 (at node 15)
	maximum = 0.0146667 (at node 1)
Injected flit rate average = 0.0095
	minimum = 0.006 (at node 15)
	maximum = 0.014 (at node 4)
Accepted flit rate average= 0.00954167
	minimum = 0.006 (at node 15)
	maximum = 0.0146667 (at node 1)
Injected packet length average = 1
Accepted packet length average = 1
Total in-flight flits = 3 (3 measured)
latency change    = 0.00349809
throughput change = 0.0207424
Class 0:
Packet latency average = 19.9571
	minimum = 7
	maximum = 43
Network latency average = 19.9571
	minimum = 7
	maximum = 43
Slowest packet = 9970
Flit latency average = 19.9654
	minimum = 7
	maximum = 43
Slowest flit = 9970
Fragmentation average = 0
	minimum = 0
	maximum = 0
Injected packet rate average = 0.00990625
	minimum = 0.0065 (at node 15)
	maximum = 0.01275 (at node 9)
Accepted packet rate average = 0.00992188
	minimum = 0.0065 (at node 15)
	maximum = 0.01275 (at node 1)
Injected flit rate average = 0.00990625
	minimum = 0.0065 (at node 15)
	maximum = 0.01275 (at node 9)
Accepted flit rate average= 0.00992188
	minimum = 0.0065 (at node 15)
	maximum = 0.01275 (at node 1)
Injected packet length average = 1
Accepted packet length average = 1
Total in-flight flits = 4 (4 measured)
latency change    = 0.00813949
throughput change = 0.0383202
Draining all recorded packets ...
Draining remaining packets ...
Time taken is 7030 cycles
Class 0:
Packet latency average = 19.1195
	minimum = 7
	maximum = 41
Network latency average = 19.1195
	minimum = 7
	maximum = 41
Slowest packet = 10576
Flit latency average = 19.1195
	minimum = 7
	maximum = 41
Slowest flit = 10576
Fragmentation average = 0
	minimum = 0
	maximum = 0
Injected packet rate average = 0.01
	minimum = 0.002 (at node 2)
	maximum = 0.014 (at node 15)
Accepted packet rate average = 0.0099375
	minimum = 0.002 (at node 8)
	maximum = 0.014 (at node 15)
Injected flit rate average = 0.01
	minimum = 0.002 (at node 2)
	maximum = 0.014 (at node 15)
Accepted flit rate average= 0.0099375
	minimum = 0.002 (at node 8)
	maximum = 0.014 (at node 15)
Injected packet length average = 1
Accepted packet length average = 1
Total in-flight flits = 1 (0 measured)
latency change    = 1
throughput change = 1
Class 0:
Packet latency average = 20.0547
	minimum = 7
	maximum = 45
Network latency average = 20.0547
	minimum = 7
	maximum = 45
Slowest packet = 10726
Flit latency average = 20.0547
	minimum = 7
	maximum = 45
Slowest flit = 10726
Fragmentation average = 0
	minimum = 0
	maximum = 0
Injected packet rate average = 0.0104688
	minimum = 0.0045 (at node 2)
	maximum = 0.0155 (at node 6)
Accepted packet rate average = 0.0102813
	minimum = 0.0045 (at node 8)
	maximum = 0.015 (at node 9)
Injected flit rate average = 0.0104688
	minimum = 0.0045 (at node 2)
	maximum = 0.0155 (at node 6)
Accepted flit rate average= 0.0102813
	minimum = 0.0045 (at node 8)
	maximum = 0.015 (at node 9)
Injected packet length average = 1
Accepted packet length average = 1
Total in-flight flits = 6 (0 measured)
latency change    = 0.0466332
throughput change = 0.0334347
Class 0:
Packet latency average = 20.2917
	minimum = 7
	maximum = 42
Network latency average = 20.2917
	minimum = 7
	maximum = 42
Slowest packet = 10952
Flit latency average = 20.2917
	minimum = 7
	maximum = 42
Slowest flit = 10952
Fragmentation average = 0
	minimum = 0
	maximum = 0
Injected packet rate average = 0.010375
	minimum = 0.005 (at node 0)
	maximum = 0.017 (at node 11)
Accepted packet rate average = 0.0105
	minimum = 0.005 (at node 0)
	maximum = 0.017 (at node 14)
Injected flit rate average = 0.010375
	minimum = 0.005 (at node 0)
	maximum = 0.017 (at node 11)
Accepted flit rate average= 0.0105
	minimum = 0.005 (at node 0)
	maximum = 0.017 (at node 14)
Injected packet length average = 1
Accepted packet length average = 1
Total in-flight flits = 4 (0 measured)
latency change    = 0.0116775
throughput change = 0.0208333
Warmed up ...Time used is 3000 cycles
Class 0:
Packet latency average = 19.6591
	minimum = 7
	maximum = 51
Network latency average = 19.6591
	minimum = 7
	maximum = 51
Slowest packet = 11222
Flit latency average = 19.8778
	minimum = 7
	maximum = 51
Slowest flit = 11222
Fragmentation average = 0
	minimum = 0
	maximum = 0
Injected packet rate average = 0.01125
	minimum = 0.006 (at node 8)
	maximum = 0.019 (at node 4)
Accepted packet rate average = 0.01125
	minimum = 0.006 (at node 2)
	maximum = 0.019 (at node 1)
Injected flit rate average = 0.01125
	minimum = 0.006 (at node 8)
	maximum = 0.019 (at node 4)
Accepted flit rate average= 0.01125
	minimum = 0.006 (at node 2)
	maximum = 0.019 (at node 1)
Injected packet length average = 1
Accepted packet length average = 1
Total in-flight flits = 4 (4 measured)
latency change    = 0.0321773
throughput change = 0.0666667
Class 0:
Packet latency average = 19.5452
	minimum = 7
	maximum = 51
Network latency average = 19.5452
	minimum = 7
	maximum = 51
Slowest packet = 11222
Flit latency average = 19.6637
	minimum = 7
	maximum = 51
Slowest flit = 11222
Fragmentation average = 0
	minimum = 0
	maximum = 0
Injected packet rate average = 0.0104688
	minimum = 0.006 (at node 5)
	maximum = 0.015 (at node 4)
Accepted packet rate average = 0.0105
	minimum = 0.006 (at node 2)
	maximum = 0.015 (at node 1)
Injected flit rate average = 0.0104688
	minimum = 0.006 (at node 5)
	maximum = 0.015 (at node 4)
Accepted flit rate average= 0.0105
	minimum = 0.006 (at node 2)
	maximum = 0.015 (at node 1)
Injected packet length average = 1
Accepted packet length average = 1
Total in-flight flits = 3 (3 measured)
latency change    = 0.00582804
throughput change = 0.0714286
Class 0:
Packet latency average = 19.8996
	minimum = 7
	maximum = 51
Network latency average = 19.8996
	minimum = 7
	maximum = 51
Slowest packet = 11222
Flit latency average = 19.9809
	minimum = 7
	maximum = 51
Slowest flit = 11222
Fragmentation average = 0
	minimum = 0
	maximum = 0
Injected packet rate average = 0.00977083
	minimum = 0.00566667 (at node 5)
	maximum = 0.0133333 (at node 3)
Accepted packet rate average = 0.00983333
	minimum = 0.00566667 (at node 5)
	maximum = 0.0136667 (at node 12)
Injected flit rate average = 0.00977083
	minimum = 0.00566667 (at node 5)
	maximum = 0.0133333 (at node 3)
Accepted flit rate average= 0.00983333
	minimum = 0.00566667 (at node 5)
	maximum = 0.0136667 (at node 12)
Injected packet length average = 1
Accepted packet length average = 1
Total in-flight flits = 1 (1 measured)
latency change    = 0.017809
throughput change = 0.0677966
Class 0:
Packet latency average = 19.8594
	minimum = 7
	maximum = 51
Network latency average = 19.8594
	minimum = 7
	maximum = 51
Slowest packet = 11222
Flit latency average = 19.9199
	minimum = 7
	maximum = 51
Slowest flit = 11222
Fragmentation average = 0
	minimum = 0
	maximum = 0
Injected packet rate average = 0.01
	minimum = 0.00775 (at node 5)
	maximum = 0.01275 (at node 3)
Accepted packet rate average = 0.00995313
	minimum = 0.00775 (at node 5)
	maximum = 0.01275 (at node 12)
Injected flit rate average = 0.01
	minimum = 0.00775 (at node 5)
	maximum = 0.01275 (at node 3)
Accepted flit rate average= 0.00995313
	minimum = 0.00775 (at node 5)
	maximum = 0.01275 (at node 12)
Injected packet length average = 1
Accepted packet length average = 1
Total in-flight flits = 7 (7 measured)
latency change    = 0.00202287
throughput change = 0.0120356
Class 0:
Packet latency average = 19.9823
	minimum = 7
	maximum = 51
Network latency average = 19.9823
	minimum = 7
	maximum = 51
Slowest packet = 11222
Flit latency average = 20.0302
	minimum = 7
	maximum = 51
Slowest flit = 11222
Fragmentation average = 0
	minimum = 0
	maximum = 0
Injected packet rate average = 0.0099375
	minimum = 0.0074 (at node 5)
	maximum = 0.012 (at node 3)
Accepted packet rate average = 0.0099375
	minimum = 0.0074 (at node 5)
	maximum = 0.0122 (at node 12)
Injected flit rate average = 0.0099375
	minimum = 0.0074 (at node 5)
	maximum = 0.012 (at node 3)
Accepted flit rate average= 0.0099375
	minimum = 0.0074 (at node 5)
	maximum = 0.0122 (at node 12)
Injected packet length average = 1
Accepted packet length average = 1
Total in-flight flits = 4 (4 measured)
latency change    = 0.0061505
throughput change = 0.00157233
Class 0:
Packet latency average = 19.9139
	minimum = 7
	maximum = 51
Network latency average = 19.9139
	minimum = 7
	maximum = 51
Slowest packet = 11222
Flit latency average = 19.9535
	minimum = 7
	maximum = 51
Slowest flit = 11222
Fragmentation average = 0
	minimum = 0
	maximum = 0
Injected packet rate average = 0.0100729
	minimum = 0.008 (at node 2)
	maximum = 0.0121667 (at node 12)
Accepted packet rate average = 0.0100833
	minimum = 0.008 (at node 8)
	maximum = 0.0121667 (at node 3)
Injected flit rate average = 0.0100729
	minimum = 0.008 (at node 2)
	maximum = 0.0121667 (at node 12)
Accepted flit rate average= 0.0100833
	minimum = 0.008 (at node 8)
	maximum = 0.0121667 (at node 3)
Injected packet length average = 1
Accepted packet length average = 1
Total in-flight flits = 3 (3 measured)
latency change    = 0.00343481
throughput change = 0.0144628
Draining all recorded packets ...
Draining remaining packets ...
Time taken is 9046 cycles
Class 0:
Packet latency average = 18.5394
	minimum = 7
	maximum = 41
Network latency average = 18.5394
	minimum = 7
	maximum = 41
Slowest packet = 12136
Flit latency average = 18.5394
	minimum = 7
	maximum = 41
Slowest flit = 12136
Fragmentation average = 0
	minimum = 0
	maximum = 0
Injected packet rate average = 0.010375
	minimum = 0.004 (at node 6)
	maximum = 0.017 (at node 1)
Accepted packet rate average = 0.0103125
	minimum = 0.004 (at node 9)
	maximum = 0.017 (at node 4)
Injected flit rate average = 0.010375
	minimum = 0.004 (at node 6)
	maximum = 0.017 (at node 1)
Accepted flit rate average= 0.0103125
	minimum = 0.004 (at node 9)
	maximum = 0.017 (at node 4)
Injected packet length average = 1
Accepted packet length average = 1
Total in-flight flits = 1 (0 measured)
latency change    = 1
throughput change = 1
Class 0:
Packet latency average = 19.1844
	minimum = 7
	maximum = 41
Network latency average = 19.1844
	minimum = 7
	maximum = 41
Slowest packet = 12136
Flit latency average = 19.1844
	minimum = 7
	maximum = 41
Slowest flit = 12136
Fragmentation average = 0
	minimum = 0
	maximum = 0
Injected packet rate average = 0.0101563
	minimum = 0.007 (at node 6)
	maximum = 0.0145 (at node 7)
Accepted packet rate average = 0.01
	minimum = 0.007 (at node 9)
	maximum = 0.0135 (at node 13)
Injected flit rate average = 0.0101563
	minimum = 0.007 (at node 6)
	maximum = 0.0145 (at node 7)
Accepted flit rate average= 0.01
	minimum = 0.007 (at node 9)
	maximum = 0.0135 (at node 13)
Injected packet length average = 1
Accepted packet length average = 1
Total in-flight flits = 5 (0 measured)
latency change    = 0.0336201
throughput change = 0.03125
Class 0:
Packet latency average = 19.05
	minimum = 7
	maximum = 37
Network latency average = 19.05
	minimum = 7
	maximum = 37
Slowest packet = 12361
Flit latency average = 19.05
	minimum = 7
	maximum = 37
Slowest flit = 12361
Fragmentation average = 0
	minimum = 0
	maximum = 0
Injected packet rate average = 0.0098125
	minimum = 0.003 (at node 6)
	maximum = 0.016 (at node 0)
Accepted packet rate average = 0.01
	minimum = 0.003 (at node 9)
	maximum = 0.016 (at node 0)
Injected flit rate average = 0.0098125
	minimum = 0.003 (at node 6)
	maximum = 0.016 (at node 0)
Accepted flit rate average= 0.01
	minimum = 0.003 (at node 9)
	maximum = 0.016 (at node 0)
Injected packet length average = 1
Accepted packet length average = 1
Total in-flight flits = 2 (0 measured)
latency change    = 0.00705381
throughput change = 0
Warmed up ...Time used is 3000 cycles
Class 0:
Packet latency average = 18.6818
	minimum = 7
	maximum = 38
Network latency average = 18.6818
	minimum = 7
	maximum = 38
Slowest packet = 12523
Flit latency average = 18.7244
	minimum = 7
	maximum = 38
Slowest flit = 12523
Fragmentation average = 0
	minimum = 0
	maximum = 0
Injected packet rate average = 0.0096875
	minimum = 0.004 (at node 3)
	maximum = 0.014 (at node 1)
Accepted packet rate average = 0.00975
	minimum = 0.004 (at node 12)
	maximum = 0.015 (at node 2)
Injected flit rate average = 0.0096875
	minimum = 0.004 (at node 3)
	maximum = 0.014 (at node 1)
Accepted flit rate average= 0.00975
	minimum = 0.004 (at node 12)
	maximum = 0.015 (at node 2)
Injected packet length average = 1
Accepted packet length average = 1
Total in-flight flits = 1 (1 measured)
latency change    = 0.019708
throughput change = 0.025641
Class 0:
Packet latency average = 19.3312
	minimum = 7
	maximum = 44
Network latency average = 19.3312
	minimum = 7
	maximum = 44
Slowest packet = 12777
Flit latency average = 19.3484
	minimum = 7
	maximum = 44
Slowest flit = 12777
Fragmentation average = 0
	minimum = 0
	maximum = 0
Injected packet rate average = 0.00971875
	minimum = 0.006 (at node 3)
	maximum = 0.0135 (at node 8)
Accepted packet rate average = 0.0096875
	minimum = 0.006 (at node 12)
	maximum = 0.014 (at node 2)
Injected flit rate average = 0.00971875
	minimum = 0.006 (at node 3)
	maximum = 0.0135 (at node 8)
Accepted flit rate average= 0.0096875
	minimum = 0.006 (at node 12)
	maximum = 0.014 (at node 2)
Injected packet length average = 1
Accepted packet length average = 1
Total in-flight flits = 3 (3 measured)
latency change    = 0.0335909
throughput change = 0.00645161
Class 0:
Packet latency average = 19.688
	minimum = 7
	maximum = 45
Network latency average = 19.688
	minimum = 7
	maximum = 45
Slowest packet = 12895
Flit latency average = 19.6979
	minimum = 7
	maximum = 45
Slowest flit = 12895
Fragmentation average = 0
	minimum = 0
	maximum = 0
Injected packet rate average = 0.00983333
	minimum = 0.00633333 (at node 3)
	maximum = 0.0143333 (at node 8)
Accepted packet rate average = 0.00979167
	minimum = 0.00633333 (at node 6)
	maximum = 0.0143333 (at node 2)
Injected flit rate average = 0.00983333
	minimum = 0.00633333 (at node 3)
	maximum = 0.0143333 (at node 8)
Accepted flit rate average= 0.00979167
	minimum = 0.00633333 (at node 6)
	maximum = 0.0143333 (at node 2)
Injected packet length average = 1
Accepted packet length average = 1
Total in-flight flits = 4 (4 measured)
latency change    = 0.018126
throughput change = 0.0106383
Draining all recorded packets ...
Draining remaining packets ...
Time taken is 6043 cycles
Class 0:
Packet latency average = 20.1429
	minimum = 7
	maximum = 47
Network latency average = 20.1429
	minimum = 7
	maximum = 47
Slowest packet = 13032
Flit latency average = 20.1429
	minimum = 7
	maximum = 47
Slowest flit = 13032
Fragmentation average = 0
	minimum = 0
	maximum = 0
Injected packet rate average = 0.009625
	minimum = 0.003 (at node 12)
	maximum = 0.016 (at node 13)
Accepted packet rate average = 0.009625
	minimum = 0.003 (at node 3)
	maximum = 0.016 (at node 7)
Injected flit rate average = 0.009625
	minimum = 0.003 (at node 12)
	maximum = 0.016 (at node 13)
Accepted flit rate average= 0.009625
	minimum = 0.003 (at node 3)
	maximum = 0.016 (at node 7)
Injected packet length average = 1
Accepted packet length average = 1
Total in-flight flits = 0 (0 measured)
latency change    = 1
throughput change = 1
Class 0:
Packet latency average = 19.8289
	minimum = 7
	maximum = 47
Network latency average = 19.8289
	minimum = 7
	maximum = 47
Slowest packet = 13032
Flit latency average = 19.8289
	minimum = 7
	maximum = 47
Slowest flit = 13032
Fragmentation average = 0
	minimum = 0
	maximum = 0
Injected packet rate average = 0.0095
	minimum = 0.006 (at node 7)
	maximum = 0.0125 (at node 1)
Accepted packet rate average = 0.0095
	minimum = 0.006 (at node 13)
	maximum = 0.0125 (at node 4)
Injected flit rate average = 0.0095
	minimum = 0.006 (at node 7)
	maximum = 0.0125 (at node 1)
Accepted flit rate average= 0.0095
	minimum = 0.006 (at node 13)
	maximum = 0.0125 (at node 4)
Injected packet length average = 1
Accepted packet length average = 1
Total in-flight flits = 0 (0 measured)
latency change    = 0.0158309
throughput change = 0.0131579
Class 0:
Packet latency average = 17.9128
	minimum = 7
	maximum = 46
Network latency average = 17.9128
	minimum = 7
	maximum = 46
Slowest packet = 13329
Flit latency average = 17.9128
	minimum = 7
	maximum = 46
Slowest flit = 13329
Fragmentation average = 0
	minimum = 0
	maximum = 0
Injected packet rate average = 0.0109375
	minimum = 0.005 (at node 2)
	maximum = 0.018 (at node 4)
Accepted packet rate average = 0.01075
	minimum = 0.005 (at node 8)
	maximum = 0.018 (at node 1)
Injected flit rate average = 0.0109375
	minimum = 0.005 (at node 2)
	maximum = 0.018 (at node 4)
Accepted flit rate average= 0.01075
	minimum = 0.005 (at node 8)
	maximum = 0.018 (at node 1)
Injected packet length average = 1
Accepted packet length average = 1
Total in-flight flits = 3 (0 measured)
latency change    = 0.106971
throughput change = 0.116279
Warmed up ...Time used is 3000 cycles
Class 0:
Packet latency average = 18.35
	minimum = 7
	maximum = 43
Network latency average = 18.35
	minimum = 7
	maximum = 43
Slowest packet = 13585
Flit latency average = 18.3865
	minimum = 7
	maximum = 43
Slowest flit = 13585
Fragmentation average = 0
	minimum = 0
	maximum = 0
Injected packet rate average = 0.0100625
	minimum = 0.004 (at node 2)
	maximum = 0.018 (at node 5)
Accepted packet rate average = 0.0101875
	minimum = 0.004 (at node 8)
	maximum = 0.018 (at node 5)
Injected flit rate average = 0.0100625
	minimum = 0.004 (at node 2)
	maximum = 0.018 (at node 5)
Accepted flit rate average= 0.0101875
	minimum = 0.004 (at node 8)
	maximum = 0.018 (at node 5)
Injected packet length average = 1
Accepted packet length average = 1
Total in-flight flits = 1 (1 measured)
latency change    = 0.0238261
throughput change = 0.0552147
Class 0:
Packet latency average = 18.7702
	minimum = 7
	maximum = 43
Network latency average = 18.7702
	minimum = 7
	maximum = 43
Slowest packet = 13585
Flit latency average = 18.7853
	minimum = 7
	maximum = 43
Slowest flit = 13585
Fragmentation average = 0
	minimum = 0
	maximum = 0
Injected packet rate average = 0.0096875
	minimum = 0.0065 (at node 2)
	maximum = 0.016 (at node 5)
Accepted packet rate average = 0.00975
	minimum = 0.0065 (at node 8)
	maximum = 0.016 (at node 5)
Injected flit rate average = 0.0096875
	minimum = 0.0065 (at node 2)
	maximum = 0.016 (at node 5)
Accepted flit rate average= 0.00975
	minimum = 0.0065 (at node 8)
	maximum = 0.016 (at node 5)
Injected packet length average = 1
Accepted packet length average = 1
Total in-flight flits = 1 (1 measured)
latency change    = 0.0223879
throughput change = 0.0448718
Class 0:
Packet latency average = 19.2352
	minimum = 7
	maximum = 50
Network latency average = 19.2352
	minimum = 7
	maximum = 50
Slowest packet = 13839
Flit latency average = 19.2421
	minimum = 7
	maximum = 50
Slowest flit = 13839
Fragmentation average = 0
	minimum = 0
	maximum = 0
Injected packet rate average = 0.00983333
	minimum = 0.00633333 (at node 2)
	maximum = 0.0133333 (at node 5)
Accepted packet rate average = 0.00989583
	minimum = 0.00633333 (at node 8)
	maximum = 0.0133333 (at node 2)
Injected flit rate average = 0.00983333
	minimum = 0.00633333 (at node 2)
	maximum = 0.0133333 (at node 5)
Accepted flit rate average= 0.00989583
	minimum = 0.00633333 (at node 8)
	maximum = 0.0133333 (at node 2)
Injected packet length average = 1
Accepted packet length average = 1
Total in-flight flits = 0 (0 measured)
latency change    = 0.0241715
throughput change = 0.0147368
Class 0:
Packet latency average = 19.197
	minimum = 7
	maximum = 50
Network latency average = 19.197
	minimum = 7
	maximum = 50
Slowest packet = 13839
Flit latency average = 19.2026
	minimum = 7
	maximum = 50
Slowest flit = 13839
Fragmentation average = 0
	minimum = 0
	maximum = 0
Injected packet rate average = 0.0095625
	minimum = 0.00675 (at node 15)
	maximum = 0.01175 (at node 5)
Accepted packet rate average = 0.0095625
	minimum = 0.00675 (at node 15)
	maximum = 0.01175 (at node 5)
Injected flit rate average = 0.0095625
	minimum = 0.00675 (at node 15)
	maximum = 0.01175 (at node 5)
Accepted flit rate average= 0.0095625
	minimum = 0.00675 (at node 15)
	maximum = 0.01175 (at node 5)
Injected packet length average = 1
Accepted packet length average = 1
Total in-flight flits = 3 (3 measured)
latency change    = 0.00198599
throughput change = 0.0348584
Draining all recorded packets ...
Draining remaining packets ...
Time taken is 7053 cycles
Class 0:
Packet latency average = 20.1898
	minimum = 7
	maximum = 47
Network latency average = 20.1898
	minimum = 7
	maximum = 47
Slowest packet = 14158
Flit latency average = 20.1898
	minimum = 7
	maximum = 47
Slowest flit = 14158
Fragmentation average = 0
	minimum = 0
	maximum = 0
Injected packet rate average = 0.008875
	minimum = 0.004 (at node 10)
	maximum = 0.015 (at node 4)
Accepted packet rate average = 0.0085625
	minimum = 0.004 (at node 10)
	maximum = 0.015 (at node 1)
Injected flit rate average = 0.008875
	minimum = 0.004 (at node 10)
	maximum = 0.015 (at node 4)
Accepted flit rate average= 0.0085625
	minimum = 0.004 (at node 10)
	maximum = 0.015 (at node 1)
Injected packet length average = 1
Accepted packet length average = 1
Total in-flight flits = 5 (0 measured)
latency change    = 1
throughput change = 1
Class 0:
Packet latency average = 19.7406
	minimum = 7
	maximum = 47
Network latency average = 19.7406
	minimum = 7
	maximum = 47
Slowest packet = 14158
Flit latency average = 19.7406
	minimum = 7
	maximum = 47
Slowest flit = 14158
Fragmentation average = 0
	minimum = 0
	maximum = 0
Injected packet rate average = 0.00921875
	minimum = 0.0065 (at node 3)
	maximum = 0.013 (at node 8)
Accepted packet rate average = 0.00915625
	minimum = 0.0065 (at node 12)
	maximum = 0.013 (at node 2)
Injected flit rate average = 0.00921875
	minimum = 0.0065 (at node 3)
	maximum = 0.013 (at node 8)
Accepted flit rate average= 0.00915625
	minimum = 0.0065 (at node 12)
	maximum = 0.013 (at node 2)
Injected packet length average = 1
Accepted packet length average = 1
Total in-flight flits = 2 (0 measured)
latency change    = 0.0227534
throughput change = 0.0648464
Class 0:
Packet latency average = 18.6414
	minimum = 7
	maximum = 37
Network latency average = 18.6414
	minimum = 7
	maximum = 37
Slowest packet = 14377
Flit latency average = 18.6414
	minimum = 7
	maximum = 37
Slowest flit = 14377
Fragmentation average = 0
	minimum = 0
	maximum = 0
Injected packet rate average = 0.009125
	minimum = 0.005 (at node 12)
	maximum = 0.015 (at node 6)
Accepted packet rate average = 0.0090625
	minimum = 0.005 (at node 3)
	maximum = 0.015 (at node 9)
Injected flit rate average = 0.009125
	minimum = 0.005 (at node 12)
	maximum = 0.015 (at node 6)
Accepted flit rate average= 0.0090625
	minimum = 0.005 (at node 3)
	maximum = 0.015 (at node 9)
Injected packet length average = 1
Accepted packet length average = 1
Total in-flight flits = 3 (0 measured)
latency change    = 0.0589675
throughput change = 0.0103448
Warmed up ...Time used is 3000 cycles
Class 0:
Packet latency average = 19.1631
	minimum = 7
	maximum = 39
Network latency average = 19.1631
	minimum = 7
	maximum = 39
Slowest packet = 14642
Flit latency average = 19.1875
	minimum = 7
	maximum = 39
Slowest flit = 14642
Fragmentation average = 0
	minimum = 0
	maximum = 0
Injected packet rate average = 0.0089375
	minimum = 0.003 (at node 4)
	maximum = 0.014 (at node 11)
Accepted packet rate average = 0.009
	minimum = 0.003 (at node 1)
	maximum = 0.014 (at node 14)
Injected flit rate average = 0.0089375
	minimum = 0.003 (at node 4)
	maximum = 0.014 (at node 11)
Accepted flit rate average= 0.009
	minimum = 0.003 (at node 1)
	maximum = 0.014 (at node 14)
Injected packet length average = 1
Accepted packet length average = 1
Total in-flight flits = 2 (2 measured)
latency change    = 0.0272263
throughput change = 0.00694444
Class 0:
Packet latency average = 18.861
	minimum = 7
	maximum = 46
Network latency average = 18.861
	minimum = 7
[...]
	minimum = 0.005 (at node 12)
	maximum = 0.014 (at node 3)
Accepted packet rate average = 0.0094375
	minimum = 0.006 (at node 0)
	maximum = 0.015 (at node 13)
Injected flit rate average = 0.0095
	minimum = 0.005 (at node 12)
	maximum = 0.014 (at node 3)
Accepted flit rate average= 0.0094375
	minimum = 0.006 (at node 0)
	maximum = 0.015 (at node 13)
Injected packet length average = 1
Accepted packet length average = 1
Total in-flight flits = 4 (0 measured)
latency change    = 0.0146746
throughput change = 0.215232
Warmed up ...Time used is 3000 cycles
Class 0:
Packet latency average = 19.7758
	minimum = 7
	maximum = 37
Network latency average = 19.7758
	minimum = 7
	maximum = 37
Slowest packet = 118094
Flit latency average = 19.9467
	minimum = 7
	maximum = 37
Slowest flit = 118088
Fragmentation average = 0
	minimum = 0
	maximum = 0
Injected packet rate average = 0.0104375
	minimum = 0.007 (at node 6)
	maximum = 0.015 (at node 3)
Accepted packet rate average = 0.0105625
	minimum = 0.007 (at node 6)
	maximum = 0.015 (at node 10)
Injected flit rate average = 0.0104375
	minimum = 0.007 (at node 6)
	maximum = 0.015 (at node 3)
Accepted flit rate average= 0.0105625
	minimum = 0.007 (at node 6)
	maximum = 0.015 (at node 10)
Injected packet length average = 1
Accepted packet length average = 1
Total in-flight flits = 2 (2 measured)
latency change    = 0.0170322
throughput change = 0.106509
Class 0:
Packet latency average = 19.3107
	minimum = 7
	maximum = 49
Network latency average = 19.3107
	minimum = 7
	maximum = 49
Slowest packet = 118424
Flit latency average = 19.4006
	minimum = 7
	maximum = 49
Slowest flit = 118424
Fragmentation average = 0
	minimum = 0
	maximum = 0
Injected packet rate average = 0.0105938
	minimum = 0.0075 (at node 2)
	maximum = 0.014 (at node 10)
Accepted packet rate average = 0.0106875
	minimum = 0.0075 (at node 8)
	maximum = 0.014 (at node 10)
Injected flit rate average = 0.0105938
	minimum = 0.0075 (at node 2)
	maximum = 0.014 (at node 10)
Accepted flit rate average= 0.0106875
	minimum = 0.0075 (at node 8)
	maximum = 0.014 (at node 10)
Injected packet length average = 1
Accepted packet length average = 1
Total in-flight flits = 1 (1 measured)
latency change    = 0.0240855
throughput change = 0.0116959
Class 0:
Packet latency average = 19.1347
	minimum = 7
	maximum = 49
Network latency average = 19.1347
	minimum = 7
	maximum = 49
Slowest packet = 118424
Flit latency average = 19.1965
	minimum = 7
	maximum = 49
Slowest flit = 118424
Fragmentation average = 0
	minimum = 0
	maximum = 0
Injected packet rate average = 0.0105833
	minimum = 0.00766667 (at node 2)
	maximum = 0.0133333 (at node 10)
Accepted packet rate average = 0.0106042
	minimum = 0.00733333 (at node 8)
	maximum = 0.0133333 (at node 10)
Injected flit rate average = 0.0105833
	minimum = 0.00766667 (at node 2)
	maximum = 0.0133333 (at node 10)
Accepted flit rate average= 0.0106042
	minimum = 0.00733333 (at node 8)
	maximum = 0.0133333 (at node 10)
Injected packet length average = 1
Accepted packet length average = 1
Total in-flight flits = 3 (3 measured)
latency change    = 0.00919784
throughput change = 0.00785855
Class 0:
Packet latency average = 19.1652
	minimum = 7
	maximum = 49
Network latency average = 19.1652
	minimum = 7
	maximum = 49
Slowest packet = 118424
Flit latency average = 19.2123
	minimum = 7
	maximum = 49
Slowest flit = 118424
Fragmentation average = 0
	minimum = 0
	maximum = 0
Injected packet rate average = 0.0103281
	minimum = 0.00825 (at node 2)
	maximum = 0.013 (at node 1)
Accepted packet rate average = 0.010375
	minimum = 0.00825 (at node 8)
	maximum = 0.013 (at node 4)
Injected flit rate average = 0.0103281
	minimum = 0.00825 (at node 2)
	maximum = 0.013 (at node 1)
Accepted flit rate average= 0.010375
	minimum = 0.00825 (at node 8)
	maximum = 0.013 (at node 4)
Injected packet length average = 1
Accepted packet length average = 1
Total in-flight flits = 1 (1 measured)
latency change    = 0.00159133
throughput change = 0.0220884
Draining all recorded packets ...
Draining remaining packets ...
Time taken is 7023 cycles
Class 0:
Packet latency average = 17.9013
	minimum = 7
	maximum = 46
Network latency average = 17.9013
	minimum = 7
	maximum = 46
Slowest packet = 118783
Flit latency average = 17.9013
	minimum = 7
	maximum = 46
Slowest flit = 118783
Fragmentation average = 0
	minimum = 0
	maximum = 0
Injected packet rate average = 0.009875
	minimum = 0.002 (at node 8)
	maximum = 0.017 (at node 0)
Accepted packet rate average = 0.0095
	minimum = 0.002 (at node 2)
	maximum = 0.017 (at node 0)
Injected flit rate average = 0.009875
	minimum = 0.002 (at node 8)
	maximum = 0.017 (at node 0)
Accepted flit rate average= 0.0095
	minimum = 0.002 (at node 2)
	maximum = 0.017 (at node 0)
Injected packet length average = 1
Accepted packet length average = 1
Total in-flight flits = 6 (0 measured)
latency change    = 1
throughput change = 1
Class 0:
Packet latency average = 18.3569
	minimum = 7
	maximum = 46
Network latency average = 18.3569
	minimum = 7
	maximum = 46
Slowest packet = 118783
Flit latency average = 18.3569
	minimum = 7
	maximum = 46
Slowest flit = 118783
Fragmentation average = 0
	minimum = 0
	maximum = 0
Injected packet rate average = 0.009375
	minimum = 0.002 (at node 8)
	maximum = 0.0145 (at node 15)
Accepted packet rate average = 0.00928125
	minimum = 0.002 (at node 2)
	maximum = 0.0145 (at node 15)
Injected flit rate average = 0.009375
	minimum = 0.002 (at node 8)
	maximum = 0.0145 (at node 15)
Accepted flit rate average= 0.00928125
	minimum = 0.002 (at node 2)
	maximum = 0.0145 (at node 15)
Injected packet length average = 1
Accepted packet length average = 1
Total in-flight flits = 3 (0 measured)
latency change    = 0.0248183
throughput change = 0.023569
Class 0:
Packet latency average = 20.3636
	minimum = 7
	maximum = 43
Network latency average = 20.3636
	minimum = 7
	maximum = 43
Slowest packet = 119074
Flit latency average = 20.3636
	minimum = 7
	maximum = 43
Slowest flit = 119074
Fragmentation average = 0
	minimum = 0
	maximum = 0
Injected packet rate average = 0.0095625
	minimum = 0.005 (at node 5)
	maximum = 0.014 (at node 7)
Accepted packet rate average = 0.009625
	minimum = 0.005 (at node 5)
	maximum = 0.014 (at node 7)
Injected flit rate average = 0.0095625
	minimum = 0.005 (at node 5)
	maximum = 0.014 (at node 7)
Accepted flit rate average= 0.009625
	minimum = 0.005 (at node 5)
	maximum = 0.014 (at node 7)
Injected packet length average = 1
Accepted packet length average = 1
Total in-flight flits = 2 (0 measured)
latency change    = 0.098545
throughput change = 0.0357143
Warmed up ...Time used is 3000 cycles
Class 0:
Packet latency average = 17.4248
	minimum = 7
	maximum = 37
Network latency average = 17.4248
	minimum = 7
	maximum = 37
Slowest packet = 119221
Flit latency average = 17.6129
	minimum = 7
	maximum = 37
Slowest flit = 119207
Fragmentation average = 0
	minimum = 0
	maximum = 0
Injected packet rate average = 0.009875
	minimum = 0.004 (at node 12)
	maximum = 0.014 (at node 4)
Accepted packet rate average = 0.0096875
	minimum = 0.004 (at node 3)
	maximum = 0.014 (at node 1)
Injected flit rate average = 0.009875
	minimum = 0.004 (at node 12)
	maximum = 0.014 (at node 4)
Accepted flit rate average= 0.0096875
	minimum = 0.004 (at node 3)
	maximum = 0.014 (at node 1)
Injected packet length average = 1
Accepted packet length average = 1
Total in-flight flits = 5 (5 measured)
latency change    = 0.168656
throughput change = 0.00645161
Class 0:
Packet latency average = 18.3981
	minimum = 7
	maximum = 45
Network latency average = 18.3981
	minimum = 7
	maximum = 45
Slowest packet = 119502
Flit latency average = 18.4855
	minimum = 7
	maximum = 45
Slowest flit = 119502
Fragmentation average = 0
	minimum = 0
	maximum = 0
Injected packet rate average = 0.0096875
	minimum = 0.0065 (at node 12)
	maximum = 0.0125 (at node 4)
Accepted packet rate average = 0.00971875
	minimum = 0.0065 (at node 3)
	maximum = 0.0125 (at node 15)
Injected flit rate average = 0.0096875
	minimum = 0.0065 (at node 12)
	maximum = 0.0125 (at node 4)
Accepted flit rate average= 0.00971875
	minimum = 0.0065 (at node 3)
	maximum = 0.0125 (at node 15)
Injected packet length average = 1
Accepted packet length average = 1
Total in-flight flits = 1 (1 measured)
latency change    = 0.0528981
throughput change = 0.00321543
Class 0:
Packet latency average = 18.7372
	minimum = 7
	maximum = 45
Network latency average = 18.7372
	minimum = 7
	maximum = 45
Slowest packet = 119502
Flit latency average = 18.7914
	minimum = 7
	maximum = 45
Slowest flit = 119502
Fragmentation average = 0
	minimum = 0
	maximum = 0
Injected packet rate average = 0.0101875
	minimum = 0.00733333 (at node 3)
	maximum = 0.0126667 (at node 6)
Accepted packet rate average = 0.0101875
	minimum = 0.00733333 (at node 7)
	maximum = 0.0126667 (at node 9)
Injected flit rate average = 0.0101875
	minimum = 0.00733333 (at node 3)
	maximum = 0.0126667 (at node 6)
Accepted flit rate average= 0.0101875
	minimum = 0.00733333 (at node 7)
	maximum = 0.0126667 (at node 9)
Injected packet length average = 1
Accepted packet length average = 1
Total in-flight flits = 2 (2 measured)
latency change    = 0.0180982
throughput change = 0.0460123
Class 0:
Packet latency average = 18.9208
	minimum = 7
	maximum = 45
Network latency average = 18.9208
	minimum = 7
	maximum = 45
Slowest packet = 119502
Flit latency average = 18.9613
	minimum = 7
	maximum = 45
Slowest flit = 119502
Fragmentation average = 0
	minimum = 0
	maximum = 0
Injected packet rate average = 0.0100781
	minimum = 0.00775 (at node 13)
	maximum = 0.012 (at node 15)
Accepted packet rate average = 0.0100938
	minimum = 0.00775 (at node 7)
	maximum = 0.012 (at node 15)
Injected flit rate average = 0.0100781
	minimum = 0.00775 (at node 13)
	maximum = 0.012 (at node 15)
Accepted flit rate average= 0.0100938
	minimum = 0.00775 (at node 7)
	maximum = 0.012 (at node 15)
Injected packet length average = 1
Accepted packet length average = 1
Total in-flight flits = 1 (1 measured)
latency change    = 0.00970578
throughput change = 0.00928793
Class 0:
Packet latency average = 18.7852
	minimum = 7
	maximum = 45
Network latency average = 18.7852
	minimum = 7
	maximum = 45
Slowest packet = 119502
Flit latency average = 18.8172
	minimum = 7
	maximum = 45
Slowest flit = 119502
Fragmentation average = 0
	minimum = 0
	maximum = 0
Injected packet rate average = 0.0103625
	minimum = 0.0082 (at node 13)
	maximum = 0.0122 (at node 15)
Accepted packet rate average = 0.010325
	minimum = 0.0082 (at node 7)
	maximum = 0.0122 (at node 15)
Injected flit rate average = 0.0103625
	minimum = 0.0082 (at node 13)
	maximum = 0.0122 (at node 15)
Accepted flit rate average= 0.010325
	minimum = 0.0082 (at node 7)
	maximum = 0.0122 (at node 15)
Injected packet length average = 1
Accepted packet length average = 1
Total in-flight flits = 5 (5 measured)
latency change    = 0.00721916
throughput change = 0.0223971
Draining all recorded packets ...
Draining remaining packets ...
Time taken is 8039 cycles
Class 0:
Packet latency average = 20.2373
	minimum = 7
	maximum = 49
Network latency average = 20.2373
	minimum = 7
	maximum = 49
Slowest packet = 120125
Flit latency average = 20.2373
	minimum = 7
	maximum = 49
Slowest flit = 120125
Fragmentation average = 0
	minimum = 0
	maximum = 0
Injected packet rate average = 0.0113125
	minimum = 0.004 (at node 1)
	maximum = 0.016 (at node 8)
Accepted packet rate average = 0.0110625
	minimum = 0.004 (at node 4)
	maximum = 0.015 (at node 0)
Injected flit rate average = 0.0113125
	minimum = 0.004 (at node 1)
	maximum = 0.016 (at node 8)
Accepted flit rate average= 0.0110625
	minimum = 0.004 (at node 4)
	maximum = 0.015 (at node 0)
Injected packet length average = 1
Accepted packet length average = 1
Total in-flight flits = 4 (0 measured)
latency change    = 1
throughput change = 1
Class 0:
Packet latency average = 19.4477
	minimum = 7
	maximum = 49
Network latency average = 19.4477
	minimum = 7
	maximum = 49
Slowest packet = 120125
Flit latency average = 19.4477
	minimum = 7
	maximum = 49
Slowest flit = 120125
Fragmentation average = 0
	minimum = 0
	maximum = 0
Injected packet rate average = 0.0108125
	minimum = 0.0065 (at node 1)
	maximum = 0.0135 (at node 4)
Accepted packet rate average = 0.01075
	minimum = 0.0065 (at node 4)
	maximum = 0.0135 (at node 1)
Injected flit rate average = 0.0108125
	minimum = 0.0065 (at node 1)
	maximum = 0.0135 (at node 4)
Accepted flit rate average= 0.01075
	minimum = 0.0065 (at node 4)
	maximum = 0.0135 (at node 1)
Injected packet length average = 1
Accepted packet length average = 1
Total in-flight flits = 2 (0 measured)
latency change    = 0.040602
throughput change = 0.0290698
Class 0:
Packet latency average = 19.7533
	minimum = 7
	maximum = 37
Network latency average = 19.7533
	minimum = 7
	maximum = 37
Slowest packet = 120388
Flit latency average = 19.7533
	minimum = 7
	maximum = 37
Slowest flit = 120388
Fragmentation average = 0
	minimum = 0
	maximum = 0
Injected packet rate average = 0.009375
	minimum = 0.005 (at node 10)
	maximum = 0.015 (at node 6)
Accepted packet rate average = 0.009375
	minimum = 0.005 (at node 10)
	maximum = 0.015 (at node 9)
Injected flit rate average = 0.009375
	minimum = 0.005 (at node 10)
	maximum = 0.015 (at node 6)
Accepted flit rate average= 0.009375
	minimum = 0.005 (at node 10)
	maximum = 0.015 (at node 9)
Injected packet length average = 1
Accepted packet length average = 1
Total in-flight flits = 2 (0 measured)
latency change    = 0.0154738
throughput change = 0.146667
Warmed up ...Time used is 3000 cycles
Class 0:
Packet latency average = 18.7101
	minimum = 7
	maximum = 37
Network latency average = 18.7101
	minimum = 7
	maximum = 37
Slowest packet = 120544
Flit latency average = 18.9
	minimum = 7
	maximum = 37
Slowest flit = 120532
Fragmentation average = 0
	minimum = 0
	maximum = 0
Injected packet rate average = 0.0088125
	minimum = 0.006 (at node 2)
	maximum = 0.013 (at node 1)
Accepted packet rate average = 0.00875
	minimum = 0.005 (at node 8)
	maximum = 0.013 (at node 4)
Injected flit rate average = 0.0088125
	minimum = 0.006 (at node 2)
	maximum = 0.013 (at node 1)
Accepted flit rate average= 0.00875
	minimum = 0.005 (at node 8)
	maximum = 0.013 (at node 4)
Injected packet length average = 1
Accepted packet length average = 1
Total in-flight flits = 3 (3 measured)
latency change    = 0.0557552
throughput change = 0.0714286
Class 0:
Packet latency average = 19.7379
	minimum = 7
	maximum = 44
Network latency average = 19.7379
	minimum = 7
	maximum = 44
Slowest packet = 120725
Flit latency average = 19.8219
	minimum = 7
	maximum = 44
Slowest flit = 120725
Fragmentation average = 0
	minimum = 0
	maximum = 0
Injected packet rate average = 0.009125
	minimum = 0.0055 (at node 2)
	maximum = 0.014 (at node 1)
Accepted packet rate average = 0.009125
	minimum = 0.0055 (at node 8)
	maximum = 0.0135 (at node 4)
Injected flit rate average = 0.009125
	minimum = 0.0055 (at node 2)
	maximum = 0.014 (at node 1)
Accepted flit rate average= 0.009125
	minimum = 0.0055 (at node 8)
	maximum = 0.0135 (at node 4)
Injected packet length average = 1
Accepted packet length average = 1
Total in-flight flits = 2 (2 measured)
latency change    = 0.0520716
throughput change = 0.0410959
Class 0:
Packet latency average = 19.663
	minimum = 7
	maximum = 46
Network latency average = 19.663
	minimum = 7
	maximum = 46
Slowest packet = 120975
Flit latency average = 19.7165
	minimum = 7
	maximum = 46
Slowest flit = 120975
Fragmentation average = 0
	minimum = 0
	maximum = 0
Injected packet rate average = 0.009625
	minimum = 0.006 (at node 2)
	maximum = 0.0136667 (at node 13)
Accepted packet rate average = 0.009625
	minimum = 0.00566667 (at node 8)
	maximum = 0.0136667 (at node 7)
Injected flit rate average = 0.009625
	minimum = 0.006 (at node 2)
	maximum = 0.0136667 (at node 13)
Accepted flit rate average= 0.009625
	minimum = 0.00566667 (at node 8)
	maximum = 0.0136667 (at node 7)
Injected packet length average = 1
Accepted packet length average = 1
Total in-flight flits = 2 (2 measured)
latency change    = 0.00380854
throughput change = 0.0519481
Class 0:
Packet latency average = 19.3791
	minimum = 7
	maximum = 46
Network latency average = 19.3791
	minimum = 7
	maximum = 46
Slowest packet = 120975
Flit latency average = 19.4202
	minimum = 7
	maximum = 46
Slowest flit = 120975
Fragmentation average = 0
	minimum = 0
	maximum = 0
Injected packet rate average = 0.009625
	minimum = 0.00625 (at node 11)
	maximum = 0.01225 (at node 10)
Accepted packet rate average = 0.00959375
	minimum = 0.00625 (at node 14)
	maximum = 0.01225 (at node 10)
Injected flit rate average = 0.009625
	minimum = 0.00625 (at node 11)
	maximum = 0.01225 (at node 10)
Accepted flit rate average= 0.00959375
	minimum = 0.00625 (at node 14)
	maximum = 0.01225 (at node 10)
Injected packet length average = 1
Accepted packet length average = 1
Total in-flight flits = 4 (4 measured)
latency change    = 0.0146528
throughput change = 0.00325733
Class 0:
Packet latency average = 19.5431
	minimum = 7
	maximum = 46
Network latency average = 19.5431
	minimum = 7
	maximum = 46
Slowest packet = 120975
Flit latency average = 19.5755
	minimum = 7
	maximum = 46
Slowest flit = 120975
Fragmentation average = 0
	minimum = 0
	maximum = 0
Injected packet rate average = 0.00965
	minimum = 0.007 (at node 11)
	maximum = 0.0126 (at node 10)
Accepted packet rate average = 0.0096
	minimum = 0.0066 (at node 14)
	maximum = 0.0126 (at node 10)
Injected flit rate average = 0.00965
	minimum = 0.007 (at node 11)
	maximum = 0.0126 (at node 10)
Accepted flit rate average= 0.0096
	minimum = 0.0066 (at node 14)
	maximum = 0.0126 (at node 10)
Injected packet length average = 1
Accepted packet length average = 1
Total in-flight flits = 6 (6 measured)
latency change    = 0.00839151
throughput change = 0.000651042
Class 0:
Packet latency average = 19.5445
	minimum = 7
	maximum = 46
Network latency average = 19.5445
	minimum = 7
	maximum = 46
Slowest packet = 120975
Flit latency average = 19.5717
	minimum = 7
	maximum = 46
Slowest flit = 120975
Fragmentation average = 0
	minimum = 0
	maximum = 0
Injected packet rate average = 0.00954167
	minimum = 0.00733333 (at node 11)
	maximum = 0.0115 (at node 10)
Accepted packet rate average = 0.00951042
	minimum = 0.00733333 (at node 14)
	maximum = 0.0115 (at node 10)
Injected flit rate average = 0.00954167
	minimum = 0.00733333 (at node 11)
	maximum = 0.0115 (at node 10)
Accepted flit rate average= 0.00951042
	minimum = 0.00733333 (at node 14)
	maximum = 0.0115 (at node 10)
Injected packet length average = 1
Accepted packet length average = 1
Total in-flight flits = 5 (5 measured)
latency change    = 7.03883e-05
throughput change = 0.0094195
Draining all recorded packets ...
Draining remaining packets ...
Time taken is 9038 cycles
====== Overall Traffic Statistics ======
====== Traffic class 0 ======
Packet latency average = 19.6506 (100 samples)
	minimum = 7 (100 samples)
	maximum = 47.89 (100 samples)
Network latency average = 19.6506 (100 samples)
	minimum = 7 (100 samples)
	maximum = 47.89 (100 samples)
Flit latency average = 19.6719 (100 samples)
	minimum = 7 (100 samples)
	maximum = 48.02 (100 samples)
Fragmentation average = 0 (100 samples)
	minimum = 0 (100 samples)
	maximum = 0 (100 samples)
Injected packet rate average = 0.010001 (100 samples)
	minimum = 0.00738033 (100 samples)
	maximum = 0.0128201 (100 samples)
Accepted packet rate average = 0.0100034 (100 samples)
	minimum = 0.00737276 (100 samples)
	maximum = 0.0128109 (100 samples)
Injected flit rate average = 0.010001 (100 samples)
	minimum = 0.00738033 (100 samples)
	maximum = 0.0128201 (100 samples)
Accepted flit rate average = 0.0100034 (100 samples)
	minimum = 0.00737276 (100 samples)
	maximum = 0.0128109 (100 samples)
Injected packet size average = 1 (100 samples)
Accepted packet size average = 1 (100 samples)
Hops average = 3.50075 (100 samples)
Total run time 4.61991
