BEGIN Configuration File: /tmp/bs_1139157_991095.cfg
topology = mesh;
k = 4;
n = 2;
routing_function = dor;
num_vcs = 4;
vc_buf_size = 4;
wait_for_tail_credit = 1;
vc_allocator = islip;
sw_allocator = islip;
alloc_iters = 1;
credit_delay = 2;
routing_delay = 1;
vc_alloc_delay = 1;
sw_alloc_delay = 1;
input_speedup = 2;
output_speedup = 1;
internal_speedup = 1.0;
traffic = transpose;
packet_size = 1;
sim_type = latency;
injection_rate = 0.01;
warmup_periods = 3;
sample_period = 1000;
sim_count = 100;
seed = 2;

END Configuration File: /tmp/bs_1139157_991095.cfg
Class 0:
Packet latency average = 18.2197
	minimum = 7
	maximum = 37
Network latency average = 18.2197
	minimum = 7
	maximum = 37
Slowest packet = 1
Flit latency average = 18.2197
	minimum = 7
	maximum = 37
Slowest flit = 1
Fragmentation average = 0
	minimum = 0
	maximum = 0
Injected packet rate average = 0.008625
	minimum = 0.003 (at node 2)
	maximum = 0.015 (at node 13)
Accepted packet rate average = 0.00825
	minimum = 0.003 (at node 6)
	maximum = 0.013 (at node 7)
Injected flit rate average = 0.008625
	minimum = 0.003 (at node 2)
	maximum = 0.015 (at node 13)
Accepted flit rate average= 0.00825
	minimum = 0.003 (at node 6)
	maximum = 0.013 (at node 7)
Injected packet length average = 1
Accepted packet length average = 1
Total in-flight flits = 6 (0 measured)
latency change    = 1
throughput change = 1
Class 0:
Packet latency average = 18.6098
	minimum = 7
	maximum = 37
Network latency average = 18.6098
	minimum = 7
	maximum = 37
Slowest packet = 1
Flit latency average = 18.6098
	minimum = 7
	maximum = 37
Slowest flit = 1
Fragmentation average = 0
	minimum = 0
	maximum = 0
Injected packet rate average = 0.009625
	minimum = 0.005 (at node 2)
	maximum = 0.015 (at node 13)
Accepted packet rate average = 0.00953125
	minimum = 0.0045 (at node 8)
	maximum = 0.015 (at node 7)
Injected flit rate average = 0.009625
	minimum = 0.005 (at node 2)
	maximum = 0.015 (at node 13)
Accepted flit rate average= 0.00953125
	minimum = 0.0045 (at node 8)
	maximum = 0.015 (at node 7)
Injected packet length average = 1
Accepted packet length average = 1
Total in-flight flits = 3 (0 measured)
latency change    = 0.0209641
throughput change = 0.134426
Class 0:
Packet latency average = 20.6054
	minimum = 7
	maximum = 37
Network latency average = 20.6054
	minimum = 7
	maximum = 37
Slowest packet = 310
Flit latency average = 20.6054
	minimum = 7
	maximum = 37
Slowest flit = 310
Fragmentation average = 0
	minimum = 0
	maximum = 0
Injected packet rate average = 0.009125
	minimum = 0.003 (at node 8)
	maximum = 0.018 (at node 3)
Accepted packet rate average = 0.0091875
	minimum = 0.003 (at node 2)
	maximum = 0.018 (at node 12)
Injected flit rate average = 0.009125
	minimum = 0.003 (at node 8)
	maximum = 0.018 (at node 3)
Accepted flit rate average= 0.0091875
	minimum = 0.003 (at node 2)
	maximum = 0.018 (at node 12)
Injected packet length average = 1
Accepted packet length average = 1
Total in-flight flits = 2 (0 measured)
latency change    = 0.0968485
throughput change = 0.037415
Warmed up ...Time used is 3000 cycles
Class 0:
Packet latency average = 19.3837
	minimum = 7
	maximum = 37
Network latency average = 19.3837
	minimum = 7
	maximum = 37
Slowest packet = 455
Flit latency average = 19.4138
	minimum = 7
	maximum = 37
Slowest flit = 451
Fragmentation average = 0
	minimum = 0
	maximum = 0
Injected packet rate average = 0.0109375
	minimum = 0.007 (at node 3)
	maximum = 0.017 (at node 12)
Accepted packet rate average = 0.010875
	minimum = 0.007 (at node 12)
	maximum = 0.017 (at node 3)
Injected flit rate average = 0.0109375
	minimum = 0.007 (at node 3)
	maximum = 0.017 (at node 12)
Accepted flit rate average= 0.010875
	minimum = 0.007 (at node 12)
	maximum = 0.017 (at node 3)
Injected packet length average = 1
Accepted packet length average = 1
Total in-flight flits = 3 (3 measured)
latency change    = 0.0630282
throughput change = 0.155172
Class 0:
Packet latency average = 18.7932
	minimum = 7
	maximum = 37
Network latency average = 18.7932
	minimum = 7
	maximum = 37
Slowest packet = 455
Flit latency average = 18.8129
	minimum = 7
	maximum = 37
Slowest flit = 451
Fragmentation average = 0
	minimum = 0
	maximum = 0
Injected packet rate average = 0.0102188
	minimum = 0.0075 (at node 15)
	maximum = 0.0125 (at node 0)
Accepted packet rate average = 0.0101875
	minimum = 0.007 (at node 12)
	maximum = 0.013 (at node 3)
Injected flit rate average = 0.0102188
	minimum = 0.0075 (at node 15)
	maximum = 0.0125 (at node 0)
Accepted flit rate average= 0.0101875
	minimum = 0.007 (at node 12)
	maximum = 0.013 (at node 3)
Injected packet length average = 1
Accepted packet length average = 1
Total in-flight flits = 3 (3 measured)
latency change    = 0.0314215
throughput change = 0.0674847
Class 0:
Packet latency average = 18.9736
	minimum = 7
	maximum = 37
Network latency average = 18.9736
	minimum = 7
	maximum = 37
Slowest packet = 455
Flit latency average = 18.9858
	minimum = 7
	maximum = 37
Slowest flit = 451
Fragmentation average = 0
	minimum = 0
	maximum = 0
Injected packet rate average = 0.0102917
	minimum = 0.00733333 (at node 2)
	maximum = 0.0126667 (at node 6)
Accepted packet rate average = 0.0102917
	minimum = 0.007 (at node 8)
	maximum = 0.0126667 (at node 9)
Injected flit rate average = 0.0102917
	minimum = 0.00733333 (at node 2)
	maximum = 0.0126667 (at node 6)
Accepted flit rate average= 0.0102917
	minimum = 0.007 (at node 8)
	maximum = 0.0126667 (at node 9)
Injected packet length average = 1
Accepted packet length average = 1
Total in-flight flits = 2 (2 measured)
latency change    = 0.00950624
throughput change = 0.0101215
Class 0:
Packet latency average = 19.2771
	minimum = 7
	maximum = 37
Network latency average = 19.2771
	minimum = 7
	maximum = 37
Slowest packet = 455
Flit latency average = 19.2853
	minimum = 7
	maximum = 37
Slowest flit = 451
Fragmentation average = 0
	minimum = 0
	maximum = 0
Injected packet rate average = 0.0104531
	minimum = 0.0075 (at node 2)
	maximum = 0.0125 (at node 5)
Accepted packet rate average = 0.0104063
	minimum = 0.0075 (at node 8)
	maximum = 0.0125 (at node 5)
Injected flit rate average = 0.0104531
	minimum = 0.0075 (at node 2)
	maximum = 0.0125 (at node 5)
Accepted flit rate average= 0.0104063
	minimum = 0.0075 (at node 8)
	maximum = 0.0125 (at node 5)
Injected packet length average = 1
Accepted packet length average = 1
Total in-flight flits = 5 (5 measured)
latency change    = 0.0157457
throughput change = 0.011011
Class 0:
Packet latency average = 19.2774
	minimum = 7
	maximum = 37
Network latency average = 19.2774
	minimum = 7
	maximum = 37
Slowest packet = 455
Flit latency average = 19.284
	minimum = 7
	maximum = 37
Slowest flit = 451
Fragmentation average = 0
	minimum = 0
	maximum = 0
Injected packet rate average = 0.0103375
	minimum = 0.0078 (at node 2)
	maximum = 0.0124 (at node 5)
Accepted packet rate average = 0.0103
	minimum = 0.0074 (at node 8)
	maximum = 0.0124 (at node 5)
Injected flit rate average = 0.0103375
	minimum = 0.0078 (at node 2)
	maximum = 0.0124 (at node 5)
Accepted flit rate average= 0.0103
	minimum = 0.0074 (at node 8)
	maximum = 0.0124 (at node 5)
Injected packet length average = 1
Accepted packet length average = 1
Total in-flight flits = 5 (5 measured)
latency change    = 1.36859e-05
throughput change = 0.0103155
Draining all recorded packets ...
Draining remaining packets ...
Time taken is 8051 cycles
Class 0:
Packet latency average = 20.2716
	minimum = 7
	maximum = 37
Network latency average = 20.2716
	minimum = 7
	maximum = 37
Slowest packet = 1287
Flit latency average = 20.2716
	minimum = 7
	maximum = 37
Slowest flit = 1287
Fragmentation average = 0
	minimum = 0
	maximum = 0
Injected packet rate average = 0.010375
	minimum = 0.005 (at node 5)
	maximum = 0.015 (at node 15)
Accepted packet rate average = 0.010125
	minimum = 0.005 (at node 5)
	maximum = 0.015 (at node 15)
Injected flit rate average = 0.010375
	minimum = 0.005 (at node 5)
	maximum = 0.015 (at node 15)
Accepted flit rate average= 0.010125
	minimum = 0.005 (at node 5)
	maximum = 0.015 (at node 15)
Injected packet length average = 1
Accepted packet length average = 1
Total in-flight flits = 4 (0 measured)
latency change    = 1
throughput change = 1
Class 0:
Packet latency average = 19.0455
	minimum = 7
	maximum = 37
Network latency average = 19.0455
	minimum = 7
	maximum = 37
Slowest packet = 1287
Flit latency average = 19.0455
	minimum = 7
	maximum = 37
Slowest flit = 1287
Fragmentation average = 0
	minimum = 0
	maximum = 0
Injected packet rate average = 0.0110937
	minimum = 0.0075 (at node 9)
	maximum = 0.017 (at node 8)
Accepted packet rate average = 0.011
	minimum = 0.0075 (at node 6)
	maximum = 0.017 (at node 2)
Injected flit rate average = 0.0110937
	minimum = 0.0075 (at node 9)
	maximum = 0.017 (at node 8)
Accepted flit rate average= 0.011
	minimum = 0.0075 (at node 6)
	maximum = 0.017 (at node 2)
Injected packet length average = 1
Accepted packet length average = 1
Total in-flight flits = 3 (0 measured)
latency change    = 0.0643802
throughput change = 0.0795455
Class 0:
Packet latency average = 20.4302
	minimum = 7
	maximum = 37
Network latency average = 20.4302
	minimum = 7
	maximum = 37
Slowest packet = 1638
Flit latency average = 20.4302
	minimum = 7
	maximum = 37
Slowest flit = 1638
Fragmentation average = 0
	minimum = 0
	maximum = 0
Injected packet rate average = 0.011
	minimum = 0.005 (at node 1)
	maximum = 0.018 (at node 12)
Accepted packet rate average = 0.01075
	minimum = 0.005 (at node 4)
	maximum = 0.018 (at node 3)
Injected flit rate average = 0.011
	minimum = 0.005 (at node 1)
	maximum = 0.018 (at node 12)
Accepted flit rate average= 0.01075
	minimum = 0.005 (at node 4)
	maximum = 0.018 (at node 3)
Injected packet length average = 1
Accepted packet length average = 1
Total in-flight flits = 7 (0 measured)
latency change    = 0.0677808
throughput change = 0.0232558
Warmed up ...Time used is 3000 cycles
Class 0:
Packet latency average = 18.8246
	minimum = 7
	maximum = 37
Network latency average = 18.8246
	minimum = 7
	maximum = 37
Slowest packet = 1828
Flit latency average = 19.0337
	minimum = 7
	maximum = 37
Slowest flit = 1809
Fragmentation average = 0
	minimum = 0
	maximum = 0
Injected packet rate average = 0.01075
	minimum = 0.005 (at node 9)
	maximum = 0.017 (at node 1)
Accepted packet rate average = 0.011125
	minimum = 0.005 (at node 6)
	maximum = 0.017 (at node 4)
Injected flit rate average = 0.01075
	minimum = 0.005 (at node 9)
	maximum = 0.017 (at node 1)
Accepted flit rate average= 0.011125
	minimum = 0.005 (at node 6)
	maximum = 0.017 (at node 4)
Injected packet length average = 1
Accepted packet length average = 1
Total in-flight flits = 1 (1 measured)
latency change    = 0.0852966
throughput change = 0.0337079
Class 0:
Packet latency average = 19.1401
	minimum = 7
	maximum = 37
Network latency average = 19.1401
	minimum = 7
	maximum = 37
Slowest packet = 1828
Flit latency average = 19.2492
	minimum = 7
	maximum = 37
Slowest flit = 1809
Fragmentation average = 0
	minimum = 0
	maximum = 0
Injected packet rate average = 0.00984375
	minimum = 0.006 (at node 9)
	maximum = 0.014 (at node 0)
Accepted packet rate average = 0.0100313
	minimum = 0.0055 (at node 6)
	maximum = 0.014 (at node 0)
Injected flit rate average = 0.00984375
	minimum = 0.006 (at node 9)
	maximum = 0.014 (at node 0)
Accepted flit rate average= 0.0100313
	minimum = 0.0055 (at node 6)
	maximum = 0.014 (at node 0)
Injected packet length average = 1
Accepted packet length average = 1
Total in-flight flits = 1 (1 measured)
latency change    = 0.0164871
throughput change = 0.109034
Class 0:
Packet latency average = 19.2863
	minimum = 7
	maximum = 37
Network latency average = 19.2863
	minimum = 7
	maximum = 37
Slowest packet = 1828
Flit latency average = 19.3558
	minimum = 7
	maximum = 37
Slowest flit = 1809
Fragmentation average = 0
	minimum = 0
	maximum = 0
Injected packet rate average = 0.0101042
	minimum = 0.00766667 (at node 10)
	maximum = 0.0133333 (at node 0)
Accepted packet rate average = 0.0101875
	minimum = 0.00766667 (at node 10)
	maximum = 0.0133333 (at node 0)
Injected flit rate average = 0.0101042
	minimum = 0.00766667 (at node 10)
	maximum = 0.0133333 (at node 0)
Accepted flit rate average= 0.0101875
	minimum = 0.00766667 (at node 10)
	maximum = 0.0133333 (at node 0)
Injected packet length average = 1
Accepted packet length average = 1
Total in-flight flits = 3 (3 measured)
latency change    = 0.00757945
throughput change = 0.0153374
Class 0:
Packet latency average = 19.2236
	minimum = 7
	maximum = 37
Network latency average = 19.2236
	minimum = 7
	maximum = 37
Slowest packet = 1828
Flit latency average = 19.2773
	minimum = 7
	maximum = 37
Slowest flit = 1809
Fragmentation average = 0
	minimum = 0
	maximum = 0
Injected packet rate average = 0.00996875
	minimum = 0.0075 (at node 10)
	maximum = 0.01225 (at node 2)
Accepted packet rate average = 0.0100313
	minimum = 0.0075 (at node 10)
	maximum = 0.0125 (at node 8)
Injected flit rate average = 0.00996875
	minimum = 0.0075 (at node 10)
	maximum = 0.01225 (at node 2)
Accepted flit rate average= 0.0100313
	minimum = 0.0075 (at node 10)
	maximum = 0.0125 (at node 8)
Injected packet length average = 1
Accepted packet length average = 1
Total in-flight flits = 3 (3 measured)
latency change    = 0.00326083
throughput change = 0.0155763
Class 0:
Packet latency average = 19.1471
	minimum = 7
	maximum = 37
Network latency average = 19.1471
	minimum = 7
	maximum = 37
Slowest packet = 1828
Flit latency average = 19.1896
	minimum = 7
	maximum = 37
Slowest flit = 1809
Fragmentation average = 0
	minimum = 0
	maximum = 0
Injected packet rate average = 0.01025
	minimum = 0.008 (at node 10)
	maximum = 0.0126 (at node 1)
Accepted packet rate average = 0.0102875
	minimum = 0.008 (at node 10)
	maximum = 0.0126 (at node 4)
Injected flit rate average = 0.01025
	minimum = 0.008 (at node 10)
	maximum = 0.0126 (at node 1)
Accepted flit rate average= 0.0102875
	minimum = 0.008 (at node 10)
	maximum = 0.0126 (at node 4)
Injected packet length average = 1
Accepted packet length average = 1
Total in-flight flits = 4 (4 measured)
latency change    = 0.00399869
throughput change = 0.0249089
Draining all recorded packets ...
Draining remaining packets ...
Time taken is 8034 cycles
Class 0:
Packet latency average = 20.4357
	minimum = 7
	maximum = 37
Network latency average = 20.4357
	minimum = 7
	maximum = 37
Slowest packet = 2649
Flit latency average = 20.4357
	minimum = 7
	maximum = 37
Slowest flit = 2649
Fragmentation average = 0
	minimum = 0
	maximum = 0
Injected packet rate average = 0.0089375
	minimum = 0.002 (at node 7)
	maximum = 0.015 (at node 8)
Accepted packet rate average = 0.00875
	minimum = 0.002 (at node 13)
	maximum = 0.015 (at node 2)
Injected flit rate average = 0.0089375
	minimum = 0.002 (at node 7)
	maximum = 0.015 (at node 8)
Accepted flit rate average= 0.00875
	minimum = 0.002 (at node 13)
	maximum = 0.015 (at node 2)
Injected packet length average = 1
Accepted packet length average = 1
Total in-flight flits = 3 (0 measured)
latency change    = 1
throughput change = 1
Class 0:
Packet latency average = 19.4862
	minimum = 7
	maximum = 37
Network latency average = 19.4862
	minimum = 7
	maximum = 37
Slowest packet = 2649
Flit latency average = 19.4862
	minimum = 7
	maximum = 37
Slowest flit = 2649
Fragmentation average = 0
	minimum = 0
	maximum = 0
Injected packet rate average = 0.00921875
	minimum = 0.0065 (at node 3)
	maximum = 0.0135 (at node 6)
Accepted packet rate average = 0.0090625
	minimum = 0.0065 (at node 7)
	maximum = 0.0135 (at node 9)
Injected flit rate average = 0.00921875
	minimum = 0.0065 (at node 3)
	maximum = 0.0135 (at node 6)
Accepted flit rate average= 0.0090625
	minimum = 0.0065 (at node 7)
	maximum = 0.0135 (at node 9)
Injected packet length average = 1
Accepted packet length average = 1
Total in-flight flits = 5 (0 measured)
latency change    = 0.0487272
throughput change = 0.0344828
Class 0:
Packet latency average = 20.7197
	minimum = 7
	maximum = 37
Network latency average = 20.7197
	minimum = 7
	maximum = 37
Slowest packet = 2940
Flit latency average = 20.7197
	minimum = 7
	maximum = 37
Slowest flit = 2940
Fragmentation average = 0
	minimum = 0
	maximum = 0
Injected packet rate average = 0.008125
	minimum = 0.005 (at node 10)
	maximum = 0.013 (at node 12)
Accepted packet rate average = 0.00825
	minimum = 0.005 (at node 10)
	maximum = 0.013 (at node 3)
Injected flit rate average = 0.008125
	minimum = 0.005 (at node 10)
	maximum = 0.013 (at node 12)
Accepted flit rate average= 0.00825
	minimum = 0.005 (at node 10)
	maximum = 0.013 (at node 3)
Injected packet length average = 1
Accepted packet length average = 1
Total in-flight flits = 3 (0 measured)
latency change    = 0.0595322
throughput change = 0.0984848
Warmed up ...Time used is 3000 cycles
Class 0:
Packet latency average = 21.0828
	minimum = 7
	maximum = 37
Network latency average = 21.0828
	minimum = 7
	maximum = 37
Slowest packet = 3069
Flit latency average = 21.1938
	minimum = 7
	maximum = 37
Slowest flit = 3069
Fragmentation average = 0
	minimum = 0
	maximum = 0
Injected packet rate average = 0.0100625
	minimum = 0.005 (at node 4)
	maximum = 0.019 (at node 12)
Accepted packet rate average = 0.01
	minimum = 0.005 (at node 1)
	maximum = 0.019 (at node 3)
Injected flit rate average = 0.0100625
	minimum = 0.005 (at node 4)
	maximum = 0.019 (at node 12)
Accepted flit rate average= 0.01
	minimum = 0.005 (at node 1)
	maximum = 0.019 (at node 3)
Injected packet length average = 1
Accepted packet length average = 1
Total in-flight flits = 4 (4 measured)
latency change    = 0.0172228
throughput change = 0.175
Class 0:
Packet latency average = 20.1235
	minimum = 7
	maximum = 38
Network latency average = 20.1235
	minimum = 7
	maximum = 38
Slowest packet = 3230
Flit latency average = 20.1837
	minimum = 7
	maximum = 38
Slowest flit = 3230
Fragmentation average = 0
	minimum = 0
	maximum = 0
Injected packet rate average = 0.0106875
	minimum = 0.0075 (at node 4)
	maximum = 0.0155 (at node 12)
Accepted packet rate average = 0.0107188
	minimum = 0.0075 (at node 1)
	maximum = 0.0155 (at node 3)
Injected flit rate average = 0.0106875
	minimum = 0.0075 (at node 4)
	maximum = 0.0155 (at node 12)
Accepted flit rate average= 0.0107188
	minimum = 0.0075 (at node 1)
	maximum = 0.0155 (at node 3)
Injected packet length average = 1
Accepted packet length average = 1
Total in-flight flits = 2 (2 measured)
latency change    = 0.0476692
throughput change = 0.0670554
Class 0:
Packet latency average = 19.8829
	minimum = 7
	maximum = 38
Network latency average = 19.8829
	minimum = 7
	maximum = 38
Slowest packet = 3230
Flit latency average = 19.925
	minimum = 7
	maximum = 38
Slowest flit = 3230
Fragmentation average = 0
	minimum = 0
	maximum = 0
Injected packet rate average = 0.010625
	minimum = 0.00766667 (at node 9)
	maximum = 0.013 (at node 11)
Accepted packet rate average = 0.0105625
	minimum = 0.00766667 (at node 6)
	maximum = 0.0133333 (at node 13)
Injected flit rate average = 0.010625
	minimum = 0.00766667 (at node 9)
	maximum = 0.013 (at node 11)
Accepted flit rate average= 0.0105625
	minimum = 0.00766667 (at node 6)
	maximum = 0.0133333 (at node 13)
Injected packet length average = 1
Accepted packet length average = 1
Total in-flight flits = 6 (6 measured)
latency change    = 0.0121005
throughput change = 0.0147929
Class 0:
Packet latency average = 19.8423
	minimum = 7
	maximum = 38
Network latency average = 19.8423
	minimum = 7
	maximum = 38
Slowest packet = 3230
Flit latency average = 19.8744
	minimum = 7
	maximum = 38
Slowest flit = 3230
Fragmentation average = 0
	minimum = 0
	maximum = 0
Injected packet rate average = 0.0105313
	minimum = 0.008 (at node 2)
	maximum = 0.013 (at node 7)
Accepted packet rate average = 0.0104531
	minimum = 0.008 (at node 8)
	maximum = 0.0135 (at node 13)
Injected flit rate average = 0.0105313
	minimum = 0.008 (at node 2)
	maximum = 0.013 (at node 7)
Accepted flit rate average= 0.0104531
	minimum = 0.008 (at node 8)
	maximum = 0.0135 (at node 13)
Injected packet length average = 1
Accepted packet length average = 1
Total in-flight flits = 8 (8 measured)
latency change    = 0.00204584
throughput change = 0.0104634
Class 0:
Packet latency average = 19.885
	minimum = 7
	maximum = 38
Network latency average = 19.885
	minimum = 7
	maximum = 38
Slowest packet = 3230
Flit latency average = 19.9113
	minimum = 7
	maximum = 38
Slowest flit = 3230
Fragmentation average = 0
	minimum = 0
	maximum = 0
Injected packet rate average = 0.010125
	minimum = 0.0076 (at node 2)
	maximum = 0.0122 (at node 7)
Accepted packet rate average = 0.01015
	minimum = 0.0078 (at node 8)
	maximum = 0.0126 (at node 13)
Injected flit rate average = 0.010125
	minimum = 0.0076 (at node 2)
	maximum = 0.0122 (at node 7)
Accepted flit rate average= 0.01015
	minimum = 0.0078 (at node 8)
	maximum = 0.0126 (at node 13)
Injected packet length average = 1
Accepted packet length average = 1
Total in-flight flits = 1 (1 measured)
latency change    = 0.00214739
throughput change = 0.0298645
Draining all recorded packets ...
Draining remaining packets ...
Time taken is 8024 cycles
Class 0:
Packet latency average = 19.7959
	minimum = 7
	maximum = 38
Network latency average = 19.7959
	minimum = 7
	maximum = 38
Slowest packet = 3927
Flit latency average = 19.7959
	minimum = 7
	maximum = 38
Slowest flit = 3927
Fragmentation average = 0
	minimum = 0
	maximum = 0
Injected packet rate average = 0.009375
	minimum = 0.005 (at node 5)
	maximum = 0.014 (at node 15)
Accepted packet rate average = 0.0091875
	minimum = 0.005 (at node 5)
	maximum = 0.014 (at node 15)
Injected flit rate average = 0.009375
	minimum = 0.005 (at node 5)
	maximum = 0.014 (at node 15)
Accepted flit rate average= 0.0091875
	minimum = 0.005 (at node 5)
	maximum = 0.014 (at node 15)
Injected packet length average = 1
Accepted packet length average = 1
Total in-flight flits = 3 (0 measured)
latency change    = 1
throughput change = 1
Class 0:
Packet latency average = 20.4103
	minimum = 7
	maximum = 39
Network latency average = 20.4103
	minimum = 7
	maximum = 39
Slowest packet = 4116
Flit latency average = 20.4103
	minimum = 7
	maximum = 39
Slowest flit = 4116
Fragmentation average = 0
	minimum = 0
	maximum = 0
Injected packet rate average = 0.00978125
	minimum = 0.0035 (at node 5)
	maximum = 0.013 (at node 15)
Accepted packet rate average = 0.00975
	minimum = 0.0035 (at node 5)
	maximum = 0.013 (at node 15)
Injected flit rate average = 0.00978125
	minimum = 0.0035 (at node 5)
	maximum = 0.013 (at node 15)
Accepted flit rate average= 0.00975
	minimum = 0.0035 (at node 5)
	maximum = 0.013 (at node 15)
Injected packet length average = 1
Accepted packet length average = 1
Total in-flight flits = 1 (0 measured)
latency change    = 0.0300995
throughput change = 0.0576923
Class 0:
Packet latency average = 19.2086
	minimum = 7
	maximum = 37
Network latency average = 19.2086
	minimum = 7
	maximum = 37
Slowest packet = 4195
Flit latency average = 19.2086
	minimum = 7
	maximum = 37
Slowest flit = 4195
Fragmentation average = 0
	minimum = 0
	maximum = 0
Injected packet rate average = 0.0103125
	minimum = 0.004 (at node 9)
	maximum = 0.019 (at node 4)
Accepted packet rate average = 0.0101875
	minimum = 0.004 (at node 6)
	maximum = 0.019 (at node 1)
Injected flit rate average = 0.0103125
	minimum = 0.004 (at node 9)
	maximum = 0.019 (at node 4)
Accepted flit rate average= 0.0101875
	minimum = 0.004 (at node 6)
	maximum = 0.019 (at node 1)
Injected packet length average = 1
Accepted packet length average = 1
Total in-flight flits = 3 (0 measured)
latency change    = 0.0625589
throughput change = 0.0429448
Warmed up ...Time used is 3000 cycles
Class 0:
Packet latency average = 19.3314
	minimum = 7
	maximum = 38
Network latency average = 19.3314
	minimum = 7
	maximum = 38
Slowest packet = 4416
Flit latency average = 19.3486
	minimum = 7
	maximum = 38
Slowest flit = 4416
Fragmentation average = 0
	minimum = 0
	maximum = 0
Injected packet rate average = 0.011
	minimum = 0.005 (at node 7)
	maximum = 0.016 (at node 3)
Accepted packet rate average = 0.0109375
	minimum = 0.005 (at node 13)
	maximum = 0.016 (at node 10)
Injected flit rate average = 0.011
	minimum = 0.005 (at node 7)
	maximum = 0.016 (at node 3)
Accepted flit rate average= 0.0109375
	minimum = 0.005 (at node 13)
	maximum = 0.016 (at node 10)
Injected packet length average = 1
Accepted packet length average = 1
Total in-flight flits = 4 (4 measured)
latency change    = 0.00635269
throughput change = 0.0685714
Class 0:
Packet latency average = 19.137
	minimum = 7
	maximum = 38
Network latency average = 19.137
	minimum = 7
	maximum = 38
Slowest packet = 4416
Flit latency average = 19.1474
	minimum = 7
	maximum = 38
Slowest flit = 4416
Fragmentation average = 0
	minimum = 0
	maximum = 0
Injected packet rate average = 0.0107812
	minimum = 0.0055 (at node 7)
	maximum = 0.015 (at node 10)
Accepted packet rate average = 0.0108125
	minimum = 0.0055 (at node 13)
	maximum = 0.0155 (at node 10)
Injected flit rate average = 0.0107812
	minimum = 0.0055 (at node 7)
	maximum = 0.015 (at node 10)
Accepted flit rate average= 0.0108125
	minimum = 0.0055 (at node 13)
	maximum = 0.0155 (at node 10)
Injected packet length average = 1
Accepted packet length average = 1
Total in-flight flits = 2 (2 measured)
latency change    = 0.0101567
throughput change = 0.0115607
Class 0:
Packet latency average = 19.3287
	minimum = 7
	maximum = 38
Network latency average = 19.3287
	minimum = 7
	maximum = 38
Slowest packet = 4416
Flit latency average = 19.3346
	minimum = 7
	maximum = 38
Slowest flit = 4416
Fragmentation average = 0
	minimum = 0
	maximum = 0
Injected packet rate average = 0.0106667
	minimum = 0.00633333 (at node 7)
	maximum = 0.0133333 (at node 2)
Accepted packet rate average = 0.0106458
	minimum = 0.00633333 (at node 13)
	maximum = 0.0133333 (at node 12)
Injected flit rate average = 0.0106667
	minimum = 0.00633333 (at node 7)
	maximum = 0.0133333 (at node 2)
Accepted flit rate average= 0.0106458
	minimum = 0.00633333 (at node 13)
	maximum = 0.0133333 (at node 12)
Injected packet length average = 1
Accepted packet length average = 1
Total in-flight flits = 4 (4 measured)
latency change    = 0.00991859
throughput change = 0.0156556
Class 0:
Packet latency average = 19.4793
	minimum = 7
	maximum = 38
Network latency average = 19.4793
	minimum = 7
	maximum = 38
Slowest packet = 4416
Flit latency average = 19.4831
	minimum = 7
	maximum = 38
Slowest flit = 4416
Fragmentation average = 0
	minimum = 0
	maximum = 0
Injected packet rate average = 0.0105938
	minimum = 0.00725 (at node 7)
	maximum = 0.0125 (at node 2)
Accepted packet rate average = 0.0106094
	minimum = 0.007 (at node 7)
	maximum = 0.01275 (at node 10)
Injected flit rate average = 0.0105938
	minimum = 0.00725 (at node 7)
	maximum = 0.0125 (at node 2)
Accepted flit rate average= 0.0106094
	minimum = 0.007 (at node 7)
	maximum = 0.01275 (at node 10)
Injected packet length average = 1
Accepted packet length average = 1
Total in-flight flits = 2 (2 measured)
latency change    = 0.00772871
throughput change = 0.00343643
Draining all recorded packets ...
Draining remaining packets ...
Time taken is 7045 cycles
Class 0:
Packet latency average = 19.0071
	minimum = 7
	maximum = 37
Network latency average = 19.0071
	minimum = 7
	maximum = 37
Slowest packet = 5039
Flit latency average = 19.0071
	minimum = 7
	maximum = 37
Slowest flit = 5039
Fragmentation average = 0
	minimum = 0
	maximum = 0
Injected packet rate average = 0.0090625
	minimum = 0.002 (at node 0)
	maximum = 0.015 (at node 9)
Accepted packet rate average = 0.00875
	minimum = 0.002 (at node 0)
	maximum = 0.015 (at node 6)
Injected flit rate average = 0.0090625
	minimum = 0.002 (at node 0)
	maximum = 0.015 (at node 9)
Accepted flit rate average= 0.00875
	minimum = 0.002 (at node 0)
	maximum = 0.015 (at node 6)
Injected packet length average = 1
Accepted packet length average = 1
Total in-flight flits = 5 (0 measured)
latency change    = 1
throughput change = 1
Class 0:
Packet latency average = 19.7007
	minimum = 7
	maximum = 37
Network latency average = 19.7007
	minimum = 7
	maximum = 37
Slowest packet = 5039
Flit latency average = 19.7007
	minimum = 7
	maximum = 37
Slowest flit = 5039
Fragmentation average = 0
	minimum = 0
	maximum = 0
Injected packet rate average = 0.00959375
	minimum = 0.003 (at node 0)
	maximum = 0.012 (at node 3)
Accepted packet rate average = 0.0095
	minimum = 0.003 (at node 0)
	maximum = 0.012 (at node 6)
Injected flit rate average = 0.00959375
	minimum = 0.003 (at node 0)
	maximum = 0.012 (at node 3)
Accepted flit rate average= 0.0095
	minimum = 0.003 (at node 0)
	maximum = 0.012 (at node 6)
Injected packet length average = 1
Accepted packet length average = 1
Total in-flight flits = 3 (0 measured)
latency change    = 0.0352026
throughput change = 0.0789474
Class 0:
Packet latency average = 19.25
	minimum = 7
	maximum = 37
Network latency average = 19.25
	minimum = 7
	maximum = 37
Slowest packet = 5339
Flit latency average = 19.25
	minimum = 7
	maximum = 37
Slowest flit = 5339
Fragmentation average = 0
	minimum = 0
	maximum = 0
Injected packet rate average = 0.01
	minimum = 0.004 (at node 14)
	maximum = 0.019 (at node 11)
Accepted packet rate average = 0.01
	minimum = 0.004 (at node 11)
	maximum = 0.019 (at node 14)
Injected flit rate average = 0.01
	minimum = 0.004 (at node 14)
	maximum = 0.019 (at node 11)
Accepted flit rate average= 0.01
	minimum = 0.004 (at node 11)
	maximum = 0.019 (at node 14)
Injected packet length average = 1
Accepted packet length average = 1
Total in-flight flits = 3 (0 measured)
latency change    = 0.0234108
throughput change = 0.05
Warmed up ...Time used is 3000 cycles
Class 0:
Packet latency average = 19.1711
	minimum = 7
	maximum = 37
Network latency average = 19.1711
	minimum = 7
	maximum = 37
Slowest packet = 5504
Flit latency average = 19.4516
	minimum = 7
	maximum = 37
Slowest flit = 5498
Fragmentation average = 0
	minimum = 0
	maximum = 0
Injected packet rate average = 0.00975
	minimum = 0.004 (at node 3)
	maximum = 0.016 (at node 7)
Accepted packet rate average = 0.0096875
	minimum = 0.006 (at node 3)
	maximum = 0.017 (at node 13)
Injected flit rate average = 0.00975
	minimum = 0.004 (at node 3)
	maximum = 0.016 (at node 7)
Accepted flit rate average= 0.0096875
	minimum = 0.006 (at node 3)
	maximum = 0.017 (at node 13)
Injected packet length average = 1
Accepted packet length average = 1
Total in-flight flits = 4 (4 measured)
latency change    = 0.00411805
throughput change = 0.0322581
Class 0:
Packet latency average = 19.5497
	minimum = 7
	maximum = 37
Network latency average = 19.5497
	minimum = 7
	maximum = 37
Slowest packet = 5504
Flit latency average = 19.6885
	minimum = 7
	maximum = 37
Slowest flit = 5498
Fragmentation average = 0
	minimum = 0
	maximum = 0
Injected packet rate average = 0.00959375
	minimum = 0.008 (at node 3)
	maximum = 0.014 (at node 7)
Accepted packet rate average = 0.00953125
	minimum = 0.0075 (at node 3)
	maximum = 0.0145 (at node 13)
Injected flit rate average = 0.00959375
	minimum = 0.008 (at node 3)
	maximum = 0.014 (at node 7)
Accepted flit rate average= 0.00953125
	minimum = 0.0075 (at node 3)
	maximum = 0.0145 (at node 13)
Injected packet length average = 1
Accepted packet length average = 1
Total in-flight flits = 5 (5 measured)
latency change    = 0.0193669
throughput change = 0.0163934
Class 0:
Packet latency average = 19.3947
	minimum = 7
	maximum = 37
Network latency average = 19.3947
	minimum = 7
	maximum = 37
Slowest packet = 5504
Flit latency average = 19.489
	minimum = 7
	maximum = 37
Slowest flit = 5498
Fragmentation average = 0
	minimum = 0
	maximum = 0
Injected packet rate average = 0.0094375
	minimum = 0.00666667 (at node 12)
	maximum = 0.0136667 (at node 7)
Accepted packet rate average = 0.00945833
	minimum = 0.00666667 (at node 3)
	maximum = 0.014 (at node 13)
Injected flit rate average = 0.0094375
	minimum = 0.00666667 (at node 12)
	maximum = 0.0136667 (at node 7)
Accepted flit rate average= 0.00945833
	minimum = 0.00666667 (at node 3)
	maximum = 0.014 (at node 13)
Injected packet length average = 1
Accepted packet length average = 1
Total in-flight flits = 2 (2 measured)
latency change    = 0.00799139
throughput change = 0.00770925
Draining all recorded packets ...
Draining remaining packets ...
Time taken is 6026 cycles
Class 0:
Packet latency average = 18.3636
	minimum = 7
	maximum = 37
Network latency average = 18.3636
	minimum = 7
	maximum = 37
Slowest packet = 5966
Flit latency average = 18.3636
	minimum = 7
	maximum = 37
Slowest flit = 5966
Fragmentation average = 0
	minimum = 0
	maximum = 0
Injected packet rate average = 0.0100625
	minimum = 0.006 (at node 11)
	maximum = 0.018 (at node 0)
Accepted packet rate average = 0.009625
	minimum = 0.005 (at node 14)
	maximum = 0.018 (at node 0)
Injected flit rate average = 0.0100625
	minimum = 0.006 (at node 11)
	maximum = 0.018 (at node 0)
Accepted flit rate average= 0.009625
	minimum = 0.005 (at node 14)
	maximum = 0.018 (at node 0)
Injected packet length average = 1
Accepted packet length average = 1
Total in-flight flits = 7 (0 measured)
latency change    = 1
throughput change = 1
Class 0:
Packet latency average = 19.2823
	minimum = 7
	maximum = 38
Network latency average = 19.2823
	minimum = 7
	maximum = 38
Slowest packet = 6220
Flit latency average = 19.2823
	minimum = 7
	maximum = 38
Slowest flit = 6220
Fragmentation average = 0
	minimum = 0
	maximum = 0
Injected packet rate average = 0.00925
	minimum = 0.006 (at node 13)
	maximum = 0.0145 (at node 0)
Accepted packet rate average = 0.0091875
	minimum = 0.006 (at node 7)
	maximum = 0.0145 (at node 0)
Injected flit rate average = 0.00925
	minimum = 0.006 (at node 13)
	maximum = 0.0145 (at node 0)
Accepted flit rate average= 0.0091875
	minimum = 0.006 (at node 7)
	maximum = 0.0145 (at node 0)
Injected packet length average = 1
Accepted packet length average = 1
Total in-flight flits = 2 (0 measured)
latency change    = 0.0476435
throughput change = 0.047619
Class 0:
Packet latency average = 19.622
	minimum = 7
	maximum = 37
Network latency average = 19.622
	minimum = 7
	maximum = 37
Slowest packet = 6251
Flit latency average = 19.622
	minimum = 7
	maximum = 37
Slowest flit = 6251
Fragmentation average = 0
	minimum = 0
	maximum = 0
Injected packet rate average = 0.0103125
	minimum = 0.004 (at node 13)
	maximum = 0.016 (at node 12)
Accepted packet rate average = 0.01025
	minimum = 0.004 (at node 7)
	maximum = 0.017 (at node 3)
Injected flit rate average = 0.0103125
	minimum = 0.004 (at node 13)
	maximum = 0.016 (at node 12)
Accepted flit rate average= 0.01025
	minimum = 0.004 (at node 7)
	maximum = 0.017 (at node 3)
Injected packet length average = 1
Accepted packet length average = 1
Total in-flight flits = 3 (0 measured)
latency change    = 0.0173091
throughput change = 0.103659
Warmed up ...Time used is 3000 cycles
Class 0:
Packet latency average = 19.8355
	minimum = 7
	maximum = 37
Network latency average = 19.8355
	minimum = 7
	maximum = 37
Slowest packet = 6422
Flit latency average = 19.8452
	minimum = 7
	maximum = 37
Slowest flit = 6414
Fragmentation average = 0
	minimum = 0
	maximum = 0
Injected packet rate average = 0.0096875
	minimum = 0.007 (at node 9)
	maximum = 0.014 (at node 7)
Accepted packet rate average = 0.0096875
	minimum = 0.007 (at node 6)
	maximum = 0.013 (at node 13)
Injected flit rate average = 0.0096875
	minimum = 0.007 (at node 9)
	maximum = 0.014 (at node 7)
Accepted flit rate average= 0.0096875
	minimum = 0.007 (at node 6)
	maximum = 0.013 (at node 13)
Injected packet length average = 1
Accepted packet length average = 1
Total in-flight flits = 3 (3 measured)
latency change    = 0.0107673
throughput change = 0.0580645
Class 0:
Packet latency average = 19.3543
	minimum = 7
	maximum = 37
Network latency average = 19.3543
	minimum = 7
	maximum = 37
Slowest packet = 6422
Flit latency average = 19.3639
	minimum = 7
	maximum = 37
Slowest flit = 6414
Fragmentation average = 0
	minimum = 0
	maximum = 0
Injected packet rate average = 0.009625
	minimum = 0.007 (at node 6)
	maximum = 0.012 (at node 8)
Accepted packet rate average = 0.00953125
	minimum = 0.0075 (at node 9)
	maximum = 0.0115 (at node 2)
Injected flit rate average = 0.009625
	minimum = 0.007 (at node 6)
	maximum = 0.012 (at node 8)
Accepted flit rate average= 0.00953125
	minimum = 0.0075 (at node 9)
	maximum = 0.0115 (at node 2)
Injected packet length average = 1
Accepted packet length average = 1
Total in-flight flits = 6 (6 measured)
latency change    = 0.0248638
throughput change = 0.0163934
Class 0:
Packet latency average = 19.214
	minimum = 7
	maximum = 37
Network latency average = 19.214
	minimum = 7
	maximum = 37
Slowest packet = 6422
Flit latency average = 19.2215
	minimum = 7
	maximum = 37
Slowest flit = 6414
Fragmentation average = 0
	minimum = 0
	maximum = 0
Injected packet rate average = 0.00933333
	minimum = 0.00733333 (at node 12)
	maximum = 0.0116667 (at node 8)
Accepted packet rate average = 0.0093125
	minimum = 0.00733333 (at node 3)
	maximum = 0.0116667 (at node 2)
Injected flit rate average = 0.00933333
	minimum = 0.00733333 (at node 12)
	maximum = 0.0116667 (at node 8)
Accepted flit rate average= 0.0093125
	minimum = 0.00733333 (at node 3)
	maximum = 0.0116667 (at node 2)
Injected packet length average = 1
Accepted packet length average = 1
Total in-flight flits = 4 (4 measured)
latency change    = 0.0073041
throughput change = 0.0234899
Class 0:
Packet latency average = 19.2308
	minimum = 7
	maximum = 37
Network latency average = 19.2308
	minimum = 7
	maximum = 37
Slowest packet = 6422
Flit latency average = 19.2362
	minimum = 7
	maximum = 37
Slowest flit = 6414
Fragmentation average = 0
	minimum = 0
	maximum = 0
Injected packet rate average = 0.00964062
	minimum = 0.008 (at node 12)
	maximum = 0.013 (at node 4)
Accepted packet rate average = 0.00959375
	minimum = 0.008 (at node 3)
	maximum = 0.01275 (at node 1)
Injected flit rate average = 0.00964062
	minimum = 0.008 (at node 12)
	maximum = 0.013 (at node 4)
Accepted flit rate average= 0.00959375
	minimum = 0.008 (at node 3)
	maximum = 0.01275 (at node 1)
Injected packet length average = 1
Accepted packet length average = 1
Total in-flight flits = 6 (6 measured)
latency change    = 0.000873874
throughput change = 0.029316
Draining all recorded packets ...
Draining remaining packets ...
Time taken is 7049 cycles
Class 0:
Packet latency average = 18.9747
	minimum = 7
	maximum = 37
Network latency average = 18.9747
	minimum = 7
	maximum = 37
Slowest packet = 7045
Flit latency average = 18.9747
	minimum = 7
	maximum = 37
Slowest flit = 7045
Fragmentation average = 0
	minimum = 0
	maximum = 0
Injected packet rate average = 0.01025
	minimum = 0.007 (at node 2)
	maximum = 0.014 (at node 1)
Accepted packet rate average = 0.009875
	minimum = 0.007 (at node 1)
	maximum = 0.014 (at node 7)
Injected flit rate average = 0.01025
	minimum = 0.007 (at node 2)
	maximum = 0.014 (at node 1)
Accepted flit rate average= 0.009875
	minimum = 0.007 (at node 1)
	maximum = 0.014 (at node 7)
Injected packet length average = 1
Accepted packet length average = 1
Total in-flight flits = 6 (0 measured)
latency change    = 1
throughput change = 1
Class 0:
Packet latency average = 19.5696
	minimum = 7
	maximum = 37
Network latency average = 19.5696
	minimum = 7
	maximum = 37
Slowest packet = 7045
Flit latency average = 19.5696
	minimum = 7
	maximum = 37
Slowest flit = 7045
Fragmentation average = 0
	minimum = 0
	maximum = 0
Injected packet rate average = 0.00990625
	minimum = 0.0075 (at node 2)
	maximum = 0.0135 (at node 1)
Accepted packet rate average = 0.009875
	minimum = 0.0075 (at node 8)
	maximum = 0.0135 (at node 4)
Injected flit rate average = 0.00990625
	minimum = 0.0075 (at node 2)
	maximum = 0.0135 (at node 1)
Accepted flit rate average= 0.009875
	minimum = 0.0075 (at node 8)
	maximum = 0.0135 (at node 4)
Injected packet length average = 1
Accepted packet length average = 1
Total in-flight flits = 1 (0 measured)
latency change    = 0.030401
throughput change = 0
Class 0:
Packet latency average = 18.5087
	minimum = 7
	maximum = 38
Network latency average = 18.5087
	minimum = 7
	maximum = 38
Slowest packet = 7408
Flit latency average = 18.5087
	minimum = 7
	maximum = 38
Slowest flit = 7408
Fragmentation average = 0
	minimum = 0
	maximum = 0
Injected packet rate average = 0.010875
	minimum = 0.005 (at node 9)
	maximum = 0.017 (at node 0)
Accepted packet rate average = 0.0108125
	minimum = 0.005 (at node 6)
	maximum = 0.017 (at node 0)
Injected flit rate average = 0.010875
	minimum = 0.005 (at node 9)
	maximum = 0.017 (at node 0)
Accepted flit rate average= 0.0108125
	minimum = 0.005 (at node 6)
	maximum = 0.017 (at node 0)
Injected packet length average = 1
Accepted packet length average = 1
Total in-flight flits = 2 (0 measured)
latency change    = 0.0573218
throughput change = 0.0867052
Warmed up ...Time used is 3000 cycles
Class 0:
Packet latency average = 18.6629
	minimum = 7
	maximum = 38
Network latency average = 18.6629
	minimum = 7
	maximum = 38
Slowest packet = 7635
Flit latency average = 18.7006
	minimum = 7
	maximum = 38
Slowest flit = 7635
Fragmentation average = 0
	minimum = 0
	maximum = 0
Injected packet rate average = 0.0110625
	minimum = 0.007 (at node 5)
	maximum = 0.016 (at node 6)
Accepted packet rate average = 0.0110625
	minimum = 0.007 (at node 3)
	maximum = 0.017 (at node 9)
Injected flit rate average = 0.0110625
	minimum = 0.007 (at node 5)
	maximum = 0.016 (at node 6)
Accepted flit rate average= 0.0110625
	minimum = 0.007 (at node 3)
	maximum = 0.017 (at node 9)
Injected packet length average = 1
Accepted packet length average = 1
Total in-flight flits = 2 (2 measured)
latency change    = 0.00826168
throughput change = 0.0225989
Class 0:
Packet latency average = 19.3362
	minimum = 7
	maximum = 38
Network latency average = 19.3362
	minimum = 7
	maximum = 38
Slowest packet = 7635
Flit latency average = 19.3514
	minimum = 7
	maximum = 38
Slowest flit = 7635
Fragmentation average = 0
	minimum = 0
	maximum = 0
Injected packet rate average = 0.0109687
	minimum = 0.006 (at node 5)
	maximum = 0.014 (at node 6)
Accepted packet rate average = 0.0109375
	minimum = 0.006 (at node 5)
	maximum = 0.0145 (at node 9)
Injected flit rate average = 0.0109687
	minimum = 0.006 (at node 5)
	maximum = 0.014 (at node 6)
Accepted flit rate average= 0.0109375
	minimum = 0.006 (at node 5)
	maximum = 0.0145 (at node 9)
Injected packet length average = 1
Accepted packet length average = 1
Total in-flight flits = 3 (3 measured)
latency change    = 0.0348233
throughput change = 0.0114286
Class 0:
Packet latency average = 19.1721
	minimum = 7
	maximum = 38
Network latency average = 19.1721
	minimum = 7
	maximum = 38
Slowest packet = 7635
Flit latency average = 19.1835
	minimum = 7
	maximum = 38
Slowest flit = 7635
Fragmentation average = 0
	minimum = 0
	maximum = 0
Injected packet rate average = 0.010375
	minimum = 0.00833333 (at node 5)
	maximum = 0.0133333 (at node 6)
Accepted packet rate average = 0.0103333
	minimum = 0.00833333 (at node 5)
	maximum = 0.0136667 (at node 9)
Injected flit rate average = 0.010375
	minimum = 0.00833333 (at node 5)
	maximum = 0.0133333 (at node 6)
Accepted flit rate average= 0.0103333
	minimum = 0.00833333 (at node 5)
	maximum = 0.0136667 (at node 9)
Injected packet length average = 1
Accepted packet length average = 1
Total in-flight flits = 4 (4 measured)
latency change    = 0.00856153
throughput change = 0.0584677
Class 0:
Packet latency average = 19.2129
	minimum = 7
	maximum = 38
Network latency average = 19.2129
	minimum = 7
	maximum = 38
Slowest packet = 7635
Flit latency average = 19.2214
	minimum = 7
	maximum = 38
Slowest flit = 7635
Fragmentation average = 0
	minimum = 0
	maximum = 0
Injected packet rate average = 0.0102813
	minimum = 0.00875 (at node 8)
	maximum = 0.0125 (at node 6)
Accepted packet rate average = 0.0102344
	minimum = 0.00875 (at node 2)
	maximum = 0.0125 (at node 9)
Injected flit rate average = 0.0102813
	minimum = 0.00875 (at node 8)
	maximum = 0.0125 (at node 6)
Accepted flit rate average= 0.0102344
	minimum = 0.00875 (at node 2)
	maximum = 0.0125 (at node 9)
Injected packet length average = 1
Accepted packet length average = 1
Total in-flight flits = 5 (5 measured)
latency change    = 0.00212352
throughput change = 0.00966921
Class 0:
Packet latency average = 19.1493
	minimum = 7
	maximum = 38
Network latency average = 19.1493
	minimum = 7
	maximum = 38
Slowest packet = 7635
Flit latency average = 19.1563
	minimum = 7
	maximum = 38
Slowest flit = 7635
Fragmentation average = 0
	minimum = 0
	maximum = 0
Injected packet rate average = 0.010275
	minimum = 0.0084 (at node 8)
	maximum = 0.0128 (at node 2)
Accepted packet rate average = 0.0102375
	minimum = 0.0082 (at node 2)
	maximum = 0.013 (at node 9)
Injected flit rate average = 0.010275
	minimum = 0.0084 (at node 8)
	maximum = 0.0128 (at node 2)
Accepted flit rate average= 0.0102375
	minimum = 0.0082 (at node 2)
	maximum = 0.013 (at node 9)
Injected packet length average = 1
Accepted packet length average = 1
Total in-flight flits = 5 (5 measured)
latency change    = 0.00331797
throughput change = 0.00030525
Class 0:
Packet latency average = 19.3489
	minimum = 7
	maximum = 38
Network latency average = 19.3489
	minimum = 7
	maximum = 38
Slowest packet = 7635
Flit latency average = 19.3543
	minimum = 7
	maximum = 38
Slowest flit = 7635
Fragmentation average = 0
	minimum = 0
	maximum = 0
Injected packet rate average = 0.0102917
	minimum = 0.0085 (at node 14)
	maximum = 0.013 (at node 2)
Accepted packet rate average = 0.0102917
	minimum = 0.0085 (at node 11)
	maximum = 0.013 (at node 8)
Injected flit rate average = 0.0102917
	minimum = 0.0085 (at node 14)
	maximum = 0.013 (at node 2)
Accepted flit rate average= 0.0102917
	minimum = 0.0085 (at node 11)
	maximum = 0.013 (at node 8)
Injected packet length average = 1
Accepted packet length average = 1
Total in-flight flits = 2 (2 measured)
latency change    = 0.0103136
throughput change = 0.00526316
Draining all recorded packets ...
Draining remaining packets ...
Time taken is 9053 cycles
Class 0:
Packet latency average = 21.9103
	minimum = 7
	maximum = 37
Network latency average = 21.9103
	minimum = 7
	maximum = 37
Slowest packet = 8526
Flit latency average = 21.9103
	minimum = 7
	maximum = 37
Slowest flit = 8526
Fragmentation average = 0
	minimum = 0
	maximum = 0
Injected packet rate average = 0.0093125
	minimum = 0.004 (at node 10)
	maximum = 0.022 (at node 2)
Accepted packet rate average = 0.0090625
	minimum = 0.004 (at node 10)
	maximum = 0.021 (at node 8)
Injected flit rate average = 0.0093125
	minimum = 0.004 (at node 10)
	maximum = 0.022 (at node 2)
Accepted flit rate average= 0.0090625
	minimum = 0.004 (at node 10)
	maximum = 0.021 (at node 8)
Injected packet length average = 1
Accepted packet length average = 1
Total in-flight flits = 4 (0 measured)
latency change    = 1
throughput change = 1
Class 0:
Packet latency average = 21.0588
	minimum = 7
	maximum = 37
Network latency average = 21.0588
	minimum = 7
	maximum = 37
Slowest packet = 8526
Flit latency average = 21.0588
	minimum = 7
	maximum = 37
Slowest flit = 8526
Fragmentation average = 0
	minimum = 0
	maximum = 0
Injected packet rate average = 0.0096875
	minimum = 0.0065 (at node 10)
	maximum = 0.0155 (at node 2)
Accepted packet rate average = 0.0095625
	minimum = 0.0065 (at node 10)
	maximum = 0.0155 (at node 8)
Injected flit rate average = 0.0096875
	minimum = 0.0065 (at node 10)
	maximum = 0.0155 (at node 2)
Accepted flit rate average= 0.0095625
	minimum = 0.0065 (at node 10)
	maximum = 0.0155 (at node 8)
Injected packet length average = 1
Accepted packet length average = 1
Total in-flight flits = 4 (0 measured)
latency change    = 0.0404354
throughput change = 0.0522876
Class 0:
Packet latency average = 19.1807
	minimum = 7
	maximum = 37
Network latency average = 19.1807
	minimum = 7
	maximum = 37
Slowest packet = 8826
Flit latency average = 19.1807
	minimum = 7
	maximum = 37
Slowest flit = 8826
Fragmentation average = 0
	minimum = 0
	maximum = 0
Injected packet rate average = 0.0103125
	minimum = 0.004 (at node 7)
	maximum = 0.015 (at node 9)
Accepted packet rate average = 0.010375
	minimum = 0.004 (at node 13)
	maximum = 0.014 (at node 4)
Injected flit rate average = 0.0103125
	minimum = 0.004 (at node 7)
	maximum = 0.015 (at node 9)
Accepted flit rate average= 0.010375
	minimum = 0.004 (at node 13)
	maximum = 0.014 (at node 4)
Injected packet length average = 1
Accepted packet length average = 1
Total in-flight flits = 3 (0 measured)
latency change    = 0.0979161
throughput change = 0.0783133
Warmed up ...Time used is 3000 cycles
Class 0:
Packet latency average = 17.7927
	minimum = 7
	maximum = 37
Network latency average = 17.7927
	minimum = 7
	maximum = 37
Slowest packet = 9007
Flit latency average = 17.8383
	minimum = 7
	maximum = 37
Slowest flit = 9007
Fragmentation average = 0
	minimum = 0
	maximum = 0
Injected packet rate average = 0.010625
	minimum = 0.001 (at node 13)
	maximum = 0.017 (at node 9)
Accepted packet rate average = 0.0104375
	minimum = 0.001 (at node 7)
	maximum = 0.016 (at node 6)
Injected flit rate average = 0.010625
	minimum = 0.001 (at node 13)
	maximum = 0.017 (at node 9)
Accepted flit rate average= 0.0104375
	minimum = 0.001 (at node 7)
	maximum = 0.016 (at node 6)
Injected packet length average = 1
Accepted packet length average = 1
Total in-flight flits = 6 (6 measured)
latency change    = 0.0780118
throughput change = 0.00598802
Class 0:
Packet latency average = 19.1287
	minimum = 7
	maximum = 37
Network latency average = 19.1287
	minimum = 7
	maximum = 37
Slowest packet = 9007
Flit latency average = 19.1395
	minimum = 7
	maximum = 37
Slowest flit = 9007
Fragmentation average = 0
	minimum = 0
	maximum = 0
Injected packet rate average = 0.0105625
	minimum = 0.0035 (at node 7)
	maximum = 0.0145 (at node 6)
Accepted packet rate average = 0.0105313
	minimum = 0.003 (at node 13)
	maximum = 0.015 (at node 6)
Injected flit rate average = 0.0105625
	minimum = 0.0035 (at node 7)
	maximum = 0.0145 (at node 6)
Accepted flit rate average= 0.0105313
	minimum = 0.003 (at node 13)
	maximum = 0.015 (at node 6)
Injected packet length average = 1
Accepted packet length average = 1
Total in-flight flits = 4 (4 measured)
latency change    = 0.0698457
throughput change = 0.00890208
Class 0:
Packet latency average = 19.3216
	minimum = 7
	maximum = 37
Network latency average = 19.3216
	minimum = 7
	maximum = 37
Slowest packet = 9007
Flit latency average = 19.3275
	minimum = 7
	maximum = 37
Slowest flit = 9007
Fragmentation average = 0
	minimum = 0
	maximum = 0
Injected packet rate average = 0.01075
	minimum = 0.00566667 (at node 7)
	maximum = 0.0153333 (at node 8)
Accepted packet rate average = 0.01075
	minimum = 0.00566667 (at node 13)
	maximum = 0.0153333 (at node 2)
Injected flit rate average = 0.01075
	minimum = 0.00566667 (at node 7)
	maximum = 0.0153333 (at node 8)
Accepted flit rate average= 0.01075
	minimum = 0.00566667 (at node 13)
	maximum = 0.0153333 (at node 2)
Injected packet length average = 1
Accepted packet length average = 1
Total in-flight flits = 3 (3 measured)
latency change    = 0.00998336
throughput change = 0.0203488
Class 0:
Packet latency average = 19.4398
	minimum = 7
	maximum = 37
Network latency average = 19.4398
	minimum = 7
	maximum = 37
Slowest packet = 9007
Flit latency average = 19.4438
	minimum = 7
	maximum = 37
Slowest flit = 9007
Fragmentation average = 0
	minimum = 0
	maximum = 0
Injected packet rate average = 0.0105313
	minimum = 0.0075 (at node 7)
	maximum = 0.015 (at node 8)
Accepted packet rate average = 0.0105625
	minimum = 0.0075 (at node 13)
	maximum = 0.015 (at node 2)
Injected flit rate average = 0.0105313
	minimum = 0.0075 (at node 7)
	maximum = 0.015 (at node 8)
Accepted flit rate average= 0.0105625
	minimum = 0.0075 (at node 13)
	maximum = 0.015 (at node 2)
Injected packet length average = 1
Accepted packet length average = 1
Total in-flight flits = 1 (1 measured)
latency change    = 0.00607949
throughput change = 0.0177515
Class 0:
Packet latency average = 19.4582
	minimum = 7
	maximum = 38
Network latency average = 19.4582
	minimum = 7
	maximum = 38
Slowest packet = 9750
Flit latency average = 19.4614
	minimum = 7
	maximum = 38
Slowest flit = 9750
Fragmentation average = 0
	minimum = 0
	maximum = 0
Injected packet rate average = 0.0103375
	minimum = 0.0072 (at node 12)
	maximum = 0.0132 (at node 8)
Accepted packet rate average = 0.01035
	minimum = 0.0072 (at node 3)
	maximum = 0.0132 (at node 2)
Injected flit rate average = 0.0103375
	minimum = 0.0072 (at node 12)
	maximum = 0.0132 (at node 8)
Accepted flit rate average= 0.01035
	minimum = 0.0072 (at node 3)
	maximum = 0.0132 (at node 2)
Injected packet length average = 1
Accepted packet length average = 1
Total in-flight flits = 2 (2 measured)
latency change    = 0.000943568
throughput change = 0.0205314
Draining all recorded packets ...
Draining remaining packets ...
Time taken is 8028 cycles
Class 0:
Packet latency average = 19.1622
	minimum = 7
	maximum = 37
Network latency average = 19.1622
	minimum = 7
	maximum = 37
Slowest packet = 9838
Flit latency average = 19.1622
	minimum = 7
	maximum = 37
Slowest flit = 9838
Fragmentation average = 0
	minimum = 0
	maximum = 0
Injected packet rate average = 0.0094375
	minimum = 0.002 (at node 6)
	maximum = 0.017 (at node 4)
Accepted packet rate average = 0.00925
	minimum = 0.002 (at node 9)
	maximum = 0.017 (at node 1)
Injected flit rate average = 0.0094375
	minimum = 0.002 (at node 6)
	maximum = 0.017 (at node 4)
Accepted flit rate average= 0.00925
	minimum = 0.002 (at node 9)
	maximum = 0.017 (at node 1)
Injected packet length average = 1
Accepted packet length average = 1
Total in-flight flits = 3 (0 measured)
latency change    = 1
throughput change = 1
Class 0:
Packet latency average = 19.1356
	minimum = 7
	maximum = 37
Network latency average = 19.1356
	minimum = 7
	maximum = 37
Slowest packet = 9838
Flit latency average = 19.1356
	minimum = 7
	maximum = 37
Slowest flit = 9838
Fragmentation average = 0
	minimum = 0
	maximum = 0
Injected packet rate average = 0.00940625
	minimum = 0.006 (at node 12)
	maximum = 0.013 (at node 4)
Accepted packet rate average = 0.00921875
	minimum = 0.0055 (at node 3)
	maximum = 0.013 (at node 1)
Injected flit rate average = 0.00940625
	minimum = 0.006 (at node 12)
	maximum = 0.013 (at node 4)
Accepted flit rate average= 0.00921875
	minimum = 0.0055 (at node 3)
	maximum = 0.013 (at node 1)
Injected packet length average = 1
Accepted packet length average = 1
Total in-flight flits = 6 (0 measured)
latency change    = 0.00138846
throughput change = 0.00338983
Class 0:
Packet latency average = 18.2775
	minimum = 7
	maximum = 37
Network latency average = 18.2775
	minimum = 7
	maximum = 37
Slowest packet = 10123
Flit latency average = 18.2775
	minimum = 7
	maximum = 37
Slowest flit = 10123
Fragmentation average = 0
	minimum = 0
	maximum = 0
Injected packet rate average = 0.01075
	minimum = 0.004 (at node 12)
	maximum = 0.02 (at node 6)
Accepted packet rate average = 0.0108125
	minimum = 0.004 (at node 1)
	maximum = 0.019 (at node 9)
Injected flit rate average = 0.01075
	minimum = 0.004 (at node 12)
	maximum = 0.02 (at node 6)
Accepted flit rate average= 0.0108125
	minimum = 0.004 (at node 1)
	maximum = 0.019 (at node 9)
Injected packet length average = 1
Accepted packet length average = 1
Total in-flight flits = 5 (0 measured)
latency change    = 0.0469505
throughput change = 0.147399
Warmed up ...Time used is 3000 cycles
Class 0:
Packet latency average = 19.3245
	minimum = 7
	maximum = 37
Network latency average = 19.3245
	minimum = 7
	maximum = 37
Slowest packet = 10297
Flit latency average = 19.3141
	minimum = 7
	maximum = 37
Slowest flit = 10297
Fragmentation average = 0
	minimum = 0
	maximum = 0
Injected packet rate average = 0.009625
	minimum = 0.004 (at node 13)
	maximum = 0.018 (at node 11)
Accepted packet rate average = 0.00975
	minimum = 0.004 (at node 7)
	maximum = 0.018 (at node 14)
Injected flit rate average = 0.009625
	minimum = 0.004 (at node 13)
	maximum = 0.018 (at node 11)
Accepted flit rate average= 0.00975
	minimum = 0.004 (at node 7)
	maximum = 0.018 (at node 14)
Injected packet length average = 1
Accepted packet length average = 1
Total in-flight flits = 3 (3 measured)
latency change    = 0.0541823
throughput change = 0.108974
Class 0:
Packet latency average = 18.6971
	minimum = 7
	maximum = 37
Network latency average = 18.6971
	minimum = 7
	maximum = 37
Slowest packet = 10297
Flit latency average = 18.7019
	minimum = 7
	maximum = 37
Slowest flit = 10297
Fragmentation average = 0
	minimum = 0
	maximum = 0
Injected packet rate average = 0.00965625
	minimum = 0.0065 (at node 13)
	maximum = 0.0145 (at node 11)
Accepted packet rate average = 0.00975
	minimum = 0.0065 (at node 7)
	maximum = 0.015 (at node 14)
Injected flit rate average = 0.00965625
	minimum = 0.0065 (at node 13)
	maximum = 0.0145 (at node 11)
Accepted flit rate average= 0.00975
	minimum = 0.0065 (at node 7)
	maximum = 0.015 (at node 14)
Injected packet length average = 1
Accepted packet length average = 1
Total in-flight flits = 2 (2 measured)
latency change    = 0.0335579
throughput change = 0
Class 0:
Packet latency average = 18.8914
	minimum = 7
	maximum = 38
Network latency average = 18.8914
	minimum = 7
	maximum = 38
Slowest packet = 10615
Flit latency average = 18.8925
	minimum = 7
	maximum = 38
Slowest flit = 10615
Fragmentation average = 0
	minimum = 0
	maximum = 0
Injected packet rate average = 0.0102292
	minimum = 0.00733333 (at node 3)
	maximum = 0.0156667 (at node 11)
Accepted packet rate average = 0.0102708
	minimum = 0.00733333 (at node 12)
	maximum = 0.016 (at node 14)
Injected flit rate average = 0.0102292
	minimum = 0.00733333 (at node 3)
	maximum = 0.0156667 (at node 11)
Accepted flit rate average= 0.0102708
	minimum = 0.00733333 (at node 12)
	maximum = 0.016 (at node 14)
Injected packet length average = 1
Accepted packet length average = 1
Total in-flight flits = 3 (3 measured)
latency change    = 0.0102864
throughput change = 0.0507099
Class 0:
Packet latency average = 19.1258
	minimum = 7
	maximum = 38
Network latency average = 19.1258
	minimum = 7
	maximum = 38
Slowest packet = 10615
Flit latency average = 19.1248
	minimum = 7
	maximum = 38
Slowest flit = 10615
Fragmentation average = 0
	minimum = 0
	maximum = 0
Injected packet rate average = 0.01025
	minimum = 0.00775 (at node 3)
	maximum = 0.01475 (at node 11)
Accepted packet rate average = 0.0102656
	minimum = 0.00725 (at node 12)
	maximum = 0.015 (at node 14)
Injected flit rate average = 0.01025
	minimum = 0.00775 (at node 3)
	maximum = 0.01475 (at node 11)
Accepted flit rate average= 0.0102656
	minimum = 0.00725 (at node 12)
	maximum = 0.015 (at node 14)
Injected packet length average = 1
Accepted packet length average = 1
Total in-flight flits = 4 (4 measured)
latency change    = 0.0122543
throughput change = 0.000507357
Class 0:
Packet latency average = 18.9393
	minimum = 7
	maximum = 38
Network latency average = 18.9393
	minimum = 7
	maximum = 38
Slowest packet = 10615
Flit latency average = 18.9397
	minimum = 7
	maximum = 38
Slowest flit = 10615
Fragmentation average = 0
	minimum = 0
	maximum = 0
Injected packet rate average = 0.0103625
	minimum = 0.0072 (at node 3)
	maximum = 0.0148 (at node 11)
Accepted packet rate average = 0.0103625
	minimum = 0.007 (at node 12)
	maximum = 0.0148 (at node 14)
Injected flit rate average = 0.0103625
	minimum = 0.0072 (at node 3)
	maximum = 0.0148 (at node 11)
Accepted flit rate average= 0.0103625
	minimum = 0.007 (at node 12)
	maximum = 0.0148 (at node 14)
Injected packet length average = 1
Accepted packet length average = 1
Total in-flight flits = 5 (5 measured)
latency change    = 0.00984441
throughput change = 0.00934861
Class 0:
Packet latency average = 18.9023
	minimum = 7
	maximum = 38
Network latency average = 18.9023
	minimum = 7
	maximum = 38
Slowest packet = 10615
Flit latency average = 18.9028
	minimum = 7
	maximum = 38
Slowest flit = 10615
Fragmentation average = 0
	minimum = 0
	maximum = 0
Injected packet rate average = 0.0102813
	minimum = 0.00733333 (at node 3)
	maximum = 0.013 (at node 4)
Accepted packet rate average = 0.0102917
	minimum = 0.00733333 (at node 12)
	maximum = 0.0131667 (at node 1)
Injected flit rate average = 0.0102813
	minimum = 0.00733333 (at node 3)
	maximum = 0.013 (at node 4)
Accepted flit rate average= 0.0102917
	minimum = 0.00733333 (at node 12)
	maximum = 0.0131667 (at node 1)
Injected packet length average = 1
Accepted packet length average = 1
Total in-flight flits = 4 (4 measured)
latency change    = 0.0019564
throughput change = 0.00688259
Draining all recorded packets ...
Draining remaining packets ...
Time taken is 9026 cycles
Class 0:
Packet latency average = 19.4176
	minimum = 7
	maximum = 37
Network latency average = 19.4176
	minimum = 7
	maximum = 37
Slowest packet = 11300
Flit latency average = 19.4176
	minimum = 7
	maximum = 37
Slowest flit = 11300
Fragmentation average = 0
	minimum = 0
	maximum = 0
Injected packet rate average = 0.01075
	minimum = 0.003 (at node 12)
	maximum = 0.015 (at node 4)
Accepted packet rate average = 0.010625
	minimum = 0.003 (at node 3)
	maximum = 0.015 (at node 1)
Injected flit rate average = 0.01075
	minimum = 0.003 (at node 12)
	maximum = 0.015 (at node 4)
Accepted flit rate average= 0.010625
	minimum = 0.003 (at node 3)
	maximum = 0.015 (at node 1)
Injected packet length average = 1
Accepted packet length average = 1
Total in-flight flits = 2 (0 measured)
latency change    = 1
throughput change = 1
Class 0:
Packet latency average = 18.9338
	minimum = 7
	maximum = 37
Network latency average = 18.9338
	minimum = 7
	maximum = 37
Slowest packet = 11300
Flit latency average = 18.9338
	minimum = 7
	maximum = 37
Slowest flit = 11300
Fragmentation average = 0
	minimum = 0
	maximum = 0
Injected packet rate average = 0.0100313
	minimum = 0.0045 (at node 12)
	maximum = 0.0135 (at node 7)
Accepted packet rate average = 0.00990625
	minimum = 0.0045 (at node 3)
	maximum = 0.0135 (at node 13)
Injected flit rate average = 0.0100313
	minimum = 0.0045 (at node 12)
	maximum = 0.0135 (at node 7)
Accepted flit rate average= 0.00990625
	minimum = 0.0045 (at node 3)
	maximum = 0.0135 (at node 13)
Injected packet length average = 1
Accepted packet length average = 1
Total in-flight flits = 4 (0 measured)
latency change    = 0.0255572
throughput change = 0.0725552
Class 0:
Packet latency average = 19.9686
	minimum = 7
	maximum = 38
Network latency average = 19.9686
	minimum = 7
	maximum = 38
Slowest packet = 11739
Flit latency average = 19.9686
	minimum = 7
	maximum = 38
Slowest flit = 11739
Fragmentation average = 0
	minimum = 0
	maximum = 0
Injected packet rate average = 0.0098125
	minimum = 0.006 (at node 5)
	maximum = 0.014 (at node 8)
Accepted packet rate average = 0.0099375
	minimum = 0.006 (at node 5)
	maximum = 0.015 (at node 2)
Injected flit rate average = 0.0098125
	minimum = 0.006 (at node 5)
	maximum = 0.014 (at node 8)
Accepted flit rate average= 0.0099375
	minimum = 0.006 (at node 5)
	maximum = 0.015 (at node 2)
Injected packet length average = 1
Accepted packet length average = 1
Total in-flight flits = 2 (0 measured)
latency change    = 0.0518215
throughput change = 0.00314465
Warmed up ...Time used is 3000 cycles
Class 0:
Packet latency average = 19.592
	minimum = 7
	maximum = 37
Network latency average = 19.592
	minimum = 7
	maximum = 37
Slowest packet = 11766
Flit latency average = 19.733
	minimum = 7
	maximum = 37
Slowest flit = 11760
Fragmentation average = 0
	minimum = 0
	maximum = 0
Injected packet rate average = 0.011
	minimum = 0.005 (at node 5)
	maximum = 0.017 (at node 0)
Accepted packet rate average = 0.011
	minimum = 0.005 (at node 5)
	maximum = 0.017 (at node 0)
Injected flit rate average = 0.011
	minimum = 0.005 (at node 5)
	maximum = 0.017 (at node 0)
Accepted flit rate average= 0.011
	minimum = 0.005 (at node 5)
	maximum = 0.017 (at node 0)
Injected packet length average = 1
Accepted packet length average = 1
Total in-flight flits = 2 (2 measured)
latency change    = 0.0192221
throughput change = 0.0965909
Class 0:
Packet latency average = 19.7082
	minimum = 7
	maximum = 37
Network latency average = 19.7082
	minimum = 7
	maximum = 37
Slowest packet = 11766
Flit latency average = 19.7825
	minimum = 7
	maximum = 37
Slowest flit = 11760
Fragmentation average = 0
	minimum = 0
	maximum = 0
Injected packet rate average = 0.0103125
	minimum = 0.0065 (at node 5)
	maximum = 0.0155 (at node 0)
Accepted packet rate average = 0.0103438
	minimum = 0.0065 (at node 5)
	maximum = 0.0155 (at node 0)
Injected flit rate average = 0.0103125
	minimum = 0.0065 (at node 5)
	maximum = 0.0155 (at node 0)
Accepted flit rate average= 0.0103438
	minimum = 0.0065 (at node 5)
	maximum = 0.0155 (at node 0)
Injected packet length average = 1
Accepted packet length average = 1
Total in-flight flits = 1 (1 measured)
latency change    = 0.00589869
throughput change = 0.0634441
Class 0:
Packet latency average = 19.3119
	minimum = 7
	maximum = 37
Network latency average = 19.3119
	minimum = 7
	maximum = 37
Slowest packet = 11766
Flit latency average = 19.3644
	minimum = 7
	maximum = 37
Slowest flit = 11760
Fragmentation average = 0
	minimum = 0
	maximum = 0
Injected packet rate average = 0.0101042
	minimum = 0.00766667 (at node 6)
	maximum = 0.0146667 (at node 0)
Accepted packet rate average = 0.0100625
	minimum = 0.00766667 (at node 9)
	maximum = 0.0146667 (at node 0)
Injected flit rate average = 0.0101042
	minimum = 0.00766667 (at node 6)
	maximum = 0.0146667 (at node 0)
Accepted flit rate average= 0.0100625
	minimum = 0.00766667 (at node 9)
	maximum = 0.0146667 (at node 0)
Injected packet length average = 1
Accepted packet length average = 1
Total in-flight flits = 4 (4 measured)
latency change    = 0.020524
throughput change = 0.0279503
Class 0:
Packet latency average = 19.7406
	minimum = 7
	maximum = 37
Network latency average = 19.7406
	minimum = 7
	maximum = 37
Slowest packet = 11766
Flit latency average = 19.779
	minimum = 7
	maximum = 37
Slowest flit = 11760
Fragmentation average = 0
	minimum = 0
	maximum = 0
Injected packet rate average = 0.00995313
	minimum = 0.0075 (at node 5)
	maximum = 0.01325 (at node 0)
Accepted packet rate average = 0.00996875
	minimum = 0.0075 (at node 5)
	maximum = 0.01325 (at node 0)
Injected flit rate average = 0.00995313
	minimum = 0.0075 (at node 5)
	maximum = 0.01325 (at node 0)
Accepted flit rate average= 0.00996875
	minimum = 0.0075 (at node 5)
	maximum = 0.01325 (at node 0)
Injected packet length average = 1
Accepted packet length average = 1
Total in-flight flits = 1 (1 measured)
latency change    = 0.0217175
throughput change = 0.00940439
Class 0:
Packet latency average = 19.5795
	minimum = 7
	maximum = 37
Network latency average = 19.5795
	minimum = 7
	maximum = 37
Slowest packet = 11766
Flit latency average = 19.6108
	minimum = 7
	maximum = 37
Slowest flit = 11760
Fragmentation average = 0
	minimum = 0
	maximum = 0
Injected packet rate average = 0.0099875
	minimum = 0.0084 (at node 15)
	maximum = 0.0122 (at node 0)
Accepted packet rate average = 0.009925
	minimum = 0.0084 (at node 15)
	maximum = 0.0122 (at node 0)
Injected flit rate average = 0.0099875
	minimum = 0.0084 (at node 15)
	maximum = 0.0122 (at node 0)
Accepted flit rate average= 0.009925
	minimum = 0.0084 (at node 15)
	maximum = 0.0122 (at node 0)
Injected packet length average = 1
Accepted packet length average = 1
Total in-flight flits = 7 (7 measured)
latency change    = 0.00822392
throughput change = 0.00440806
Draining all recorded packets ...
Draining remaining packets ...
Time taken is 8043 cycles
Class 0:
Packet latency average = 19.1696
	minimum = 7
	maximum = 38
Network latency average = 19.1696
	minimum = 7
	maximum = 38
Slowest packet = 12620
Flit latency average = 19.1696
	minimum = 7
	maximum = 38
Slowest flit = 12620
Fragmentation average = 0
	minimum = 0
	maximum = 0
Injected packet rate average = 0.0108125
	minimum = 0.006 (at node 3)
	maximum = 0.018 (at node 1)
Accepted packet rate average = 0.0106875
	minimum = 0.006 (at node 7)
	maximum = 0.018 (at node 4)
Injected flit rate average = 0.0108125
	minimum = 0.006 (at node 3)
	maximum = 0.018 (at node 1)
Accepted flit rate average= 0.0106875
	minimum = 0.006 (at node 7)
	maximum = 0.018 (at node 4)
Injected packet length average = 1
Accepted packet length average = 1
Total in-flight flits = 2 (0 measured)
latency change    = 1
throughput change = 1
Class 0:
Packet latency average = 19.5449
	minimum = 7
	maximum = 38
Network latency average = 19.5449
	minimum = 7
	maximum = 38
Slowest packet = 12620
Flit latency average = 19.5449
	minimum = 7
	maximum = 38
Slowest flit = 12620
Fragmentation average = 0
	minimum = 0
	maximum = 0
Injected packet rate average = 0.0101875
	minimum = 0.006 (at node 13)
	maximum = 0.0145 (at node 1)
Accepted packet rate average = 0.0100938
	minimum = 0.006 (at node 7)
	maximum = 0.0145 (at node 4)
Injected flit rate average = 0.0101875
	minimum = 0.006 (at node 13)
	maximum = 0.0145 (at node 1)
Accepted flit rate average= 0.0100938
	minimum = 0.006 (at node 7)
	maximum = 0.0145 (at node 4)
Injected packet length average = 1
Accepted packet length average = 1
Total in-flight flits = 3 (0 measured)
latency change    = 0.019202
throughput change = 0.0588235
Class 0:
Packet latency average = 19.52
	minimum = 7
	maximum = 37
Network latency average = 19.52
	minimum = 7
	maximum = 37
Slowest packet = 12887
Flit latency average = 19.52
	minimum = 7
	maximum = 37
Slowest flit = 12887
Fragmentation average = 0
	minimum = 0
	maximum = 0
Injected packet rate average = 0.010875
	minimum = 0.004 (at node 6)
	maximum = 0.015 (at node 0)
Accepted packet rate average = 0.0109375
	minimum = 0.004 (at node 9)
	maximum = 0.015 (at node 0)
Injected flit rate average = 0.010875
	minimum = 0.004 (at node 6)
	maximum = 0.015 (at node 0)
Accepted flit rate average= 0.0109375
	minimum = 0.004 (at node 9)
	maximum = 0.015 (at node 0)
Injected packet length average = 1
Accepted packet length average = 1
Total in-flight flits = 2 (0 measured)
latency change    = 0.00127519
throughput change = 0.0771429
Warmed up ...Time used is 3000 cycles
Class 0:
Packet latency average = 19.1159
	minimum = 7
	maximum = 38
Network latency average = 19.1159
	minimum = 7
	maximum = 38
Slowest packet = 13088
Flit latency average = 19.1571
	minimum = 7
	maximum = 38
Slowest flit = 13088
Fragmentation average = 0
	minimum = 0
	maximum = 0
Injected packet rate average = 0.0086875
	minimum = 0.004 (at node 9)
	maximum = 0.013 (at node 4)
Accepted packet rate average = 0.00875
	minimum = 0.004 (at node 6)
	maximum = 0.013 (at node 1)
Injected flit rate average = 0.0086875
	minimum = 0.004 (at node 9)
	maximum = 0.013 (at node 4)
Accepted flit rate average= 0.00875
	minimum = 0.004 (at node 6)
	maximum = 0.013 (at node 1)
Injected packet length average = 1
Accepted packet length average = 1
Total in-flight flits = 1 (1 measured)
latency change    = 0.0211372
throughput change = 0.25
Class 0:
Packet latency average = 18.57
	minimum = 7
	maximum = 38
Network latency average = 18.57
	minimum = 7
	maximum = 38
Slowest packet = 13088
Flit latency average = 18.5922
	minimum = 7
	maximum = 38
Slowest flit = 13088
Fragmentation average = 0
	minimum = 0
	maximum = 0
Injected packet rate average = 0.009625
	minimum = 0.0065 (at node 2)
	maximum = 0.015 (at node 5)
Accepted packet rate average = 0.00965625
	minimum = 0.0065 (at node 7)
	maximum = 0.015 (at node 5)
Injected flit rate average = 0.009625
	minimum = 0.0065 (at node 2)
	maximum = 0.015 (at node 5)
Accepted flit rate average= 0.00965625
	minimum = 0.0065 (at node 7)
	maximum = 0.015 (at node 5)
Injected packet length average = 1
Accepted packet length average = 1
Total in-flight flits = 1 (1 measured)
latency change    = 0.0293973
throughput change = 0.0938511
Class 0:
Packet latency average = 18.8069
	minimum = 7
	maximum = 38
Network latency average = 18.8069
	minimum = 7
	maximum = 38
Slowest packet = 13088
Flit latency average = 18.8207
	minimum = 7
	maximum = 38
Slowest flit = 13088
Fragmentation average = 0
	minimum = 0
	maximum = 0
Injected packet rate average = 0.00960417
	minimum = 0.00666667 (at node 2)
	maximum = 0.0146667 (at node 5)
Accepted packet rate average = 0.00964583
	minimum = 0.00666667 (at node 8)
	maximum = 0.0146667 (at node 5)
Injected flit rate average = 0.00960417
	minimum = 0.00666667 (at node 2)
	maximum = 0.0146667 (at node 5)
Accepted flit rate average= 0.00964583
	minimum = 0.00666667 (at node 8)
	maximum = 0.0146667 (at node 5)
Injected packet length average = 1
Accepted packet length average = 1
Total in-flight flits = 0 (0 measured)
latency change    = 0.0125969
throughput change = 0.00107991
Class 0:
Packet latency average = 18.8632
	minimum = 7
	maximum = 38
Network latency average = 18.8632
	minimum = 7
	maximum = 38
Slowest packet = 13088
Flit latency average = 18.8734
	minimum = 7
	maximum = 38
Slowest flit = 13088
Fragmentation average = 0
	minimum = 0
	maximum = 0
Injected packet rate average = 0.00965625
	minimum = 0.007 (at node 13)
	maximum = 0.014 (at node 5)
Accepted packet rate average = 0.009625
	minimum = 0.00675 (at node 7)
	maximum = 0.014 (at node 5)
Injected flit rate average = 0.00965625
	minimum = 0.007 (at node 13)
	maximum = 0.014 (at node 5)
Accepted flit rate average= 0.009625
	minimum = 0.00675 (at node 7)
	maximum = 0.014 (at node 5)
Injected packet length average = 1
Accepted packet length average = 1
Total in-flight flits = 4 (4 measured)
latency change    = 0.00298204
throughput change = 0.0021645
Class 0:
Packet latency average = 18.9492
	minimum = 7
	maximum = 38
Network latency average = 18.9492
	minimum = 7
	maximum = 38
Slowest packet = 13088
Flit latency average = 18.957
	minimum = 7
	maximum = 38
Slowest flit = 13088
Fragmentation average = 0
	minimum = 0
	maximum = 0
Injected packet rate average = 0.009875
	minimum = 0.0076 (at node 3)
	maximum = 0.0132 (at node 5)
Accepted packet rate average = 0.009875
	minimum = 0.0076 (at node 12)
	maximum = 0.0132 (at node 5)
Injected flit rate average = 0.009875
	minimum = 0.0076 (at node 3)
	maximum = 0.0132 (at node 5)
Accepted flit rate average= 0.009875
	minimum = 0.0076 (at node 12)
	maximum = 0.0132 (at node 5)
Injected packet length average = 1
Accepted packet length average = 1
Total in-flight flits = 2 (2 measured)
latency change    = 0.00454089
throughput change = 0.0253165
Draining all recorded packets ...
Draining remaining packets ...
Time taken is 8047 cycles
Class 0:
Packet latency average = 19.3611
	minimum = 7
	maximum = 37
Network latency average = 19.3611
	minimum = 7
	maximum = 37
Slowest packet = 13862
Flit latency average = 19.3611
	minimum = 7
	maximum = 37
Slowest flit = 13862
Fragmentation average = 0
	minimum = 0
	maximum = 0
Injected packet rate average = 0.009
	minimum = 0.004 (at node 4)
	maximum = 0.013 (at node 14)
Accepted packet rate average = 0.009
	minimum = 0.004 (at node 1)
	maximum = 0.013 (at node 11)
Injected flit rate average = 0.009
	minimum = 0.004 (at node 4)
	maximum = 0.013 (at node 14)
Accepted flit rate average= 0.009
	minimum = 0.004 (at node 1)
	maximum = 0.013 (at node 11)
Injected packet length average = 1
Accepted packet length average = 1
Total in-flight flits = 0 (0 measured)
latency change    = 1
throughput change = 1
Class 0:
Packet latency average = 19.9216
	minimum = 7
	maximum = 38
Network latency average = 19.9216
	minimum = 7
	maximum = 38
Slowest packet = 14006
Flit latency average = 19.9216
	minimum = 7
	maximum = 38
Slowest flit = 14006
Fragmentation average = 0
	minimum = 0
	maximum = 0
Injected packet rate average = 0.0096875
	minimum = 0.0055 (at node 6)
	maximum = 0.0125 (at node 7)
Accepted packet rate average = 0.0095625
	minimum = 0.0055 (at node 9)
	maximum = 0.0125 (at node 13)
Injected flit rate average = 0.0096875
	minimum = 0.0055 (at node 6)
	maximum = 0.0125 (at node 7)
Accepted flit rate average= 0.0095625
	minimum = 0.0055 (at node 9)
	maximum = 0.0125 (at node 13)
Injected packet length average = 1
Accepted packet length average = 1
Total in-flight flits = 4 (0 measured)
latency change    = 0.0281332
throughput change = 0.0588235
Class 0:
Packet latency average = 19.8859
	minimum = 7
	maximum = 37
Network latency average = 19.8859
	minimum = 7
	maximum = 37
Slowest packet = 14167
Flit latency average = 19.8859
	minimum = 7
	maximum = 37
Slowest flit = 14167
Fragmentation average = 0
	minimum = 0
	maximum = 0
Injected packet rate average = 0.009125
	minimum = 0.005 (at node 2)
	maximum = 0.013 (at node 1)
Accepted packet rate average = 0.0093125
	minimum = 0.005 (at node 6)
	maximum = 0.014 (at node 14)
Injected flit rate average = 0.009125
	minimum = 0.005 (at node 2)
	maximum = 0.013 (at node 1)
Accepted flit rate average= 0.0093125
	minimum = 0.005 (at node 6)
	maximum = 0.014 (at node 14)
Injected packet length average = 1
Accepted packet length average = 1
Total in-flight flits = 1 (0 measured)
latency change    = 0.00179336
throughput change = 0.0268456
Warmed up ...Time used is 3000 cycles
Class 0:
Packet latency average = 18.8301
	minimum = 7
	maximum = 37
Network latency average = 18.8301
	minimum = 7
	maximum = 37
Slowest packet = 14346
Flit latency average = 18.8182
	minimum = 7
	maximum = 37
Slowest flit = 14346
Fragmentation average = 0
	minimum = 0
	maximum = 0
Injected packet rate average = 0.0098125
	minimum = 0.005 (at node 12)
	maximum = 0.019 (at node 13)
Accepted packet rate average = 0.009625
	minimum = 0.005 (at node 3)
	maximum = 0.018 (at node 7)
Injected flit rate average = 0.0098125
	minimum = 0.005 (at node 12)
	maximum = 0.019 (at node 13)
Accepted flit rate average= 0.009625
	minimum = 0.005 (at node 3)
	maximum = 0.018 (at node 7)
Injected packet length average = 1
Accepted packet length average = 1
Total in-flight flits = 4 (4 measured)
latency change    = 0.0560721
throughput change = 0.0324675
Class 0:
Packet latency average = 18.7358
	minimum = 7
	maximum = 37
Network latency average = 18.7358
	minimum = 7
	maximum = 37
Slowest packet = 14346
Flit latency average = 18.7304
	minimum = 7
	maximum = 37
Slowest flit = 14346
Fragmentation average = 0
	minimum = 0
	maximum = 0
Injected packet rate average = 0.0100625
	minimum = 0.007 (at node 11)
	maximum = 0.0145 (at node 13)
Accepted packet rate average = 0.00996875
	minimum = 0.0065 (at node 14)
	maximum = 0.0145 (at node 7)
Injected flit rate average = 0.0100625
	minimum = 0.007 (at node 11)
	maximum = 0.0145 (at node 13)
Accepted flit rate average= 0.00996875
	minimum = 0.0065 (at node 14)
	maximum = 0.0145 (at node 7)
Injected packet length average = 1
Accepted packet length average = 1
Total in-flight flits = 4 (4 measured)
latency change    = 0.00502866
throughput change = 0.0344828
Class 0:
Packet latency average = 19.2358
	minimum = 7
	maximum = 37
Network latency average = 19.2358
	minimum = 7
	maximum = 37
Slowest packet = 14346
Flit latency average = 19.2311
	minimum = 7
	maximum = 37
Slowest flit = 14346
Fragmentation average = 0
	minimum = 0
	maximum = 0
Injected packet rate average = 0.00997917
	minimum = 0.00733333 (at node 9)
	maximum = 0.0123333 (at node 13)
Accepted packet rate average = 0.00991667
	minimum = 0.007 (at node 6)
	maximum = 0.0123333 (at node 7)
Injected flit rate average = 0.00997917
	minimum = 0.00733333 (at node 9)
	maximum = 0.0123333 (at node 13)
Accepted flit rate average= 0.00991667
	minimum = 0.007 (at node 6)
	maximum = 0.0123333 (at node 7)
Injected packet length average = 1
Accepted packet length average = 1
Total in-flight flits = 4 (4 measured)
latency change    = 0.0259901
throughput change = 0.0052521
Class 0:
[...]
	minimum = 0.004 (at node 0)
	maximum = 0.017 (at node 15)
Accepted packet rate average = 0.0091875
	minimum = 0.004 (at node 0)
	maximum = 0.016 (at node 14)
Injected flit rate average = 0.0091875
	minimum = 0.004 (at node 0)
	maximum = 0.017 (at node 15)
Accepted flit rate average= 0.0091875
	minimum = 0.004 (at node 0)
	maximum = 0.016 (at node 14)
Injected packet length average = 1
Accepted packet length average = 1
Total in-flight flits = 1 (0 measured)
latency change    = 0.0180426
throughput change = 0.204082
Warmed up ...Time used is 3000 cycles
Class 0:
Packet latency average = 19.8629
	minimum = 7
	maximum = 37
Network latency average = 19.8629
	minimum = 7
	maximum = 37
Slowest packet = 116581
Flit latency average = 19.7898
	minimum = 7
	maximum = 37
Slowest flit = 116581
Fragmentation average = 0
	minimum = 0
	maximum = 0
Injected packet rate average = 0.0110625
	minimum = 0.007 (at node 7)
	maximum = 0.017 (at node 11)
Accepted packet rate average = 0.011
	minimum = 0.007 (at node 13)
	maximum = 0.017 (at node 14)
Injected flit rate average = 0.0110625
	minimum = 0.007 (at node 7)
	maximum = 0.017 (at node 11)
Accepted flit rate average= 0.011
	minimum = 0.007 (at node 13)
	maximum = 0.017 (at node 14)
Injected packet length average = 1
Accepted packet length average = 1
Total in-flight flits = 2 (2 measured)
latency change    = 0.0444682
throughput change = 0.164773
Class 0:
Packet latency average = 19.8127
	minimum = 7
	maximum = 37
Network latency average = 19.8127
	minimum = 7
	maximum = 37
Slowest packet = 116581
Flit latency average = 19.7775
	minimum = 7
	maximum = 37
Slowest flit = 116581
Fragmentation average = 0
	minimum = 0
	maximum = 0
Injected packet rate average = 0.0114687
	minimum = 0.009 (at node 2)
	maximum = 0.0155 (at node 7)
Accepted packet rate average = 0.011375
	minimum = 0.009 (at node 8)
	maximum = 0.0155 (at node 3)
Injected flit rate average = 0.0114687
	minimum = 0.009 (at node 2)
	maximum = 0.0155 (at node 7)
Accepted flit rate average= 0.011375
	minimum = 0.009 (at node 8)
	maximum = 0.0155 (at node 3)
Injected packet length average = 1
Accepted packet length average = 1
Total in-flight flits = 4 (4 measured)
latency change    = 0.00253297
throughput change = 0.032967
Class 0:
Packet latency average = 19.6679
	minimum = 7
	maximum = 37
Network latency average = 19.6679
	minimum = 7
	maximum = 37
Slowest packet = 116581
Flit latency average = 19.6448
	minimum = 7
	maximum = 37
Slowest flit = 116581
Fragmentation average = 0
	minimum = 0
	maximum = 0
Injected packet rate average = 0.0114792
	minimum = 0.00966667 (at node 2)
	maximum = 0.0156667 (at node 7)
Accepted packet rate average = 0.0114375
	minimum = 0.00933333 (at node 8)
	maximum = 0.0153333 (at node 13)
Injected flit rate average = 0.0114792
	minimum = 0.00966667 (at node 2)
	maximum = 0.0156667 (at node 7)
Accepted flit rate average= 0.0114375
	minimum = 0.00933333 (at node 8)
	maximum = 0.0153333 (at node 13)
Injected packet length average = 1
Accepted packet length average = 1
Total in-flight flits = 3 (3 measured)
latency change    = 0.0073617
throughput change = 0.00546448
Class 0:
Packet latency average = 19.5822
	minimum = 7
	maximum = 38
Network latency average = 19.5822
	minimum = 7
	maximum = 38
Slowest packet = 117171
Flit latency average = 19.5644
	minimum = 7
	maximum = 38
Slowest flit = 117171
Fragmentation average = 0
	minimum = 0
	maximum = 0
Injected packet rate average = 0.0110781
	minimum = 0.00875 (at node 8)
	maximum = 0.014 (at node 7)
Accepted packet rate average = 0.0110469
	minimum = 0.00875 (at node 2)
	maximum = 0.014 (at node 13)
Injected flit rate average = 0.0110781
	minimum = 0.00875 (at node 8)
	maximum = 0.014 (at node 7)
Accepted flit rate average= 0.0110469
	minimum = 0.00875 (at node 2)
	maximum = 0.014 (at node 13)
Injected packet length average = 1
Accepted packet length average = 1
Total in-flight flits = 3 (3 measured)
latency change    = 0.00437798
throughput change = 0.0353607
Draining all recorded packets ...
Draining remaining packets ...
Time taken is 7053 cycles
Class 0:
Packet latency average = 18.5063
	minimum = 7
	maximum = 38
Network latency average = 18.5063
	minimum = 7
	maximum = 38
Slowest packet = 117310
Flit latency average = 18.5063
	minimum = 7
	maximum = 38
Slowest flit = 117310
Fragmentation average = 0
	minimum = 0
	maximum = 0
Injected packet rate average = 0.010125
	minimum = 0.002 (at node 3)
	maximum = 0.014 (at node 8)
Accepted packet rate average = 0.01
	minimum = 0.002 (at node 12)
	maximum = 0.014 (at node 2)
Injected flit rate average = 0.010125
	minimum = 0.002 (at node 3)
	maximum = 0.014 (at node 8)
Accepted flit rate average= 0.01
	minimum = 0.002 (at node 12)
	maximum = 0.014 (at node 2)
Injected packet length average = 1
Accepted packet length average = 1
Total in-flight flits = 2 (0 measured)
latency change    = 1
throughput change = 1
Class 0:
Packet latency average = 19.2639
	minimum = 7
	maximum = 38
Network latency average = 19.2639
	minimum = 7
	maximum = 38
Slowest packet = 117310
Flit latency average = 19.2639
	minimum = 7
	maximum = 38
Slowest flit = 117310
Fragmentation average = 0
	minimum = 0
	maximum = 0
Injected packet rate average = 0.01075
	minimum = 0.005 (at node 3)
	maximum = 0.015 (at node 13)
Accepted packet rate average = 0.0106563
	minimum = 0.005 (at node 12)
	maximum = 0.015 (at node 7)
Injected flit rate average = 0.01075
	minimum = 0.005 (at node 3)
	maximum = 0.015 (at node 13)
Accepted flit rate average= 0.0106563
	minimum = 0.005 (at node 12)
	maximum = 0.015 (at node 7)
Injected packet length average = 1
Accepted packet length average = 1
Total in-flight flits = 3 (0 measured)
latency change    = 0.0393315
throughput change = 0.0615836
Class 0:
Packet latency average = 20.3875
	minimum = 7
	maximum = 37
Network latency average = 20.3875
	minimum = 7
	maximum = 37
Slowest packet = 117648
Flit latency average = 20.3875
	minimum = 7
	maximum = 37
Slowest flit = 117648
Fragmentation average = 0
	minimum = 0
	maximum = 0
Injected packet rate average = 0.0100625
	minimum = 0.002 (at node 0)
	maximum = 0.015 (at node 3)
Accepted packet rate average = 0.01
	minimum = 0.002 (at node 0)
	maximum = 0.015 (at node 11)
Injected flit rate average = 0.0100625
	minimum = 0.002 (at node 0)
	maximum = 0.015 (at node 3)
Accepted flit rate average= 0.01
	minimum = 0.002 (at node 0)
	maximum = 0.015 (at node 11)
Injected packet length average = 1
Accepted packet length average = 1
Total in-flight flits = 4 (0 measured)
latency change    = 0.0551107
throughput change = 0.065625
Warmed up ...Time used is 3000 cycles
Class 0:
Packet latency average = 19.2833
	minimum = 7
	maximum = 38
Network latency average = 19.2833
	minimum = 7
	maximum = 38
Slowest packet = 117844
Flit latency average = 19.5054
	minimum = 7
	maximum = 38
Slowest flit = 117844
Fragmentation average = 0
	minimum = 0
	maximum = 0
Injected packet rate average = 0.011375
	minimum = 0.007 (at node 3)
	maximum = 0.016 (at node 12)
Accepted packet rate average = 0.0115
	minimum = 0.007 (at node 1)
	maximum = 0.016 (at node 3)
Injected flit rate average = 0.011375
	minimum = 0.007 (at node 3)
	maximum = 0.016 (at node 12)
Accepted flit rate average= 0.0115
	minimum = 0.007 (at node 1)
	maximum = 0.016 (at node 3)
Injected packet length average = 1
Accepted packet length average = 1
Total in-flight flits = 2 (2 measured)
latency change    = 0.0572602
throughput change = 0.130435
Class 0:
Packet latency average = 19.3519
	minimum = 7
	maximum = 38
Network latency average = 19.3519
	minimum = 7
	maximum = 38
Slowest packet = 117844
Flit latency average = 19.4696
	minimum = 7
	maximum = 38
Slowest flit = 117844
Fragmentation average = 0
	minimum = 0
	maximum = 0
Injected packet rate average = 0.0107188
	minimum = 0.0065 (at node 3)
	maximum = 0.014 (at node 6)
Accepted packet rate average = 0.0107812
	minimum = 0.0075 (at node 12)
	maximum = 0.014 (at node 9)
Injected flit rate average = 0.0107188
	minimum = 0.0065 (at node 3)
	maximum = 0.014 (at node 6)
Accepted flit rate average= 0.0107812
	minimum = 0.0075 (at node 12)
	maximum = 0.014 (at node 9)
Injected packet length average = 1
Accepted packet length average = 1
Total in-flight flits = 2 (2 measured)
latency change    = 0.00354347
throughput change = 0.0666667
Class 0:
Packet latency average = 19.1754
	minimum = 7
	maximum = 38
Network latency average = 19.1754
	minimum = 7
	maximum = 38
Slowest packet = 117844
Flit latency average = 19.2609
	minimum = 7
	maximum = 38
Slowest flit = 117844
Fragmentation average = 0
	minimum = 0
	maximum = 0
Injected packet rate average = 0.0100833
	minimum = 0.00666667 (at node 3)
	maximum = 0.0123333 (at node 15)
Accepted packet rate average = 0.0100625
	minimum = 0.00666667 (at node 12)
	maximum = 0.0123333 (at node 15)
Injected flit rate average = 0.0100833
	minimum = 0.00666667 (at node 3)
	maximum = 0.0123333 (at node 15)
Accepted flit rate average= 0.0100625
	minimum = 0.00666667 (at node 12)
	maximum = 0.0123333 (at node 15)
Injected packet length average = 1
Accepted packet length average = 1
Total in-flight flits = 5 (5 measured)
latency change    = 0.00920665
throughput change = 0.0714286
Class 0:
Packet latency average = 18.9657
	minimum = 7
	maximum = 38
Network latency average = 18.9657
	minimum = 7
	maximum = 38
Slowest packet = 117844
Flit latency average = 19.031
	minimum = 7
	maximum = 38
Slowest flit = 117844
Fragmentation average = 0
	minimum = 0
	maximum = 0
Injected packet rate average = 0.0100469
	minimum = 0.006 (at node 3)
	maximum = 0.012 (at node 15)
Accepted packet rate average = 0.0100938
	minimum = 0.0065 (at node 12)
	maximum = 0.012 (at node 4)
Injected flit rate average = 0.0100469
	minimum = 0.006 (at node 3)
	maximum = 0.012 (at node 15)
Accepted flit rate average= 0.0100938
	minimum = 0.0065 (at node 12)
	maximum = 0.012 (at node 4)
Injected packet length average = 1
Accepted packet length average = 1
Total in-flight flits = 1 (1 measured)
latency change    = 0.0110533
throughput change = 0.00309598
Class 0:
Packet latency average = 19.1453
	minimum = 7
	maximum = 38
Network latency average = 19.1453
	minimum = 7
	maximum = 38
Slowest packet = 117844
Flit latency average = 19.1961
	minimum = 7
	maximum = 38
Slowest flit = 117844
Fragmentation average = 0
	minimum = 0
	maximum = 0
Injected packet rate average = 0.0101625
	minimum = 0.007 (at node 3)
	maximum = 0.0124 (at node 0)
Accepted packet rate average = 0.0102
	minimum = 0.0072 (at node 12)
	maximum = 0.0124 (at node 0)
Injected flit rate average = 0.0101625
	minimum = 0.007 (at node 3)
	maximum = 0.0124 (at node 0)
Accepted flit rate average= 0.0102
	minimum = 0.0072 (at node 12)
	maximum = 0.0124 (at node 0)
Injected packet length average = 1
Accepted packet length average = 1
Total in-flight flits = 1 (1 measured)
latency change    = 0.00938026
throughput change = 0.0104167
Class 0:
Packet latency average = 19.1616
	minimum = 7
	maximum = 38
Network latency average = 19.1616
	minimum = 7
	maximum = 38
Slowest packet = 117844
Flit latency average = 19.2046
	minimum = 7
	maximum = 38
Slowest flit = 117844
Fragmentation average = 0
	minimum = 0
	maximum = 0
Injected packet rate average = 0.00998958
	minimum = 0.0065 (at node 3)
	maximum = 0.0123333 (at node 0)
Accepted packet rate average = 0.0100313
	minimum = 0.00683333 (at node 12)
	maximum = 0.0123333 (at node 0)
Injected flit rate average = 0.00998958
	minimum = 0.0065 (at node 3)
	maximum = 0.0123333 (at node 0)
Accepted flit rate average= 0.0100313
	minimum = 0.00683333 (at node 12)
	maximum = 0.0123333 (at node 0)
Injected packet length average = 1
Accepted packet length average = 1
Total in-flight flits = 0 (0 measured)
latency change    = 0.000850998
throughput change = 0.0168224
Draining all recorded packets ...
Draining remaining packets ...
Time taken is 9001 cycles
Class 0:
Packet latency average = 20.2093
	minimum = 7
	maximum = 37
Network latency average = 20.2093
	minimum = 7
	maximum = 37
Slowest packet = 118764
Flit latency average = 20.2093
	minimum = 7
	maximum = 37
Slowest flit = 118764
Fragmentation average = 0
	minimum = 0
	maximum = 0
Injected packet rate average = 0.011
	minimum = 0.007 (at node 5)
	maximum = 0.015 (at node 2)
Accepted packet rate average = 0.01075
	minimum = 0.007 (at node 5)
	maximum = 0.015 (at node 6)
Injected flit rate average = 0.011
	minimum = 0.007 (at node 5)
	maximum = 0.015 (at node 2)
Accepted flit rate average= 0.01075
	minimum = 0.007 (at node 5)
	maximum = 0.015 (at node 6)
Injected packet length average = 1
Accepted packet length average = 1
Total in-flight flits = 4 (0 measured)
latency change    = 1
throughput change = 1
Class 0:
Packet latency average = 20.4679
	minimum = 7
	maximum = 37
Network latency average = 20.4679
	minimum = 7
	maximum = 37
Slowest packet = 118764
Flit latency average = 20.4679
	minimum = 7
	maximum = 37
Slowest flit = 118764
Fragmentation average = 0
	minimum = 0
	maximum = 0
Injected packet rate average = 0.00990625
	minimum = 0.0065 (at node 11)
	maximum = 0.0145 (at node 2)
Accepted packet rate average = 0.00975
	minimum = 0.006 (at node 14)
	maximum = 0.014 (at node 8)
Injected flit rate average = 0.00990625
	minimum = 0.0065 (at node 11)
	maximum = 0.0145 (at node 2)
Accepted flit rate average= 0.00975
	minimum = 0.006 (at node 14)
	maximum = 0.014 (at node 8)
Injected packet length average = 1
Accepted packet length average = 1
Total in-flight flits = 5 (0 measured)
latency change    = 0.0126367
throughput change = 0.102564
Class 0:
Packet latency average = 18.6058
	minimum = 7
	maximum = 37
Network latency average = 18.6058
	minimum = 7
	maximum = 37
Slowest packet = 119072
Flit latency average = 18.6058
	minimum = 7
	maximum = 37
Slowest flit = 119072
Fragmentation average = 0
	minimum = 0
	maximum = 0
Injected packet rate average = 0.008375
	minimum = 0.004 (at node 12)
	maximum = 0.014 (at node 7)
Accepted packet rate average = 0.0085625
	minimum = 0.003 (at node 7)
	maximum = 0.015 (at node 13)
Injected flit rate average = 0.008375
	minimum = 0.004 (at node 12)
	maximum = 0.014 (at node 7)
Accepted flit rate average= 0.0085625
	minimum = 0.003 (at node 7)
	maximum = 0.015 (at node 13)
Injected packet length average = 1
Accepted packet length average = 1
Total in-flight flits = 2 (0 measured)
latency change    = 0.100082
throughput change = 0.138686
Warmed up ...Time used is 3000 cycles
Class 0:
Packet latency average = 19.6446
	minimum = 7
	maximum = 37
Network latency average = 19.6446
	minimum = 7
	maximum = 37
Slowest packet = 119213
Flit latency average = 19.6829
	minimum = 7
	maximum = 37
Slowest flit = 119213
Fragmentation average = 0
	minimum = 0
	maximum = 0
Injected packet rate average = 0.00775
	minimum = 0.006 (at node 6)
	maximum = 0.01 (at node 4)
Accepted packet rate average = 0.0076875
	minimum = 0.005 (at node 2)
	maximum = 0.01 (at node 1)
Injected flit rate average = 0.00775
	minimum = 0.006 (at node 6)
	maximum = 0.01 (at node 4)
Accepted flit rate average= 0.0076875
	minimum = 0.005 (at node 2)
	maximum = 0.01 (at node 1)
Injected packet length average = 1
Accepted packet length average = 1
Total in-flight flits = 3 (3 measured)
latency change    = 0.052879
throughput change = 0.113821
Class 0:
Packet latency average = 19.8456
	minimum = 7
	maximum = 37
Network latency average = 19.8456
	minimum = 7
	maximum = 37
Slowest packet = 119213
Flit latency average = 19.8606
	minimum = 7
	maximum = 37
Slowest flit = 119213
Fragmentation average = 0
	minimum = 0
	maximum = 0
Injected packet rate average = 0.00903125
	minimum = 0.0055 (at node 14)
	maximum = 0.0125 (at node 0)
Accepted packet rate average = 0.00896875
	minimum = 0.0055 (at node 11)
	maximum = 0.0125 (at node 0)
Injected flit rate average = 0.00903125
	minimum = 0.0055 (at node 14)
	maximum = 0.0125 (at node 0)
Accepted flit rate average= 0.00896875
	minimum = 0.0055 (at node 11)
	maximum = 0.0125 (at node 0)
Injected packet length average = 1
Accepted packet length average = 1
Total in-flight flits = 4 (4 measured)
latency change    = 0.0101275
throughput change = 0.142857
Class 0:
Packet latency average = 19.5765
	minimum = 7
	maximum = 37
Network latency average = 19.5765
	minimum = 7
	maximum = 37
Slowest packet = 119213
Flit latency average = 19.5872
	minimum = 7
	maximum = 37
Slowest flit = 119213
Fragmentation average = 0
	minimum = 0
	maximum = 0
Injected packet rate average = 0.00945833
	minimum = 0.00633333 (at node 6)
	maximum = 0.0133333 (at node 0)
Accepted packet rate average = 0.0094375
	minimum = 0.00633333 (at node 9)
	maximum = 0.0133333 (at node 0)
Injected flit rate average = 0.00945833
	minimum = 0.00633333 (at node 6)
	maximum = 0.0133333 (at node 0)
Accepted flit rate average= 0.0094375
	minimum = 0.00633333 (at node 9)
	maximum = 0.0133333 (at node 0)
Injected packet length average = 1
Accepted packet length average = 1
Total in-flight flits = 3 (3 measured)
latency change    = 0.013747
throughput change = 0.0496689
Class 0:
Packet latency average = 19.6678
	minimum = 7
	maximum = 37
Network latency average = 19.6678
	minimum = 7
	maximum = 37
Slowest packet = 119213
Flit latency average = 19.6754
	minimum = 7
	maximum = 37
Slowest flit = 119213
Fragmentation average = 0
	minimum = 0
	maximum = 0
Injected packet rate average = 0.00953125
	minimum = 0.00725 (at node 11)
	maximum = 0.01275 (at node 2)
Accepted packet rate average = 0.00953125
	minimum = 0.00725 (at node 14)
	maximum = 0.01275 (at node 8)
Injected flit rate average = 0.00953125
	minimum = 0.00725 (at node 11)
	maximum = 0.01275 (at node 2)
Accepted flit rate average= 0.00953125
	minimum = 0.00725 (at node 14)
	maximum = 0.01275 (at node 8)
Injected packet length average = 1
Accepted packet length average = 1
Total in-flight flits = 2 (2 measured)
latency change    = 0.00464041
throughput change = 0.00983607
Class 0:
Packet latency average = 19.6036
	minimum = 7
	maximum = 37
Network latency average = 19.6036
	minimum = 7
	maximum = 37
Slowest packet = 119213
Flit latency average = 19.6098
	minimum = 7
	maximum = 37
Slowest flit = 119213
Fragmentation average = 0
	minimum = 0
	maximum = 0
Injected packet rate average = 0.00975
	minimum = 0.0074 (at node 11)
	maximum = 0.0128 (at node 2)
Accepted packet rate average = 0.0097375
	minimum = 0.0074 (at node 14)
	maximum = 0.0128 (at node 8)
Injected flit rate average = 0.00975
	minimum = 0.0074 (at node 11)
	maximum = 0.0128 (at node 2)
Accepted flit rate average= 0.0097375
	minimum = 0.0074 (at node 14)
	maximum = 0.0128 (at node 8)
Injected packet length average = 1
Accepted packet length average = 1
Total in-flight flits = 3 (3 measured)
latency change    = 0.00327284
throughput change = 0.021181
Draining all recorded packets ...
Draining remaining packets ...
Time taken is 8058 cycles
====== Overall Traffic Statistics ======
====== Traffic class 0 ======
Packet latency average = 19.563 (100 samples)
	minimum = 7 (100 samples)
	maximum = 37.63 (100 samples)
Network latency average = 19.563 (100 samples)
	minimum = 7 (100 samples)
	maximum = 37.63 (100 samples)
Flit latency average = 19.5869 (100 samples)
	minimum = 7 (100 samples)
	maximum = 37.64 (100 samples)
Fragmentation average = 0 (100 samples)
	minimum = 0 (100 samples)
	maximum = 0 (100 samples)
Injected packet rate average = 0.0100178 (100 samples)
	minimum = 0.00743671 (100 samples)
	maximum = 0.0129004 (100 samples)
Accepted packet rate average = 0.0100163 (100 samples)
	minimum = 0.00743814 (100 samples)
	maximum = 0.0128934 (100 samples)
Injected flit rate average = 0.0100178 (100 samples)
	minimum = 0.00743671 (100 samples)
	maximum = 0.0129004 (100 samples)
Accepted flit rate average = 0.0100163 (100 samples)
	minimum = 0.00743814 (100 samples)
	maximum = 0.0128934 (100 samples)
Injected packet size average = 1 (100 samples)
Accepted packet size average = 1 (100 samples)
Hops average = 3.51151 (100 samples)
Total run time 4.48087
