BEGIN Configuration File: /tmp/bs_1137237_126216.cfg
topology = mesh;
k = 4;
n = 2;
routing_function = gnn_ppo_route_4x4;
num_vcs = 4;
vc_buf_size = 4;
wait_for_tail_credit = 1;
vc_allocator = islip;
sw_allocator = islip;
alloc_iters = 1;
credit_delay = 2;
routing_delay = 1;
vc_alloc_delay = 1;
sw_alloc_delay = 1;
input_speedup = 2;
output_speedup = 1;
internal_speedup = 1.0;
traffic = uniform;
packet_size = 1;
sim_type = latency;
injection_rate = 0.1;
warmup_periods = 3;
sample_period = 1000;
sim_count = 100;
seed = 0;

END Configuration File: /tmp/bs_1137237_126216.cfg
Class 0:
Packet latency average = 19.6952
	minimum = 7
	maximum = 51
Network latency average = 19.6939
	minimum = 7
	maximum = 51
Slowest packet = 1210
Flit latency average = 19.6939
	minimum = 7
	maximum = 51
Slowest flit = 1210
Fragmentation average = 0
	minimum = 0
	maximum = 0
Injected packet rate average = 0.095875
	minimum = 0.08 (at node 8)
	maximum = 0.109 (at node 10)
Accepted packet rate average = 0.094125
	minimum = 0.078 (at node 14)
	maximum = 0.107 (at node 8)
Injected flit rate average = 0.095875
	minimum = 0.08 (at node 8)
	maximum = 0.109 (at node 10)
Accepted flit rate average= 0.094125
	minimum = 0.078 (at node 14)
	maximum = 0.107 (at node 8)
Injected packet length average = 1
Accepted packet length average = 1
Total in-flight flits = 28 (0 measured)
latency change    = 1
throughput change = 1
Class 0:
Packet latency average = 19.5617
	minimum = 7
	maximum = 51
Network latency average = 19.5611
	minimum = 7
	maximum = 51
Slowest packet = 1210
Flit latency average = 19.5611
	minimum = 7
	maximum = 51
Slowest flit = 1210
Fragmentation average = 0
	minimum = 0
	maximum = 0
Injected packet rate average = 0.0950312
	minimum = 0.0835 (at node 7)
	maximum = 0.1025 (at node 13)
Accepted packet rate average = 0.0939062
	minimum = 0.0835 (at node 14)
	maximum = 0.1015 (at node 12)
Injected flit rate average = 0.0950312
	minimum = 0.0835 (at node 7)
	maximum = 0.1025 (at node 13)
Accepted flit rate average= 0.0939062
	minimum = 0.0835 (at node 14)
	maximum = 0.1015 (at node 12)
Injected packet length average = 1
Accepted packet length average = 1
Total in-flight flits = 36 (0 measured)
latency change    = 0.00682397
throughput change = 0.00232945
Class 0:
Packet latency average = 20.0152
	minimum = 7
	maximum = 48
Network latency average = 20.0152
	minimum = 7
	maximum = 48
Slowest packet = 4130
Flit latency average = 20.0152
	minimum = 7
	maximum = 48
Slowest flit = 4130
Fragmentation average = 0
	minimum = 0
	maximum = 0
Injected packet rate average = 0.102813
	minimum = 0.093 (at node 0)
	maximum = 0.116 (at node 6)
Accepted packet rate average = 0.103
	minimum = 0.088 (at node 4)
	maximum = 0.125 (at node 6)
Injected flit rate average = 0.102813
	minimum = 0.093 (at node 0)
	maximum = 0.116 (at node 6)
Accepted flit rate average= 0.103
	minimum = 0.088 (at node 4)
	maximum = 0.125 (at node 6)
Injected packet length average = 1
Accepted packet length average = 1
Total in-flight flits = 33 (0 measured)
latency change    = 0.0226548
throughput change = 0.0882888
Warmed up ...Time used is 3000 cycles
Class 0:
Packet latency average = 20.027
	minimum = 7
	maximum = 47
Network latency average = 20.027
	minimum = 7
	maximum = 47
Slowest packet = 4795
Flit latency average = 20.073
	minimum = 7
	maximum = 47
Slowest flit = 4795
Fragmentation average = 0
	minimum = 0
	maximum = 0
Injected packet rate average = 0.099625
	minimum = 0.076 (at node 14)
	maximum = 0.124 (at node 15)
Accepted packet rate average = 0.09925
	minimum = 0.081 (at node 13)
	maximum = 0.117 (at node 1)
Injected flit rate average = 0.099625
	minimum = 0.076 (at node 14)
	maximum = 0.124 (at node 15)
Accepted flit rate average= 0.09925
	minimum = 0.081 (at node 13)
	maximum = 0.117 (at node 1)
Injected packet length average = 1
Accepted packet length average = 1
Total in-flight flits = 39 (39 measured)
latency change    = 0.000591189
throughput change = 0.0377834
Class 0:
Packet latency average = 19.9061
	minimum = 7
	maximum = 47
Network latency average = 19.9055
	minimum = 7
	maximum = 47
Slowest packet = 4795
Flit latency average = 19.9298
	minimum = 7
	maximum = 47
Slowest flit = 4795
Fragmentation average = 0
	minimum = 0
	maximum = 0
Injected packet rate average = 0.09925
	minimum = 0.088 (at node 3)
	maximum = 0.119 (at node 15)
Accepted packet rate average = 0.0992187
	minimum = 0.087 (at node 6)
	maximum = 0.1095 (at node 11)
Injected flit rate average = 0.09925
	minimum = 0.088 (at node 3)
	maximum = 0.119 (at node 15)
Accepted flit rate average= 0.0992187
	minimum = 0.087 (at node 6)
	maximum = 0.1095 (at node 11)
Injected packet length average = 1
Accepted packet length average = 1
Total in-flight flits = 34 (34 measured)
latency change    = 0.00607346
throughput change = 0.000314961
Class 0:
Packet latency average = 20.0259
	minimum = 7
	maximum = 47
Network latency average = 20.0245
	minimum = 7
	maximum = 47
Slowest packet = 4795
Flit latency average = 20.0398
	minimum = 7
	maximum = 47
Slowest flit = 4795
Fragmentation average = 0
	minimum = 0
	maximum = 0
Injected packet rate average = 0.0993542
	minimum = 0.092 (at node 14)
	maximum = 0.115667 (at node 15)
Accepted packet rate average = 0.0994792
	minimum = 0.088 (at node 4)
	maximum = 0.109667 (at node 11)
Injected flit rate average = 0.0993542
	minimum = 0.092 (at node 14)
	maximum = 0.115667 (at node 15)
Accepted flit rate average= 0.0994792
	minimum = 0.088 (at node 4)
	maximum = 0.109667 (at node 11)
Injected packet length average = 1
Accepted packet length average = 1
Total in-flight flits = 27 (27 measured)
latency change    = 0.00598362
throughput change = 0.0026178
Draining all recorded packets ...
Draining remaining packets ...
Time taken is 6057 cycles
Class 0:
Packet latency average = 19.756
	minimum = 7
	maximum = 39
Network latency average = 19.756
	minimum = 7
	maximum = 39
Slowest packet = 9608
Flit latency average = 19.756
	minimum = 7
	maximum = 39
Slowest flit = 9608
Fragmentation average = 0
	minimum = 0
	maximum = 0
Injected packet rate average = 0.101375
	minimum = 0.087 (at node 4)
	maximum = 0.116 (at node 11)
Accepted packet rate average = 0.099125
	minimum = 0.084 (at node 9)
	maximum = 0.116 (at node 3)
Injected flit rate average = 0.101375
	minimum = 0.087 (at node 4)
	maximum = 0.116 (at node 11)
Accepted flit rate average= 0.099125
	minimum = 0.084 (at node 9)
	maximum = 0.116 (at node 3)
Injected packet length average = 1
Accepted packet length average = 1
Total in-flight flits = 36 (0 measured)
latency change    = 1
throughput change = 1
Class 0:
Packet latency average = 19.8131
	minimum = 7
	maximum = 46
Network latency average = 19.8128
	minimum = 7
	maximum = 46
Slowest packet = 12070
Flit latency average = 19.8128
	minimum = 7
	maximum = 46
Slowest flit = 12070
Fragmentation average = 0
	minimum = 0
	maximum = 0
Injected packet rate average = 0.101156
	minimum = 0.092 (at node 15)
	maximum = 0.1135 (at node 3)
Accepted packet rate average = 0.1
	minimum = 0.0825 (at node 4)
	maximum = 0.107 (at node 9)
Injected flit rate average = 0.101156
	minimum = 0.092 (at node 15)
	maximum = 0.1135 (at node 3)
Accepted flit rate average= 0.1
	minimum = 0.0825 (at node 4)
	maximum = 0.107 (at node 9)
Injected packet length average = 1
Accepted packet length average = 1
Total in-flight flits = 37 (0 measured)
latency change    = 0.0028837
throughput change = 0.00875
Class 0:
Packet latency average = 20.2622
	minimum = 7
	maximum = 47
Network latency average = 20.2622
	minimum = 7
	maximum = 47
Slowest packet = 13459
Flit latency average = 20.2622
	minimum = 7
	maximum = 47
Slowest flit = 13459
Fragmentation average = 0
	minimum = 0
	maximum = 0
Injected packet rate average = 0.097625
	minimum = 0.085 (at node 13)
	maximum = 0.113 (at node 8)
Accepted packet rate average = 0.0975
	minimum = 0.079 (at node 2)
	maximum = 0.119 (at node 10)
Injected flit rate average = 0.097625
	minimum = 0.085 (at node 13)
	maximum = 0.113 (at node 8)
Accepted flit rate average= 0.0975
	minimum = 0.079 (at node 2)
	maximum = 0.119 (at node 10)
Injected packet length average = 1
Accepted packet length average = 1
Total in-flight flits = 39 (0 measured)
latency change    = 0.0221622
throughput change = 0.025641
Warmed up ...Time used is 3000 cycles
Class 0:
Packet latency average = 19.8349
	minimum = 7
	maximum = 44
Network latency average = 19.8342
	minimum = 7
	maximum = 44
Slowest packet = 15150
Flit latency average = 19.9895
	minimum = 7
	maximum = 45
Slowest flit = 14230
Fragmentation average = 0
	minimum = 0
	maximum = 0
Injected packet rate average = 0.0945625
	minimum = 0.074 (at node 13)
	maximum = 0.108 (at node 8)
Accepted packet rate average = 0.0951875
	minimum = 0.076 (at node 6)
	maximum = 0.107 (at node 5)
Injected flit rate average = 0.0945625
	minimum = 0.074 (at node 13)
	maximum = 0.108 (at node 8)
Accepted flit rate average= 0.0951875
	minimum = 0.076 (at node 6)
	maximum = 0.107 (at node 5)
Injected packet length average = 1
Accepted packet length average = 1
Total in-flight flits = 29 (29 measured)
latency change    = 0.0215415
throughput change = 0.0242942
Class 0:
Packet latency average = 19.9204
	minimum = 7
	maximum = 44
Network latency average = 19.9191
	minimum = 7
	maximum = 44
Slowest packet = 15150
Flit latency average = 19.9945
	minimum = 7
	maximum = 45
Slowest flit = 14230
Fragmentation average = 0
	minimum = 0
	maximum = 0
Injected packet rate average = 0.096375
	minimum = 0.0865 (at node 13)
	maximum = 0.103 (at node 7)
Accepted packet rate average = 0.096625
	minimum = 0.0845 (at node 10)
	maximum = 0.109 (at node 12)
Injected flit rate average = 0.096375
	minimum = 0.0865 (at node 13)
	maximum = 0.103 (at node 7)
Accepted flit rate average= 0.096625
	minimum = 0.0845 (at node 10)
	maximum = 0.109 (at node 12)
Injected packet length average = 1
Accepted packet length average = 1
Total in-flight flits = 31 (31 measured)
latency change    = 0.00429211
throughput change = 0.0148771
Class 0:
Packet latency average = 19.8399
	minimum = 7
	maximum = 44
Network latency average = 19.8391
	minimum = 7
	maximum = 44
Slowest packet = 15150
Flit latency average = 19.8891
	minimum = 7
	maximum = 45
Slowest flit = 14230
Fragmentation average = 0
	minimum = 0
	maximum = 0
Injected packet rate average = 0.098375
	minimum = 0.0896667 (at node 1)
	maximum = 0.106 (at node 0)
Accepted packet rate average = 0.0984167
	minimum = 0.089 (at node 9)
	maximum = 0.108667 (at node 12)
Injected flit rate average = 0.098375
	minimum = 0.0896667 (at node 1)
	maximum = 0.106 (at node 0)
Accepted flit rate average= 0.0984167
	minimum = 0.089 (at node 9)
	maximum = 0.108667 (at node 12)
Injected packet length average = 1
Accepted packet length average = 1
Total in-flight flits = 37 (37 measured)
latency change    = 0.00405705
throughput change = 0.0182049
Draining all recorded packets ...
Draining remaining packets ...
Time taken is 6068 cycles
Class 0:
Packet latency average = 19.5547
	minimum = 7
	maximum = 43
Network latency average = 19.5522
	minimum = 7
	maximum = 43
Slowest packet = 20147
Flit latency average = 19.5522
	minimum = 7
	maximum = 43
Slowest flit = 20147
Fragmentation average = 0
	minimum = 0
	maximum = 0
Injected packet rate average = 0.100437
	minimum = 0.087 (at node 14)
	maximum = 0.114 (at node 11)
Accepted packet rate average = 0.09825
	minimum = 0.082 (at node 12)
	maximum = 0.122 (at node 4)
Injected flit rate average = 0.100437
	minimum = 0.087 (at node 14)
	maximum = 0.114 (at node 11)
Accepted flit rate average= 0.09825
	minimum = 0.082 (at node 12)
	maximum = 0.122 (at node 4)
Injected packet length average = 1
Accepted packet length average = 1
Total in-flight flits = 35 (0 measured)
latency change    = 1
throughput change = 1
Class 0:
Packet latency average = 19.5708
	minimum = 7
	maximum = 43
Network latency average = 19.5696
	minimum = 7
	maximum = 43
Slowest packet = 20147
Flit latency average = 19.5696
	minimum = 7
	maximum = 43
Slowest flit = 20147
Fragmentation average = 0
	minimum = 0
	maximum = 0
Injected packet rate average = 0.101312
	minimum = 0.0915 (at node 1)
	maximum = 0.1135 (at node 11)
Accepted packet rate average = 0.100125
	minimum = 0.084 (at node 0)
	maximum = 0.1205 (at node 4)
Injected flit rate average = 0.101312
	minimum = 0.0915 (at node 1)
	maximum = 0.1135 (at node 11)
Accepted flit rate average= 0.100125
	minimum = 0.084 (at node 0)
	maximum = 0.1205 (at node 4)
Injected packet length average = 1
Accepted packet length average = 1
Total in-flight flits = 38 (0 measured)
latency change    = 0.000824776
throughput change = 0.0187266
Class 0:
Packet latency average = 19.9596
	minimum = 7
	maximum = 46
Network latency average = 19.9571
	minimum = 7
	maximum = 46
Slowest packet = 22732
Flit latency average = 19.9571
	minimum = 7
	maximum = 46
Slowest flit = 22732
Fragmentation average = 0
	minimum = 0
	maximum = 0
Injected packet rate average = 0.096625
	minimum = 0.077 (at node 6)
	maximum = 0.113 (at node 10)
Accepted packet rate average = 0.0975
	minimum = 0.08 (at node 12)
	maximum = 0.122 (at node 9)
Injected flit rate average = 0.096625
	minimum = 0.077 (at node 6)
	maximum = 0.113 (at node 10)
Accepted flit rate average= 0.0975
	minimum = 0.08 (at node 12)
	maximum = 0.122 (at node 9)
Injected packet length average = 1
Accepted packet length average = 1
Total in-flight flits = 24 (0 measured)
latency change    = 0.0194777
throughput change = 0.0269231
Warmed up ...Time used is 3000 cycles
Class 0:
Packet latency average = 20.0734
	minimum = 7
	maximum = 44
Network latency average = 20.0734
	minimum = 7
	maximum = 44
Slowest packet = 24907
Flit latency average = 20.0871
	minimum = 7
	maximum = 44
Slowest flit = 24907
Fragmentation average = 0
	minimum = 0
	maximum = 0
Injected packet rate average = 0.101938
	minimum = 0.076 (at node 7)
	maximum = 0.119 (at node 15)
Accepted packet rate average = 0.101187
	minimum = 0.083 (at node 11)
	maximum = 0.123 (at node 10)
Injected flit rate average = 0.101938
	minimum = 0.076 (at node 7)
	maximum = 0.119 (at node 15)
Accepted flit rate average= 0.101187
	minimum = 0.083 (at node 11)
	maximum = 0.123 (at node 10)
Injected packet length average = 1
Accepted packet length average = 1
Total in-flight flits = 36 (36 measured)
latency change    = 0.00566616
throughput change = 0.0364422
Class 0:
Packet latency average = 19.7979
	minimum = 7
	maximum = 52
Network latency average = 19.7979
	minimum = 7
	maximum = 52
Slowest packet = 26439
Flit latency average = 19.807
	minimum = 7
	maximum = 52
Slowest flit = 26439
Fragmentation average = 0
	minimum = 0
	maximum = 0
Injected packet rate average = 0.1
	minimum = 0.083 (at node 7)
	maximum = 0.11 (at node 11)
Accepted packet rate average = 0.0997187
	minimum = 0.091 (at node 14)
	maximum = 0.112 (at node 10)
Injected flit rate average = 0.1
	minimum = 0.083 (at node 7)
	maximum = 0.11 (at node 11)
Accepted flit rate average= 0.0997187
	minimum = 0.091 (at node 14)
	maximum = 0.112 (at node 10)
Injected packet length average = 1
Accepted packet length average = 1
Total in-flight flits = 33 (33 measured)
latency change    = 0.0139125
throughput change = 0.0147289
Class 0:
Packet latency average = 19.8052
	minimum = 7
	maximum = 52
Network latency average = 19.8052
	minimum = 7
	maximum = 52
Slowest packet = 26439
Flit latency average = 19.8112
	minimum = 7
	maximum = 52
Slowest flit = 26439
Fragmentation average = 0
	minimum = 0
	maximum = 0
Injected packet rate average = 0.0995625
	minimum = 0.088 (at node 7)
	maximum = 0.108 (at node 14)
Accepted packet rate average = 0.0993333
	minimum = 0.093 (at node 4)
	maximum = 0.106333 (at node 3)
Injected flit rate average = 0.0995625
	minimum = 0.088 (at node 7)
	maximum = 0.108 (at node 14)
Accepted flit rate average= 0.0993333
	minimum = 0.093 (at node 4)
	maximum = 0.106333 (at node 3)
Injected packet length average = 1
Accepted packet length average = 1
Total in-flight flits = 35 (35 measured)
latency change    = 0.000369178
throughput change = 0.00388003
Draining all recorded packets ...
Draining remaining packets ...
Time taken is 6058 cycles
Class 0:
Packet latency average = 19.5441
	minimum = 7
	maximum = 43
Network latency average = 19.5429
	minimum = 7
	maximum = 43
Slowest packet = 29114
Flit latency average = 19.5429
	minimum = 7
	maximum = 43
Slowest flit = 29114
Fragmentation average = 0
	minimum = 0
	maximum = 0
Injected packet rate average = 0.103188
	minimum = 0.09 (at node 3)
	maximum = 0.123 (at node 7)
Accepted packet rate average = 0.101312
	minimum = 0.088 (at node 1)
	maximum = 0.117 (at node 10)
Injected flit rate average = 0.103188
	minimum = 0.09 (at node 3)
	maximum = 0.123 (at node 7)
Accepted flit rate average= 0.101312
	minimum = 0.088 (at node 1)
	maximum = 0.117 (at node 10)
Injected packet length average = 1
Accepted packet length average = 1
Total in-flight flits = 30 (0 measured)
latency change    = 1
throughput change = 1
Class 0:
Packet latency average = 19.6053
	minimum = 7
	maximum = 43
Network latency average = 19.6047
	minimum = 7
	maximum = 43
Slowest packet = 29114
Flit latency average = 19.6047
	minimum = 7
	maximum = 43
Slowest flit = 29114
Fragmentation average = 0
	minimum = 0
	maximum = 0
Injected packet rate average = 0.100219
	minimum = 0.0885 (at node 15)
	maximum = 0.1165 (at node 7)
Accepted packet rate average = 0.099375
	minimum = 0.0895 (at node 12)
	maximum = 0.108 (at node 13)
Injected flit rate average = 0.100219
	minimum = 0.0885 (at node 15)
	maximum = 0.1165 (at node 7)
Accepted flit rate average= 0.099375
	minimum = 0.0895 (at node 12)
	maximum = 0.108 (at node 13)
Injected packet length average = 1
Accepted packet length average = 1
Total in-flight flits = 27 (0 measured)
latency change    = 0.0031235
throughput change = 0.0194969
Class 0:
Packet latency average = 19.7812
	minimum = 7
	maximum = 42
Network latency average = 19.7788
	minimum = 7
	maximum = 42
Slowest packet = 32124
Flit latency average = 19.7788
	minimum = 7
	maximum = 42
Slowest flit = 32124
Fragmentation average = 0
	minimum = 0
	maximum = 0
Injected packet rate average = 0.102938
	minimum = 0.089 (at node 11)
	maximum = 0.115 (at node 14)
Accepted packet rate average = 0.103125
	minimum = 0.091 (at node 7)
	maximum = 0.12 (at node 14)
Injected flit rate average = 0.102938
	minimum = 0.089 (at node 11)
	maximum = 0.115 (at node 14)
Accepted flit rate average= 0.103125
	minimum = 0.091 (at node 7)
	maximum = 0.12 (at node 14)
Injected packet length average = 1
Accepted packet length average = 1
Total in-flight flits = 24 (0 measured)
latency change    = 0.00889057
throughput change = 0.0363636
Warmed up ...Time used is 3000 cycles
Class 0:
Packet latency average = 19.5106
	minimum = 7
	maximum = 55
Network latency average = 19.5106
	minimum = 7
	maximum = 55
Slowest packet = 33599
Flit latency average = 19.5621
	minimum = 7
	maximum = 55
Slowest flit = 33599
Fragmentation average = 0
	minimum = 0
	maximum = 0
Injected packet rate average = 0.101688
	minimum = 0.074 (at node 11)
	maximum = 0.116 (at node 5)
Accepted packet rate average = 0.101625
	minimum = 0.089 (at node 8)
	maximum = 0.121 (at node 11)
Injected flit rate average = 0.101688
	minimum = 0.074 (at node 11)
	maximum = 0.116 (at node 5)
Accepted flit rate average= 0.101625
	minimum = 0.089 (at node 8)
	maximum = 0.121 (at node 11)
Injected packet length average = 1
Accepted packet length average = 1
Total in-flight flits = 25 (25 measured)
latency change    = 0.0138694
throughput change = 0.0147601
Class 0:
Packet latency average = 19.534
	minimum = 7
	maximum = 55
Network latency average = 19.534
	minimum = 7
	maximum = 55
Slowest packet = 33599
Flit latency average = 19.5602
	minimum = 7
	maximum = 55
Slowest flit = 33599
Fragmentation average = 0
	minimum = 0
	maximum = 0
Injected packet rate average = 0.0995313
	minimum = 0.085 (at node 11)
	maximum = 0.1125 (at node 13)
Accepted packet rate average = 0.0994687
	minimum = 0.0905 (at node 12)
	maximum = 0.11 (at node 3)
Injected flit rate average = 0.0995313
	minimum = 0.085 (at node 11)
	maximum = 0.1125 (at node 13)
Accepted flit rate average= 0.0994687
	minimum = 0.0905 (at node 12)
	maximum = 0.11 (at node 3)
Injected packet length average = 1
Accepted packet length average = 1
Total in-flight flits = 26 (26 measured)
latency change    = 0.00119883
throughput change = 0.0216777
Class 0:
Packet latency average = 19.6905
	minimum = 7
	maximum = 61
Network latency average = 19.688
	minimum = 7
	maximum = 61
Slowest packet = 37913
Flit latency average = 19.7047
	minimum = 7
	maximum = 61
Slowest flit = 37913
Fragmentation average = 0
	minimum = 0
	maximum = 0
Injected packet rate average = 0.0986875
	minimum = 0.0903333 (at node 11)
	maximum = 0.108333 (at node 3)
Accepted packet rate average = 0.0987083
	minimum = 0.0896667 (at node 1)
	maximum = 0.107667 (at node 3)
Injected flit rate average = 0.0986875
	minimum = 0.0903333 (at node 11)
	maximum = 0.108333 (at node 3)
Accepted flit rate average= 0.0987083
	minimum = 0.0896667 (at node 1)
	maximum = 0.107667 (at node 3)
Injected packet length average = 1
Accepted packet length average = 1
Total in-flight flits = 23 (23 measured)
latency change    = 0.0079463
throughput change = 0.00770367
Draining all recorded packets ...
Draining remaining packets ...
Time taken is 6064 cycles
Class 0:
Packet latency average = 20.2009
	minimum = 7
	maximum = 44
Network latency average = 20.1996
	minimum = 7
	maximum = 44
Slowest packet = 39819
Flit latency average = 20.1996
	minimum = 7
	maximum = 44
Slowest flit = 39819
Fragmentation average = 0
	minimum = 0
	maximum = 0
Injected packet rate average = 0.102188
	minimum = 0.083 (at node 2)
	maximum = 0.118 (at node 12)
Accepted packet rate average = 0.100187
	minimum = 0.084 (at node 2)
	maximum = 0.11 (at node 10)
Injected flit rate average = 0.102188
	minimum = 0.083 (at node 2)
	maximum = 0.118 (at node 12)
Accepted flit rate average= 0.100187
	minimum = 0.084 (at node 2)
	maximum = 0.11 (at node 10)
Injected packet length average = 1
Accepted packet length average = 1
Total in-flight flits = 32 (0 measured)
latency change    = 1
throughput change = 1
Class 0:
Packet latency average = 19.9371
	minimum = 7
	maximum = 44
Network latency average = 19.9364
	minimum = 7
	maximum = 44
Slowest packet = 39819
Flit latency average = 19.9364
	minimum = 7
	maximum = 44
Slowest flit = 39819
Fragmentation average = 0
	minimum = 0
	maximum = 0
Injected packet rate average = 0.0992813
	minimum = 0.0815 (at node 15)
	maximum = 0.114 (at node 13)
Accepted packet rate average = 0.0983125
	minimum = 0.0865 (at node 2)
	maximum = 0.1065 (at node 1)
Injected flit rate average = 0.0992813
	minimum = 0.0815 (at node 15)
	maximum = 0.114 (at node 13)
Accepted flit rate average= 0.0983125
	minimum = 0.0865 (at node 2)
	maximum = 0.1065 (at node 1)
Injected packet length average = 1
Accepted packet length average = 1
Total in-flight flits = 31 (0 measured)
latency change    = 0.0132322
throughput change = 0.0190718
Class 0:
Packet latency average = 19.8881
	minimum = 7
	maximum = 43
Network latency average = 19.8875
	minimum = 7
	maximum = 43
Slowest packet = 42975
Flit latency average = 19.8875
	minimum = 7
	maximum = 43
Slowest flit = 42975
Fragmentation average = 0
	minimum = 0
	maximum = 0
Injected packet rate average = 0.0985625
	minimum = 0.087 (at node 6)
	maximum = 0.11 (at node 7)
Accepted packet rate average = 0.098875
	minimum = 0.077 (at node 14)
	maximum = 0.115 (at node 2)
Injected flit rate average = 0.0985625
	minimum = 0.087 (at node 6)
	maximum = 0.11 (at node 7)
Accepted flit rate average= 0.098875
	minimum = 0.077 (at node 14)
	maximum = 0.115 (at node 2)
Injected packet length average = 1
Accepted packet length average = 1
Total in-flight flits = 26 (0 measured)
latency change    = 0.0024611
throughput change = 0.005689
Warmed up ...Time used is 3000 cycles
Class 0:
Packet latency average = 19.727
	minimum = 7
	maximum = 41
Network latency average = 19.727
	minimum = 7
	maximum = 41
Slowest packet = 43568
Flit latency average = 19.7532
	minimum = 7
	maximum = 41
Slowest flit = 43568
Fragmentation average = 0
	minimum = 0
	maximum = 0
Injected packet rate average = 0.097875
	minimum = 0.079 (at node 7)
	maximum = 0.111 (at node 12)
Accepted packet rate average = 0.098
	minimum = 0.083 (at node 1)
	maximum = 0.12 (at node 8)
Injected flit rate average = 0.097875
	minimum = 0.079 (at node 7)
	maximum = 0.111 (at node 12)
Accepted flit rate average= 0.098
	minimum = 0.083 (at node 1)
	maximum = 0.12 (at node 8)
Injected packet length average = 1
Accepted packet length average = 1
Total in-flight flits = 24 (24 measured)
latency change    = 0.00816843
throughput change = 0.00892857
Class 0:
Packet latency average = 19.782
	minimum = 7
	maximum = 45
Network latency average = 19.7817
	minimum = 7
	maximum = 45
Slowest packet = 45233
Flit latency average = 19.7943
	minimum = 7
	maximum = 45
Slowest flit = 45233
Fragmentation average = 0
	minimum = 0
	maximum = 0
Injected packet rate average = 0.0983125
	minimum = 0.086 (at node 7)
	maximum = 0.1085 (at node 11)
Accepted packet rate average = 0.0982813
	minimum = 0.0835 (at node 10)
	maximum = 0.114 (at node 2)
Injected flit rate average = 0.0983125
	minimum = 0.086 (at node 7)
	maximum = 0.1085 (at node 11)
Accepted flit rate average= 0.0982813
	minimum = 0.0835 (at node 10)
	maximum = 0.114 (at node 2)
Injected packet length average = 1
Accepted packet length average = 1
Total in-flight flits = 27 (27 measured)
latency change    = 0.00278048
throughput change = 0.00286169
Class 0:
Packet latency average = 19.7916
	minimum = 7
	maximum = 45
Network latency average = 19.7914
	minimum = 7
	maximum = 45
Slowest packet = 45233
Flit latency average = 19.7998
	minimum = 7
	maximum = 45
Slowest flit = 45233
Fragmentation average = 0
	minimum = 0
	maximum = 0
Injected packet rate average = 0.0981667
	minimum = 0.0876667 (at node 7)
	maximum = 0.109333 (at node 11)
Accepted packet rate average = 0.0980208
	minimum = 0.086 (at node 15)
	maximum = 0.114667 (at node 2)
Injected flit rate average = 0.0981667
	minimum = 0.0876667 (at node 7)
	maximum = 0.109333 (at node 11)
Accepted flit rate average= 0.0980208
	minimum = 0.086 (at node 15)
	maximum = 0.114667 (at node 2)
Injected packet length average = 1
Accepted packet length average = 1
Total in-flight flits = 33 (33 measured)
latency change    = 0.000487112
throughput change = 0.00265675
Draining all recorded packets ...
Draining remaining packets ...
Time taken is 6056 cycles
Class 0:
Packet latency average = 19.902
	minimum = 7
	maximum = 41
Network latency average = 19.9014
	minimum = 7
	maximum = 41
Slowest packet = 48037
Flit latency average = 19.9014
	minimum = 7
	maximum = 41
Slowest flit = 48037
Fragmentation average = 0
	minimum = 0
	maximum = 0
Injected packet rate average = 0.101187
	minimum = 0.086 (at node 1)
	maximum = 0.113 (at node 14)
Accepted packet rate average = 0.0995
	minimum = 0.08 (at node 11)
	maximum = 0.116 (at node 13)
Injected flit rate average = 0.101187
	minimum = 0.086 (at node 1)
	maximum = 0.113 (at node 14)
Accepted flit rate average= 0.0995
	minimum = 0.08 (at node 11)
	maximum = 0.116 (at node 13)
Injected packet length average = 1
Accepted packet length average = 1
Total in-flight flits = 27 (0 measured)
latency change    = 1
throughput change = 1
Class 0:
Packet latency average = 19.8044
	minimum = 7
	maximum = 46
Network latency average = 19.8041
	minimum = 7
	maximum = 46
Slowest packet = 50904
Flit latency average = 19.8041
	minimum = 7
	maximum = 46
Slowest flit = 50904
Fragmentation average = 0
	minimum = 0
	maximum = 0
Injected packet rate average = 0.101094
	minimum = 0.0915 (at node 1)
	maximum = 0.1085 (at node 14)
Accepted packet rate average = 0.100187
	minimum = 0.0875 (at node 2)
	maximum = 0.107 (at node 6)
Injected flit rate average = 0.101094
	minimum = 0.0915 (at node 1)
	maximum = 0.1085 (at node 14)
Accepted flit rate average= 0.100187
	minimum = 0.0875 (at node 2)
	maximum = 0.107 (at node 6)
Injected packet length average = 1
Accepted packet length average = 1
Total in-flight flits = 29 (0 measured)
latency change    = 0.00492722
throughput change = 0.00686213
Class 0:
Packet latency average = 19.7957
	minimum = 7
	maximum = 46
Network latency average = 19.7944
	minimum = 7
	maximum = 46
Slowest packet = 51249
Flit latency average = 19.7944
	minimum = 7
	maximum = 46
Slowest flit = 51249
Fragmentation average = 0
	minimum = 0
	maximum = 0
Injected packet rate average = 0.0985625
	minimum = 0.078 (at node 12)
	maximum = 0.119 (at node 2)
Accepted packet rate average = 0.0981875
	minimum = 0.085 (at node 3)
	maximum = 0.116 (at node 10)
Injected flit rate average = 0.0985625
	minimum = 0.078 (at node 12)
	maximum = 0.119 (at node 2)
Accepted flit rate average= 0.0981875
	minimum = 0.085 (at node 3)
	maximum = 0.116 (at node 10)
Injected packet length average = 1
Accepted packet length average = 1
Total in-flight flits = 35 (0 measured)
latency change    = 0.000442402
throughput change = 0.0203692
Warmed up ...Time used is 3000 cycles
Class 0:
Packet latency average = 19.7085
	minimum = 7
	maximum = 50
Network latency average = 19.7078
	minimum = 7
	maximum = 50
Slowest packet = 53765
Flit latency average = 19.7245
	minimum = 7
	maximum = 50
Slowest flit = 53765
Fragmentation average = 0
	minimum = 0
	maximum = 0
Injected packet rate average = 0.101375
	minimum = 0.087 (at node 0)
	maximum = 0.118 (at node 12)
Accepted packet rate average = 0.101875
	minimum = 0.081 (at node 0)
	maximum = 0.119 (at node 5)
Injected flit rate average = 0.101375
	minimum = 0.087 (at node 0)
	maximum = 0.118 (at node 12)
Accepted flit rate average= 0.101875
	minimum = 0.081 (at node 0)
	maximum = 0.119 (at node 5)
Injected packet length average = 1
Accepted packet length average = 1
Total in-flight flits = 27 (27 measured)
latency change    = 0.00442488
throughput change = 0.0361963
Class 0:
Packet latency average = 19.7412
	minimum = 7
	maximum = 50
Network latency average = 19.7409
	minimum = 7
	maximum = 50
Slowest packet = 53765
Flit latency average = 19.7488
	minimum = 7
	maximum = 50
Slowest flit = 53765
Fragmentation average = 0
	minimum = 0
	maximum = 0
Injected packet rate average = 0.102938
	minimum = 0.094 (at node 7)
	maximum = 0.1155 (at node 10)
Accepted packet rate average = 0.10325
	minimum = 0.0815 (at node 0)
	maximum = 0.112 (at node 5)
Injected flit rate average = 0.102938
	minimum = 0.094 (at node 7)
	maximum = 0.1155 (at node 10)
Accepted flit rate average= 0.10325
	minimum = 0.0815 (at node 0)
	maximum = 0.112 (at node 5)
Injected packet length average = 1
Accepted packet length average = 1
Total in-flight flits = 25 (25 measured)
latency change    = 0.00165853
throughput change = 0.0133172
Class 0:
Packet latency average = 19.8017
	minimum = 7
	maximum = 50
Network latency average = 19.8015
	minimum = 7
	maximum = 50
Slowest packet = 53765
Flit latency average = 19.8064
	minimum = 7
	maximum = 50
Slowest flit = 53765
Fragmentation average = 0
	minimum = 0
	maximum = 0
Injected packet rate average = 0.102021
	minimum = 0.0946667 (at node 4)
	maximum = 0.114 (at node 10)
Accepted packet rate average = 0.101813
	minimum = 0.087 (at node 0)
	maximum = 0.111667 (at node 3)
Injected flit rate average = 0.102021
	minimum = 0.0946667 (at node 4)
	maximum = 0.114 (at node 10)
Accepted flit rate average= 0.101813
	minimum = 0.087 (at node 0)
	maximum = 0.111667 (at node 3)
Injected packet length average = 1
Accepted packet length average = 1
Total in-flight flits = 45 (45 measured)
latency change    = 0.0030566
throughput change = 0.0141191
Draining all recorded packets ...
Draining remaining packets ...
Time taken is 6070 cycles
Class 0:
Packet latency average = 19.8456
	minimum = 7
	maximum = 45
Network latency average = 19.8443
	minimum = 7
	maximum = 45
Slowest packet = 57948
Flit latency average = 19.8443
	minimum = 7
	maximum = 45
Slowest flit = 57948
Fragmentation average = 0
	minimum = 0
	maximum = 0
Injected packet rate average = 0.100187
	minimum = 0.08 (at node 5)
	maximum = 0.117 (at node 13)
Accepted packet rate average = 0.0979375
	minimum = 0.085 (at node 6)
	maximum = 0.122 (at node 0)
Injected flit rate average = 0.100187
	minimum = 0.08 (at node 5)
	maximum = 0.117 (at node 13)
Accepted flit rate average= 0.0979375
	minimum = 0.085 (at node 6)
	maximum = 0.122 (at node 0)
Injected packet length average = 1
Accepted packet length average = 1
Total in-flight flits = 36 (0 measured)
latency change    = 1
throughput change = 1
Class 0:
Packet latency average = 19.6189
	minimum = 7
	maximum = 45
Network latency average = 19.6169
	minimum = 7
	maximum = 45
Slowest packet = 57948
Flit latency average = 19.6169
	minimum = 7
	maximum = 45
Slowest flit = 57948
Fragmentation average = 0
	minimum = 0
	maximum = 0
Injected packet rate average = 0.0997187
	minimum = 0.087 (at node 7)
	maximum = 0.108 (at node 3)
Accepted packet rate average = 0.0984687
	minimum = 0.0815 (at node 1)
	maximum = 0.116 (at node 0)
Injected flit rate average = 0.0997187
	minimum = 0.087 (at node 7)
	maximum = 0.108 (at node 3)
Accepted flit rate average= 0.0984687
	minimum = 0.0815 (at node 1)
	maximum = 0.116 (at node 0)
Injected packet length average = 1
Accepted packet length average = 1
Total in-flight flits = 40 (0 measured)
latency change    = 0.0115559
throughput change = 0.00539511
Class 0:
Packet latency average = 19.7478
	minimum = 7
	maximum = 42
Network latency average = 19.7466
	minimum = 7
	maximum = 42
Slowest packet = 60991
Flit latency average = 19.7466
	minimum = 7
	maximum = 42
Slowest flit = 60991
Fragmentation average = 0
	minimum = 0
	maximum = 0
Injected packet rate average = 0.1
	minimum = 0.09 (at node 0)
	maximum = 0.116 (at node 5)
Accepted packet rate average = 0.100375
	minimum = 0.078 (at node 8)
	maximum = 0.114 (at node 7)
Injected flit rate average = 0.1
	minimum = 0.09 (at node 0)
	maximum = 0.116 (at node 5)
Accepted flit rate average= 0.100375
	minimum = 0.078 (at node 8)
	maximum = 0.114 (at node 7)
Injected packet length average = 1
Accepted packet length average = 1
Total in-flight flits = 34 (0 measured)
latency change    = 0.00653082
throughput change = 0.0189913
Warmed up ...Time used is 3000 cycles
Class 0:
Packet latency average = 19.7087
	minimum = 7
	maximum = 42
Network latency average = 19.7067
	minimum = 7
	maximum = 42
Slowest packet = 62506
Flit latency average = 19.7105
	minimum = 7
	maximum = 42
Slowest flit = 62506
Fragmentation average = 0
	minimum = 0
	maximum = 0
Injected packet rate average = 0.0984375
	minimum = 0.078 (at node 0)
	maximum = 0.125 (at node 14)
Accepted packet rate average = 0.098875
	minimum = 0.083 (at node 5)
	maximum = 0.115 (at node 10)
Injected flit rate average = 0.0984375
	minimum = 0.078 (at node 0)
	maximum = 0.125 (at node 14)
Accepted flit rate average= 0.098875
	minimum = 0.083 (at node 5)
	maximum = 0.115 (at node 10)
Injected packet length average = 1
Accepted packet length average = 1
Total in-flight flits = 27 (27 measured)
latency change    = 0.00198716
throughput change = 0.0151707
Class 0:
Packet latency average = 19.5313
	minimum = 7
	maximum = 44
Network latency average = 19.5304
	minimum = 7
	maximum = 44
Slowest packet = 63970
Flit latency average = 19.5341
	minimum = 7
	maximum = 44
Slowest flit = 63970
Fragmentation average = 0
	minimum = 0
	maximum = 0
Injected packet rate average = 0.101125
	minimum = 0.0915 (at node 2)
	maximum = 0.119 (at node 14)
Accepted packet rate average = 0.100937
	minimum = 0.0875 (at node 4)
	maximum = 0.1095 (at node 3)
Injected flit rate average = 0.101125
	minimum = 0.0915 (at node 2)
	maximum = 0.119 (at node 14)
Accepted flit rate average= 0.100937
	minimum = 0.0875 (at node 4)
	maximum = 0.1095 (at node 3)
Injected packet length average = 1
Accepted packet length average = 1
Total in-flight flits = 40 (40 measured)
latency change    = 0.00908118
throughput change = 0.0204334
Class 0:
Packet latency average = 19.6601
	minimum = 7
	maximum = 44
Network latency average = 19.6595
	minimum = 7
	maximum = 44
Slowest packet = 63970
Flit latency average = 19.661
	minimum = 7
	maximum = 44
Slowest flit = 63970
Fragmentation average = 0
	minimum = 0
	maximum = 0
Injected packet rate average = 0.100792
	minimum = 0.0896667 (at node 2)
	maximum = 0.111333 (at node 13)
Accepted packet rate average = 0.100917
	minimum = 0.0896667 (at node 4)
	maximum = 0.11 (at node 2)
Injected flit rate average = 0.100792
	minimum = 0.0896667 (at node 2)
	maximum = 0.111333 (at node 13)
Accepted flit rate average= 0.100917
	minimum = 0.0896667 (at node 4)
	maximum = 0.11 (at node 2)
Injected packet length average = 1
Accepted packet length average = 1
Total in-flight flits = 28 (28 measured)
latency change    = 0.00655104
throughput change = 0.000206441
Draining all recorded packets ...
Draining remaining packets ...
Time taken is 6056 cycles
Class 0:
Packet latency average = 19.9711
	minimum = 7
	maximum = 46
Network latency average = 19.9699
	minimum = 7
	maximum = 46
Slowest packet = 68539
Flit latency average = 19.9699
	minimum = 7
	maximum = 46
Slowest flit = 68539
Fragmentation average = 0
	minimum = 0
	maximum = 0
Injected packet rate average = 0.099375
	minimum = 0.087 (at node 1)
	maximum = 0.12 (at node 15)
Accepted packet rate average = 0.0974375
	minimum = 0.077 (at node 10)
	maximum = 0.109 (at node 5)
Injected flit rate average = 0.099375
	minimum = 0.087 (at node 1)
	maximum = 0.12 (at node 15)
Accepted flit rate average= 0.0974375
	minimum = 0.077 (at node 10)
	maximum = 0.109 (at node 5)
Injected packet length average = 1
Accepted packet length average = 1
Total in-flight flits = 31 (0 measured)
latency change    = 1
throughput change = 1
Class 0:
Packet latency average = 19.8147
	minimum = 7
	maximum = 46
Network latency average = 19.8128
	minimum = 7
	maximum = 46
Slowest packet = 68539
Flit latency average = 19.8128
	minimum = 7
	maximum = 46
Slowest flit = 68539
Fragmentation average = 0
	minimum = 0
	maximum = 0
Injected packet rate average = 0.098875
	minimum = 0.083 (at node 10)
	maximum = 0.118 (at node 14)
Accepted packet rate average = 0.0978125
	minimum = 0.0855 (at node 7)
	maximum = 0.1105 (at node 13)
Injected flit rate average = 0.098875
	minimum = 0.083 (at node 10)
	maximum = 0.118 (at node 14)
Accepted flit rate average= 0.0978125
	minimum = 0.0855 (at node 7)
	maximum = 0.1105 (at node 13)
Injected packet length average = 1
Accepted packet length average = 1
Total in-flight flits = 34 (0 measured)
latency change    = 0.00789509
throughput change = 0.00383387
Class 0:
Packet latency average = 20.082
	minimum = 7
	maximum = 41
Network latency average = 20.082
	minimum = 7
	maximum = 41
Slowest packet = 71528
Flit latency average = 20.082
	minimum = 7
	maximum = 41
Slowest flit = 71528
Fragmentation average = 0
	minimum = 0
	maximum = 0
Injected packet rate average = 0.099375
	minimum = 0.085 (at node 7)
	maximum = 0.118 (at node 13)
Accepted packet rate average = 0.099875
	minimum = 0.079 (at node 2)
	maximum = 0.117 (at node 15)
Injected flit rate average = 0.099375
	minimum = 0.085 (at node 7)
	maximum = 0.118 (at node 13)
Accepted flit rate average= 0.099875
	minimum = 0.079 (at node 2)
	maximum = 0.117 (at node 15)
Injected packet length average = 1
Accepted packet length average = 1
Total in-flight flits = 26 (0 measured)
latency change    = 0.0133095
throughput change = 0.0206508
Warmed up ...Time used is 3000 cycles
Class 0:
Packet latency average = 19.9213
	minimum = 7
	maximum = 45
Network latency average = 19.9213
	minimum = 7
	maximum = 45
Slowest packet = 73137
Flit latency average = 19.9622
	minimum = 7
	maximum = 45
Slowest flit = 73137
Fragmentation average = 0
	minimum = 0
	maximum = 0
Injected packet rate average = 0.102563
	minimum = 0.079 (at node 6)
	maximum = 0.129 (at node 3)
Accepted packet rate average = 0.102438
	minimum = 0.082 (at node 11)
	maximum = 0.128 (at node 0)
Injected flit rate average = 0.102563
	minimum = 0.079 (at node 6)
	maximum = 0.129 (at node 3)
Accepted flit rate average= 0.102438
	minimum = 0.082 (at node 11)
	maximum = 0.128 (at node 0)
Injected packet length average = 1
Accepted packet length average = 1
Total in-flight flits = 28 (28 measured)
latency change    = 0.0080674
throughput change = 0.0250153
Class 0:
Packet latency average = 19.8483
	minimum = 7
	maximum = 45
Network latency average = 19.8483
	minimum = 7
	maximum = 45
Slowest packet = 73137
Flit latency average = 19.8696
	minimum = 7
	maximum = 45
Slowest flit = 73137
Fragmentation average = 0
	minimum = 0
	maximum = 0
Injected packet rate average = 0.101531
	minimum = 0.082 (at node 2)
	maximum = 0.1165 (at node 3)
Accepted packet rate average = 0.101156
	minimum = 0.091 (at node 10)
	maximum = 0.113 (at node 0)
Injected flit rate average = 0.101531
	minimum = 0.082 (at node 2)
	maximum = 0.1165 (at node 3)
Accepted flit rate average= 0.101156
	minimum = 0.091 (at node 10)
	maximum = 0.113 (at node 0)
Injected packet length average = 1
Accepted packet length average = 1
Total in-flight flits = 38 (38 measured)
latency change    = 0.00367441
throughput change = 0.012666
Class 0:
Packet latency average = 19.8321
	minimum = 7
	maximum = 46
Network latency average = 19.8315
	minimum = 7
	maximum = 46
Slowest packet = 75190
Flit latency average = 19.8457
	minimum = 7
	maximum = 46
Slowest flit = 75190
Fragmentation average = 0
	minimum = 0
	maximum = 0
Injected packet rate average = 0.101833
	minimum = 0.0906667 (at node 2)
	maximum = 0.111333 (at node 3)
Accepted packet rate average = 0.101667
	minimum = 0.094 (at node 10)
	maximum = 0.111 (at node 0)
Injected flit rate average = 0.101833
	minimum = 0.0906667 (at node 2)
	maximum = 0.111333 (at node 3)
Accepted flit rate average= 0.101667
	minimum = 0.094 (at node 10)
	maximum = 0.111 (at node 0)
Injected packet length average = 1
Accepted packet length average = 1
Total in-flight flits = 34 (34 measured)
latency change    = 0.000818704
throughput change = 0.00502049
Draining all recorded packets ...
Draining remaining packets ...
Time taken is 6060 cycles
Class 0:
Packet latency average = 19.7329
	minimum = 7
	maximum = 42
Network latency average = 19.7316
	minimum = 7
	maximum = 42
Slowest packet = 77829
Flit latency average = 19.7316
	minimum = 7
	maximum = 42
Slowest flit = 77829
Fragmentation average = 0
	minimum = 0
	maximum = 0
Injected packet rate average = 0.0993125
	minimum = 0.082 (at node 0)
	maximum = 0.108 (at node 4)
Accepted packet rate average = 0.096875
	minimum = 0.075 (at node 13)
	maximum = 0.115 (at node 1)
Injected flit rate average = 0.0993125
	minimum = 0.082 (at node 0)
	maximum = 0.108 (at node 4)
Accepted flit rate average= 0.096875
	minimum = 0.075 (at node 13)
	maximum = 0.115 (at node 1)
Injected packet length average = 1
Accepted packet length average = 1
Total in-flight flits = 39 (0 measured)
latency change    = 1
throughput change = 1
Class 0:
Packet latency average = 19.7608
	minimum = 7
	maximum = 46
Network latency average = 19.7602
	minimum = 7
	maximum = 46
Slowest packet = 79856
Flit latency average = 19.7602
	minimum = 7
	maximum = 46
Slowest flit = 79856
Fragmentation average = 0
	minimum = 0
	maximum = 0
Injected packet rate average = 0.098375
	minimum = 0.0865 (at node 0)
	maximum = 0.111 (at node 4)
Accepted packet rate average = 0.0973438
	minimum = 0.085 (at node 11)
	maximum = 0.1085 (at node 6)
Injected flit rate average = 0.098375
	minimum = 0.0865 (at node 0)
	maximum = 0.111 (at node 4)
Accepted flit rate average= 0.0973438
	minimum = 0.085 (at node 11)
	maximum = 0.1085 (at node 6)
Injected packet length average = 1
Accepted packet length average = 1
Total in-flight flits = 33 (0 measured)
latency change    = 0.00141347
throughput change = 0.00481541
Class 0:
Packet latency average = 19.7261
	minimum = 7
	maximum = 43
Network latency average = 19.7261
	minimum = 7
	maximum = 43
Slowest packet = 81000
Flit latency average = 19.7261
	minimum = 7
	maximum = 43
Slowest flit = 81000
Fragmentation average = 0
	minimum = 0
	maximum = 0
Injected packet rate average = 0.0993125
	minimum = 0.084 (at node 6)
	maximum = 0.113 (at node 0)
Accepted packet rate average = 0.0999375
	minimum = 0.087 (at node 6)
	maximum = 0.115 (at node 9)
Injected flit rate average = 0.0993125
	minimum = 0.084 (at node 6)
	maximum = 0.113 (at node 0)
Accepted flit rate average= 0.0999375
	minimum = 0.087 (at node 6)
	maximum = 0.115 (at node 9)
Injected packet length average = 1
Accepted packet length average = 1
Total in-flight flits = 23 (0 measured)
latency change    = 0.00176193
throughput change = 0.0259537
Warmed up ...Time used is 3000 cycles
Class 0:
Packet latency average = 20.0487
	minimum = 7
	maximum = 52
Network latency average = 20.0487
	minimum = 7
	maximum = 52
Slowest packet = 81820
Flit latency average = 20.081
	minimum = 7
	maximum = 52
Slowest flit = 81820
Fragmentation average = 0
	minimum = 0
	maximum = 0
Injected packet rate average = 0.105
	minimum = 0.092 (at node 14)
	maximum = 0.118 (at node 15)
Accepted packet rate average = 0.104188
	minimum = 0.092 (at node 11)
	maximum = 0.127 (at node 2)
Injected flit rate average = 0.105
	minimum = 0.092 (at node 14)
	maximum = 0.118 (at node 15)
Accepted flit rate average= 0.104188
	minimum = 0.092 (at node 11)
	maximum = 0.127 (at node 2)
Injected packet length average = 1
Accepted packet length average = 1
Total in-flight flits = 36 (36 measured)
latency change    = 0.01609
throughput change = 0.0407918
Class 0:
Packet latency average = 19.9622
	minimum = 7
	maximum = 52
Network latency average = 19.9622
	minimum = 7
	maximum = 52
Slowest packet = 81820
Flit latency average = 19.9792
	minimum = 7
	maximum = 52
Slowest flit = 81820
Fragmentation average = 0
	minimum = 0
	maximum = 0
Injected packet rate average = 0.102875
	minimum = 0.0935 (at node 0)
	maximum = 0.1205 (at node 15)
Accepted packet rate average = 0.102313
	minimum = 0.0945 (at node 8)
	maximum = 0.121 (at node 2)
Injected flit rate average = 0.102875
	minimum = 0.0935 (at node 0)
	maximum = 0.1205 (at node 15)
Accepted flit rate average= 0.102313
	minimum = 0.0945 (at node 8)
	maximum = 0.121 (at node 2)
Injected packet length average = 1
Accepted packet length average = 1
Total in-flight flits = 41 (41 measured)
latency change    = 0.00433301
throughput change = 0.0183262
Class 0:
Packet latency average = 19.9911
	minimum = 7
	maximum = 52
Network latency average = 19.9909
	minimum = 7
	maximum = 52
Slowest packet = 81820
Flit latency average = 20.0023
	minimum = 7
	maximum = 52
Slowest flit = 81820
Fragmentation average = 0
	minimum = 0
	maximum = 0
Injected packet rate average = 0.10175
	minimum = 0.0916667 (at node 10)
	maximum = 0.114 (at node 15)
Accepted packet rate average = 0.101583
	minimum = 0.0946667 (at node 0)
	maximum = 0.111667 (at node 2)
Injected flit rate average = 0.10175
	minimum = 0.0916667 (at node 10)
	maximum = 0.114 (at node 15)
Accepted flit rate average= 0.101583
	minimum = 0.0946667 (at node 0)
	maximum = 0.111667 (at node 2)
Injected packet length average = 1
Accepted packet length average = 1
Total in-flight flits = 31 (31 measured)
latency change    = 0.00144934
throughput change = 0.00717801
Draining all recorded packets ...
Draining remaining packets ...
Time taken is 6068 cycles
Class 0:
Packet latency average = 19.6677
	minimum = 7
	maximum = 42
Network latency average = 19.6671
	minimum = 7
	maximum = 42
Slowest packet = 87864
Flit latency average = 19.6671
	minimum = 7
	maximum = 42
Slowest flit = 87864
Fragmentation average = 0
	minimum = 0
	maximum = 0
Injected packet rate average = 0.101062
	minimum = 0.08 (at node 13)
	maximum = 0.121 (at node 4)
Accepted packet rate average = 0.099125
	minimum = 0.077 (at node 13)
	maximum = 0.112 (at node 2)
Injected flit rate average = 0.101062
	minimum = 0.08 (at node 13)
	maximum = 0.121 (at node 4)
Accepted flit rate average= 0.099125
	minimum = 0.077 (at node 13)
	maximum = 0.112 (at node 2)
Injected packet length average = 1
Accepted packet length average = 1
Total in-flight flits = 31 (0 measured)
latency change    = 1
throughput change = 1
Class 0:
Packet latency average = 19.6733
	minimum = 7
	maximum = 45
Network latency average = 19.6727
	minimum = 7
	maximum = 45
Slowest packet = 88481
Flit latency average = 19.6727
	minimum = 7
	maximum = 45
Slowest flit = 88481
Fragmentation average = 0
	minimum = 0
	maximum = 0
Injected packet rate average = 0.101688
	minimum = 0.0855 (at node 0)
	maximum = 0.1155 (at node 4)
Accepted packet rate average = 0.100625
	minimum = 0.0885 (at node 6)
	maximum = 0.113 (at node 5)
Injected flit rate average = 0.101688
	minimum = 0.0855 (at node 0)
	maximum = 0.1155 (at node 4)
Accepted flit rate average= 0.100625
	minimum = 0.0885 (at node 6)
	maximum = 0.113 (at node 5)
Injected packet length average = 1
Accepted packet length average = 1
Total in-flight flits = 34 (0 measured)
latency change    = 0.000283348
throughput change = 0.0149068
Class 0:
Packet latency average = 19.7562
	minimum = 7
	maximum = 47
Network latency average = 19.7549
	minimum = 7
	maximum = 47
Slowest packet = 91336
Flit latency average = 19.7549
	minimum = 7
	maximum = 47
Slowest flit = 91336
Fragmentation average = 0
	minimum = 0
	maximum = 0
Injected packet rate average = 0.100437
	minimum = 0.082 (at node 11)
	maximum = 0.12 (at node 9)
Accepted packet rate average = 0.10125
	minimum = 0.084 (at node 12)
	maximum = 0.125 (at node 9)
Injected flit rate average = 0.100437
	minimum = 0.082 (at node 11)
	maximum = 0.12 (at node 9)
Accepted flit rate average= 0.10125
	minimum = 0.084 (at node 12)
	maximum = 0.125 (at node 9)
Injected packet length average = 1
Accepted packet length average = 1
Total in-flight flits = 21 (0 measured)
latency change    = 0.00419519
throughput change = 0.00617284
Warmed up ...Time used is 3000 cycles
Class 0:
Packet latency average = 19.5192
	minimum = 7
	maximum = 40
Network latency average = 19.5173
	minimum = 7
	maximum = 40
Slowest packet = 91666
Flit latency average = 19.5414
	minimum = 7
	maximum = 40
Slowest flit = 91666
Fragmentation average = 0
	minimum = 0
	maximum = 0
Injected packet rate average = 0.0995
	minimum = 0.089 (at node 9)
	maximum = 0.116 (at node 5)
Accepted packet rate average = 0.0988125
	minimum = 0.068 (at node 8)
	maximum = 0.115 (at node 13)
Injected flit rate average = 0.0995
	minimum = 0.089 (at node 9)
	maximum = 0.116 (at node 5)
Accepted flit rate average= 0.0988125
	minimum = 0.068 (at node 8)
	maximum = 0.115 (at node 13)
Injected packet length average = 1
Accepted packet length average = 1
Total in-flight flits = 32 (32 measured)
latency change    = 0.0121389
throughput change = 0.0246679
Class 0:
Packet latency average = 19.6042
	minimum = 7
	maximum = 50
Network latency average = 19.6032
	minimum = 7
	maximum = 50
Slowest packet = 93559
Flit latency average = 19.6147
	minimum = 7
	maximum = 50
Slowest flit = 93559
Fragmentation average = 0
	minimum = 0
	maximum = 0
Injected packet rate average = 0.0991875
	minimum = 0.0885 (at node 3)
	maximum = 0.1115 (at node 5)
Accepted packet rate average = 0.098875
	minimum = 0.0815 (at node 8)
	maximum = 0.112 (at node 2)
Injected flit rate average = 0.0991875
	minimum = 0.0885 (at node 3)
	maximum = 0.1115 (at node 5)
Accepted flit rate average= 0.098875
	minimum = 0.0815 (at node 8)
	maximum = 0.112 (at node 2)
Injected packet length average = 1
Accepted packet length average = 1
Total in-flight flits = 31 (31 measured)
latency change    = 0.00433423
throughput change = 0.000632111
Class 0:
Packet latency average = 19.5961
	minimum = 7
	maximum = 50
Network latency average = 19.5954
	minimum = 7
	maximum = 50
Slowest packet = 93559
Flit latency average = 19.6031
	minimum = 7
	maximum = 50
Slowest flit = 93559
Fragmentation average = 0
	minimum = 0
	maximum = 0
Injected packet rate average = 0.0989375
	minimum = 0.0906667 (at node 3)
	maximum = 0.111 (at node 5)
Accepted packet rate average = 0.0987917
	minimum = 0.084 (at node 8)
	maximum = 0.106667 (at node 6)
Injected flit rate average = 0.0989375
	minimum = 0.0906667 (at node 3)
	maximum = 0.111 (at node 5)
Accepted flit rate average= 0.0987917
	minimum = 0.084 (at node 8)
	maximum = 0.106667 (at node 6)
Injected packet length average = 1
Accepted packet length average = 1
Total in-flight flits = 28 (28 measured)
latency change    = 0.000415372
throughput change = 0.000843526
Draining all recorded packets ...
Draining remaining packets ...
Time taken is 6068 cycles
Class 0:
Packet latency average = 19.9135
	minimum = 7
	maximum = 40
Network latency average = 19.9135
	minimum = 7
	maximum = 40
Slowest packet = 97123
Flit latency average = 19.9135
	minimum = 7
	maximum = 40
Slowest flit = 97123
Fragmentation average = 0
	minimum = 0
	maximum = 0
Injected packet rate average = 0.099
	minimum = 0.088 (at node 10)
	maximum = 0.108 (at node 4)
Accepted packet rate average = 0.0975
	minimum = 0.085 (at node 3)
	maximum = 0.111 (at node 0)
Injected flit rate average = 0.099
	minimum = 0.088 (at node 10)
	maximum = 0.108 (at node 4)
Accepted flit rate average= 0.0975
	minimum = 0.085 (at node 3)
	maximum = 0.111 (at node 0)
Injected packet length average = 1
Accepted packet length average = 1
Total in-flight flits = 24 (0 measured)
latency change    = 1
throughput change = 1
Class 0:
Packet latency average = 19.7415
	minimum = 7
	maximum = 43
Network latency average = 19.7415
	minimum = 7
	maximum = 43
Slowest packet = 98033
Flit latency average = 19.7415
	minimum = 7
	maximum = 43
Slowest flit = 98033
Fragmentation average = 0
	minimum = 0
	maximum = 0
Injected packet rate average = 0.100375
	minimum = 0.089 (at node 10)
	maximum = 0.1115 (at node 12)
Accepted packet rate average = 0.0995
	minimum = 0.091 (at node 11)
	maximum = 0.107 (at node 6)
Injected flit rate average = 0.100375
	minimum = 0.089 (at node 10)
	maximum = 0.1115 (at node 12)
Accepted flit rate average= 0.0995
	minimum = 0.091 (at node 11)
	maximum = 0.107 (at node 6)
Injected packet length average = 1
Accepted packet length average = 1
Total in-flight flits = 28 (0 measured)
latency change    = 0.00870964
throughput change = 0.0201005
Class 0:
Packet latency average = 19.7284
	minimum = 7
	maximum = 45
Network latency average = 19.7284
	minimum = 7
	maximum = 45
Slowest packet = 100337
Flit latency average = 19.7284
	minimum = 7
	maximum = 45
Slowest flit = 100337
Fragmentation average = 0
	minimum = 0
	maximum = 0
Injected packet rate average = 0.101625
	minimum = 0.087 (at node 11)
	maximum = 0.12 (at node 14)
Accepted packet rate average = 0.10125
	minimum = 0.088 (at node 3)
	maximum = 0.121 (at node 11)
Injected flit rate average = 0.101625
	minimum = 0.087 (at node 11)
	maximum = 0.12 (at node 14)
Accepted flit rate average= 0.10125
	minimum = 0.088 (at node 3)
	maximum = 0.121 (at node 11)
Injected packet length average = 1
Accepted packet length average = 1
Total in-flight flits = 34 (0 measured)
latency change    = 0.000665287
throughput change = 0.017284
Warmed up ...Time used is 3000 cycles
Class 0:
Packet latency average = 19.947
	minimum = 7
	maximum = 44
Network latency average = 19.9464
	minimum = 7
	maximum = 44
Slowest packet = 101829
Flit latency average = 19.9796
	minimum = 7
	maximum = 44
Slowest flit = 101829
Fragmentation average = 0
	minimum = 0
	maximum = 0
Injected packet rate average = 0.101437
	minimum = 0.091 (at node 2)
	maximum = 0.114 (at node 8)
Accepted packet rate average = 0.10125
	minimum = 0.083 (at node 0)
	maximum = 0.119 (at node 14)
Injected flit rate average = 0.101437
	minimum = 0.091 (at node 2)
	maximum = 0.114 (at node 8)
Accepted flit rate average= 0.10125
	minimum = 0.083 (at node 0)
	maximum = 0.119 (at node 14)
Injected packet length average = 1
Accepted packet length average = 1
Total in-flight flits = 37 (37 measured)
latency change    = 0.0109611
throughput change = 0
Class 0:
Packet latency average = 19.8913
	minimum = 7
	maximum = 45
Network latency average = 19.8903
	minimum = 7
	maximum = 45
Slowest packet = 102990
Flit latency average = 19.9078
	minimum = 7
	maximum = 45
Slowest flit = 102990
Fragmentation average = 0
	minimum = 0
	maximum = 0
Injected packet rate average = 0.0991875
	minimum = 0.0905 (at node 7)
	maximum = 0.107 (at node 9)
Accepted packet rate average = 0.0993437
	minimum = 0.082 (at node 10)
	maximum = 0.115 (at node 14)
Injected flit rate average = 0.0991875
	minimum = 0.0905 (at node 7)
	maximum = 0.107 (at node 9)
Accepted flit rate average= 0.0993437
	minimum = 0.082 (at node 10)
	maximum = 0.115 (at node 14)
Injected packet length average = 1
Accepted packet length average = 1
Total in-flight flits = 29 (29 measured)
latency change    = 0.00280428
throughput change = 0.0191884
Class 0:
Packet latency average = 19.7745
	minimum = 7
	maximum = 48
Network latency average = 19.7734
	minimum = 7
	maximum = 48
Slowest packet = 104693
Flit latency average = 19.7858
	minimum = 7
	maximum = 48
Slowest flit = 104693
Fragmentation average = 0
	minimum = 0
	maximum = 0
Injected packet rate average = 0.100333
	minimum = 0.0933333 (at node 3)
	maximum = 0.114667 (at node 9)
Accepted packet rate average = 0.100375
	minimum = 0.0873333 (at node 10)
	maximum = 0.11 (at node 14)
Injected flit rate average = 0.100333
	minimum = 0.0933333 (at node 3)
	maximum = 0.114667 (at node 9)
Accepted flit rate average= 0.100375
	minimum = 0.0873333 (at node 10)
	maximum = 0.11 (at node 14)
Injected packet length average = 1
Accepted packet length average = 1
Total in-flight flits = 32 (32 measured)
latency change    = 0.00590658
throughput change = 0.010274
Draining all recorded packets ...
Draining remaining packets ...
Time taken is 6055 cycles
Class 0:
Packet latency average = 19.5322
	minimum = 7
	maximum = 40
Network latency average = 19.5322
	minimum = 7
	maximum = 40
Slowest packet = 106184
Flit latency average = 19.5322
	minimum = 7
	maximum = 40
Slowest flit = 106184
Fragmentation average = 0
	minimum = 0
	maximum = 0
Injected packet rate average = 0.10325
	minimum = 0.091 (at node 13)
	maximum = 0.123 (at node 6)
Accepted packet rate average = 0.101
	minimum = 0.082 (at node 8)
	maximum = 0.116 (at node 10)
Injected flit rate average = 0.10325
	minimum = 0.091 (at node 13)
	maximum = 0.123 (at node 6)
Accepted flit rate average= 0.101
	minimum = 0.082 (at node 8)
	maximum = 0.116 (at node 10)
Injected packet length average = 1
Accepted packet length average = 1
Total in-flight flits = 36 (0 measured)
latency change    = 1
throughput change = 1
Class 0:
Packet latency average = 19.4542
	minimum = 7
	maximum = 46
Network latency average = 19.4542
	minimum = 7
	maximum = 46
Slowest packet = 108309
Flit latency average = 19.4542
	minimum = 7
	maximum = 46
Slowest flit = 108309
Fragmentation average = 0
	minimum = 0
	maximum = 0
Injected packet rate average = 0.101406
	minimum = 0.09 (at node 12)
	maximum = 0.1145 (at node 6)
Accepted packet rate average = 0.100656
	minimum = 0.0855 (at node 8)
	maximum = 0.1105 (at node 6)
Injected flit rate average = 0.101406
	minimum = 0.09 (at node 12)
	maximum = 0.1145 (at node 6)
Accepted flit rate average= 0.100656
	minimum = 0.0855 (at node 8)
	maximum = 0.1105 (at node 6)
Injected packet length average = 1
Accepted packet length average = 1
Total in-flight flits = 24 (0 measured)
latency change    = 0.00400795
throughput change = 0.00341509
Class 0:
Packet latency average = 19.8511
	minimum = 7
	maximum = 42
Network latency average = 19.8511
	minimum = 7
	maximum = 42
Slowest packet = 110592
Flit latency average = 19.8511
	minimum = 7
	maximum = 42
Slowest flit = 110592
Fragmentation average = 0
	minimum = 0
	maximum = 0
Injected packet rate average = 0.1
	minimum = 0.087 (at node 5)
	maximum = 0.12 (at node 9)
Accepted packet rate average = 0.100312
	minimum = 0.081 (at node 0)
	maximum = 0.128 (at node 15)
Injected flit rate average = 0.1
	minimum = 0.087 (at node 5)
	maximum = 0.12 (at node 9)
Accepted flit rate average= 0.100312
	minimum = 0.081 (at node 0)
	maximum = 0.128 (at node 15)
Injected packet length average = 1
Accepted packet length average = 1
Total in-flight flits = 19 (0 measured)
latency change    = 0.019993
throughput change = 0.00342679
Warmed up ...Time used is 3000 cycles
Class 0:
Packet latency average = 19.6393
	minimum = 7
	maximum = 44
Network latency average = 19.6393
	minimum = 7
	maximum = 44
Slowest packet = 111902
Flit latency average = 19.6473
	minimum = 7
	maximum = 44
Slowest flit = 111902
Fragmentation average = 0
	minimum = 0
	maximum = 0
Injected packet rate average = 0.100812
	minimum = 0.09 (at node 2)
	maximum = 0.119 (at node 0)
Accepted packet rate average = 0.100125
	minimum = 0.083 (at node 6)
	maximum = 0.115 (at node 4)
Injected flit rate average = 0.100812
	minimum = 0.09 (at node 2)
	maximum = 0.119 (at node 0)
Accepted flit rate average= 0.100125
	minimum = 0.083 (at node 6)
	maximum = 0.115 (at node 4)
Injected packet length average = 1
Accepted packet length average = 1
Total in-flight flits = 30 (30 measured)
latency change    = 0.0107844
throughput change = 0.00187266
Class 0:
Packet latency average = 19.8983
	minimum = 7
	maximum = 44
Network latency average = 19.898
	minimum = 7
	maximum = 44
Slowest packet = 111902
Flit latency average = 19.9004
	minimum = 7
	maximum = 44
Slowest flit = 111902
Fragmentation average = 0
	minimum = 0
	maximum = 0
Injected packet rate average = 0.100281
	minimum = 0.0915 (at node 6)
	maximum = 0.1125 (at node 9)
Accepted packet rate average = 0.0998125
	minimum = 0.089 (at node 6)
	maximum = 0.11 (at node 4)
Injected flit rate average = 0.100281
	minimum = 0.0915 (at node 6)
	maximum = 0.1125 (at node 9)
Accepted flit rate average= 0.0998125
	minimum = 0.089 (at node 6)
	maximum = 0.11 (at node 4)
Injected packet length average = 1
Accepted packet length average = 1
Total in-flight flits = 34 (34 measured)
latency change    = 0.013015
throughput change = 0.00313087
Class 0:
Packet latency average = 19.8504
	minimum = 7
	maximum = 44
Network latency average = 19.8494
	minimum = 7
	maximum = 44
Slowest packet = 111902
Flit latency average = 19.8512
	minimum = 7
	maximum = 44
Slowest flit = 111902
Fragmentation average = 0
	minimum = 0
	maximum = 0
Injected packet rate average = 0.099
	minimum = 0.0906667 (at node 6)
	maximum = 0.107667 (at node 9)
Accepted packet rate average = 0.0987292
	minimum = 0.0876667 (at node 13)
	maximum = 0.107667 (at node 7)
Injected flit rate average = 0.099
	minimum = 0.0906667 (at node 6)
	maximum = 0.107667 (at node 9)
Accepted flit rate average= 0.0987292
	minimum = 0.0876667 (at node 13)
	maximum = 0.107667 (at node 7)
Injected packet length average = 1
Accepted packet length average = 1
Total in-flight flits = 32 (32 measured)
latency change    = 0.00241023
throughput change = 0.0109728
Draining all recorded packets ...
Draining remaining packets ...
Time taken is 6060 cycles
Class 0:
Packet latency average = 19.7473
	minimum = 7
	maximum = 46
Network latency average = 19.7473
	minimum = 7
	maximum = 46
Slowest packet = 116585
Flit latency average = 19.7473
	minimum = 7
	maximum = 46
Slowest flit = 116585
Fragmentation average = 0
	minimum = 0
	maximum = 0
Injected packet rate average = 0.0991875
	minimum = 0.074 (at node 2)
	maximum = 0.114 (at node 1)
Accepted packet rate average = 0.0969375
	minimum = 0.08 (at node 3)
	maximum = 0.111 (at node 1)
Injected flit rate average = 0.0991875
	minimum = 0.074 (at node 2)
	maximum = 0.114 (at node 1)
Accepted flit rate average= 0.0969375
	minimum = 0.08 (at node 3)
	maximum = 0.111 (at node 1)
Injected packet length average = 1
Accepted packet length average = 1
Total in-flight flits = 36 (0 measured)
latency change    = 1
throughput change = 1
Class 0:
Packet latency average = 20.0181
	minimum = 7
	maximum = 46
Network latency average = 20.0159
	minimum = 7
	maximum = 46
Slowest packet = 116585
Flit latency average = 20.0159
	minimum = 7
	maximum = 46
Slowest flit = 116585
Fragmentation average = 0
	minimum = 0
	maximum = 0
Injected packet rate average = 0.101094
	minimum = 0.09 (at node 14)
	maximum = 0.117 (at node 12)
Accepted packet rate average = 0.100125
	minimum = 0.086 (at node 3)
	maximum = 0.1095 (at node 12)
Injected flit rate average = 0.101094
	minimum = 0.09 (at node 14)
	maximum = 0.117 (at node 12)
Accepted flit rate average= 0.100125
	minimum = 0.086 (at node 3)
	maximum = 0.1095 (at node 12)
Injected packet length average = 1
Accepted packet length average = 1
Total in-flight flits = 31 (0 measured)
latency change    = 0.0135299
throughput change = 0.0318352
Class 0:
Packet latency average = 20.0342
	minimum = 7
	maximum = 43
Network latency average = 20.0324
	minimum = 7
	maximum = 43
Slowest packet = 119106
Flit latency average = 20.0324
	minimum = 7
	maximum = 43
Slowest flit = 119106
Fragmentation average = 0
	minimum = 0
	maximum = 0
Injected packet rate average = 0.101875
	minimum = 0.086 (at node 10)
	maximum = 0.117 (at node 4)
Accepted packet rate average = 0.10225
	minimum = 0.088 (at node 9)
	maximum = 0.114 (at node 2)
Injected flit rate average = 0.101875
	minimum = 0.086 (at node 10)
	maximum = 0.117 (at node 4)
Accepted flit rate average= 0.10225
	minimum = 0.088 (at node 9)
	maximum = 0.114 (at node 2)
Injected packet length average = 1
Accepted packet length average = 1
Total in-flight flits = 25 (0 measured)
latency change    = 0.000804995
throughput change = 0.0207824
Warmed up ...Time used is 3000 cycles
Class 0:
Packet latency average = 19.9261
	minimum = 7
	maximum = 46
Network latency average = 19.9261
	minimum = 7
	maximum = 46
Slowest packet = 121377
Flit latency average = 19.9741
	minimum = 7
	maximum = 46
Slowest flit = 121377
Fragmentation average = 0
	minimum = 0
	maximum = 0
Injected packet rate average = 0.104563
	minimum = 0.082 (at node 8)
	maximum = 0.133 (at node 3)
Accepted packet rate average = 0.103938
	minimum = 0.074 (at node 6)
	maximum = 0.122 (at node 3)
Injected flit rate average = 0.104563
	minimum = 0.082 (at node 8)
	maximum = 0.133 (at node 3)
Accepted flit rate average= 0.103938
	minimum = 0.074 (at node 6)
	maximum = 0.122 (at node 3)
Injected packet length average = 1
Accepted packet length average = 1
Total in-flight flits = 35 (35 measured)
latency change    = 0.00542506
throughput change = 0.0162357
Class 0:
Packet latency average = 19.7225
	minimum = 7
	maximum = 46
Network latency average = 19.7225
	minimum = 7
	maximum = 46
Slowest packet = 121377
Flit latency average = 19.7494
	minimum = 7
	maximum = 46
Slowest flit = 121377
Fragmentation average = 0
	minimum = 0
	maximum = 0
Injected packet rate average = 0.0985625
	minimum = 0.081 (at node 8)
	maximum = 0.1125 (at node 3)
Accepted packet rate average = 0.0984063
	minimum = 0.0815 (at node 6)
	maximum = 0.111 (at node 3)
Injected flit rate average = 0.0985625
	minimum = 0.081 (at node 8)
	maximum = 0.1125 (at node 3)
Accepted flit rate average= 0.0984063
	minimum = 0.0815 (at node 6)
	maximum = 0.111 (at node 3)
Injected packet length average = 1
Accepted packet length average = 1
Total in-flight flits = 30 (30 measured)
latency change    = 0.0103262
throughput change = 0.0562083
Class 0:
Packet latency average = 19.7268
	minimum = 7
	maximum = 58
Network latency average = 19.7268
	minimum = 7
	maximum = 58
Slowest packet = 124982
Flit latency average = 19.7446
	minimum = 7
	maximum = 58
Slowest flit = 124982
Fragmentation average = 0
	minimum = 0
	maximum = 0
Injected packet rate average = 0.0989583
	minimum = 0.0836667 (at node 8)
	maximum = 0.11 (at node 3)
Accepted packet rate average = 0.0990417
	minimum = 0.091 (at node 1)
	maximum = 0.110667 (at node 3)
Injected flit rate average = 0.0989583
	minimum = 0.0836667 (at node 8)
	maximum = 0.11 (at node 3)
Accepted flit rate average= 0.0990417
	minimum = 0.091 (at node 1)
	maximum = 0.110667 (at node 3)
Injected packet length average = 1
Accepted packet length average = 1
Total in-flight flits = 21 (21 measured)
latency change    = 0.000219039
throughput change = 0.00641565
Class 0:
Packet latency average = 19.6778
	minimum = 7
	maximum = 58
Network latency average = 19.6755
	minimum = 7
	maximum = 58
Slowest packet = 124982
Flit latency average = 19.6889
	minimum = 7
	maximum = 58
Slowest flit = 124982
Fragmentation average = 0
	minimum = 0
	maximum = 0
Injected packet rate average = 0.100172
	minimum = 0.09275 (at node 14)
	maximum = 0.10825 (at node 1)
Accepted packet rate average = 0.100156
	minimum = 0.0925 (at node 1)
	maximum = 0.1135 (at node 3)
Injected flit rate average = 0.100172
	minimum = 0.09275 (at node 14)
	maximum = 0.10825 (at node 1)
Accepted flit rate average= 0.100156
	minimum = 0.0925 (at node 1)
	maximum = 0.1135 (at node 3)
Injected packet length average = 1
Accepted packet length average = 1
Total in-flight flits = 26 (26 measured)
latency change    = 0.00248775
throughput change = 0.0111284
Class 0:
Packet latency average = 19.6678
	minimum = 7
	maximum = 58
Network latency average = 19.6659
	minimum = 7
	maximum = 58
Slowest packet = 124982
Flit latency average = 19.6768
	minimum = 7
	maximum = 58
Slowest flit = 124982
Fragmentation average = 0
	minimum = 0
	maximum = 0
Injected packet rate average = 0.099275
	minimum = 0.0928 (at node 10)
	maximum = 0.1054 (at node 1)
Accepted packet rate average = 0.099275
	minimum = 0.0922 (at node 15)
	maximum = 0.1102 (at node 3)
Injected flit rate average = 0.099275
	minimum = 0.0928 (at node 10)
	maximum = 0.1054 (at node 1)
Accepted flit rate average= 0.099275
	minimum = 0.0922 (at node 15)
	maximum = 0.1102 (at node 3)
Injected packet length average = 1
Accepted packet length average = 1
Total in-flight flits = 25 (25 measured)
latency change    = 0.000510236
throughput change = 0.00887686
Draining all recorded packets ...
Draining remaining packets ...
Time taken is 8057 cycles
Class 0:
Packet latency average = 20.0509
	minimum = 7
	maximum = 44
Network latency average = 20.0503
	minimum = 7
	maximum = 44
Slowest packet = 128448
Flit latency average = 20.0503
	minimum = 7
	maximum = 44
Slowest flit = 128448
Fragmentation average = 0
	minimum = 0
	maximum = 0
Injected packet rate average = 0.102125
	minimum = 0.087 (at node 10)
	maximum = 0.116 (at node 12)
Accepted packet rate average = 0.0995
	minimum = 0.077 (at node 12)
	maximum = 0.119 (at node 8)
Injected flit rate average = 0.102125
	minimum = 0.087 (at node 10)
	maximum = 0.116 (at node 12)
Accepted flit rate average= 0.0995
	minimum = 0.077 (at node 12)
	maximum = 0.119 (at node 8)
Injected packet length average = 1
Accepted packet length average = 1
Total in-flight flits = 42 (0 measured)
latency change    = 1
throughput change = 1
Class 0:
Packet latency average = 20.033
	minimum = 7
	maximum = 55
Network latency average = 20.0327
	minimum = 7
	maximum = 55
Slowest packet = 130833
Flit latency average = 20.0327
	minimum = 7
	maximum = 55
Slowest flit = 130833
Fragmentation average = 0
	minimum = 0
	maximum = 0
Injected packet rate average = 0.100969
	minimum = 0.086 (at node 10)
	maximum = 0.112 (at node 12)
Accepted packet rate average = 0.100312
	minimum = 0.0875 (at node 12)
	maximum = 0.1115 (at node 8)
Injected flit rate average = 0.100969
	minimum = 0.086 (at node 10)
	maximum = 0.112 (at node 12)
Accepted flit rate average= 0.100312
	minimum = 0.0875 (at node 12)
	maximum = 0.1115 (at node 8)
Injected packet length average = 1
Accepted packet length average = 1
Total in-flight flits = 21 (0 measured)
latency change    = 0.000891408
throughput change = 0.00809969
Class 0:
Packet latency average = 19.7801
	minimum = 7
	maximum = 43
Network latency average = 19.7777
	minimum = 7
	maximum = 43
Slowest packet = 133123
Flit latency average = 19.7777
	minimum = 7
	maximum = 43
Slowest flit = 133123
Fragmentation average = 0
	minimum = 0
	maximum = 0
Injected packet rate average = 0.10375
	minimum = 0.081 (at node 12)
	maximum = 0.115 (at node 3)
Accepted packet rate average = 0.103188
	minimum = 0.077 (at node 15)
	maximum = 0.123 (at node 7)
Injected flit rate average = 0.10375
	minimum = 0.081 (at node 12)
	maximum = 0.115 (at node 3)
Accepted flit rate average= 0.103188
	minimum = 0.077 (at node 15)
	maximum = 0.123 (at node 7)
Injected packet length average = 1
Accepted packet length average = 1
Total in-flight flits = 30 (0 measured)
latency change    = 0.012785
throughput change = 0.0278619
Warmed up ...Time used is 3000 cycles
Class 0:
Packet latency average = 19.8823
	minimum = 7
	maximum = 48
Network latency average = 19.8823
	minimum = 7
	maximum = 48
Slowest packet = 133910
Flit latency average = 19.9213
	minimum = 7
	maximum = 48
Slowest flit = 133910
Fragmentation average = 0
	minimum = 0
	maximum = 0
Injected packet rate average = 0.097125
	minimum = 0.081 (at node 11)
	maximum = 0.113 (at node 6)
Accepted packet rate average = 0.0969375
	minimum = 0.078 (at node 11)
	maximum = 0.123 (at node 10)
Injected flit rate average = 0.097125
	minimum = 0.081 (at node 11)
	maximum = 0.113 (at node 6)
Accepted flit rate average= 0.0969375
	minimum = 0.078 (at node 11)
	maximum = 0.123 (at node 10)
Injected packet length average = 1
Accepted packet length average = 1
Total in-flight flits = 33 (33 measured)
latency change    = 0.00513929
throughput change = 0.0644745
Class 0:
Packet latency average = 19.7258
	minimum = 7
	maximum = 48
Network latency average = 19.7233
	minimum = 7
	maximum = 48
Slowest packet = 133910
Flit latency average = 19.7436
	minimum = 7
	maximum = 48
Slowest flit = 133910
Fragmentation average = 0
	minimum = 0
	maximum = 0
Injected packet rate average = 0.100312
	minimum = 0.0915 (at node 3)
	maximum = 0.115 (at node 6)
Accepted packet rate average = 0.100312
	minimum = 0.084 (at node 15)
	maximum = 0.12 (at node 7)
Injected flit rate average = 0.100312
	minimum = 0.0915 (at node 3)
	maximum = 0.115 (at node 6)
Accepted flit rate average= 0.100312
	minimum = 0.084 (at node 15)
	maximum = 0.12 (at node 7)
Injected packet length average = 1
Accepted packet length average = 1
Total in-flight flits = 30 (30 measured)
latency change    = 0.0079352
throughput change = 0.0336449
Class 0:
Packet latency average = 19.6911
	minimum = 7
	maximum = 48
Network latency average = 19.6892
	minimum = 7
	maximum = 48
Slowest packet = 133910
Flit latency average = 19.7029
	minimum = 7
	maximum = 48
Slowest flit = 133910
Fragmentation average = 0
	minimum = 0
	maximum = 0
Injected packet rate average = 0.101354
	minimum = 0.0903333 (at node 3)
	maximum = 0.114 (at node 6)
Accepted packet rate average = 0.101104
	minimum = 0.0913333 (at node 15)
	maximum = 0.112667 (at node 13)
Injected flit rate average = 0.101354
	minimum = 0.0903333 (at node 3)
	maximum = 0.114 (at node 6)
Accepted flit rate average= 0.101104
	minimum = 0.0913333 (at node 15)
	maximum = 0.112667 (at node 13)
Injected packet length average = 1
Accepted packet length average = 1
Total in-flight flits = 42 (42 measured)
latency change    = 0.00176336
throughput change = 0.00783021
Class 0:
Packet latency average = 19.839
	minimum = 7
	maximum = 52
Network latency average = 19.8371
	minimum = 7
	maximum = 52
Slowest packet = 139662
Flit latency average = 19.8466
	minimum = 7
	maximum = 52
Slowest flit = 139662
Fragmentation average = 0
	minimum = 0
	maximum = 0
Injected packet rate average = 0.102063
	minimum = 0.094 (at node 11)
	maximum = 0.11325 (at node 6)
Accepted packet rate average = 0.102172
	minimum = 0.091 (at node 5)
	maximum = 0.1135 (at node 13)
Injected flit rate average = 0.102063
	minimum = 0.094 (at node 11)
	maximum = 0.11325 (at node 6)
Accepted flit rate average= 0.102172
	minimum = 0.091 (at node 5)
	maximum = 0.1135 (at node 13)
Injected packet length average = 1
Accepted packet length average = 1
Total in-flight flits = 23 (23 measured)
latency change    = 0.00745645
throughput change = 0.0104501
Draining all recorded packets ...
Draining remaining packets ...
Time taken is 7066 cycles
Class 0:
Packet latency average = 19.8342
	minimum = 7
	maximum = 49
Network latency average = 19.8342
	minimum = 7
	maximum = 49
Slowest packet = 140716
Flit latency average = 19.8342
	minimum = 7
	maximum = 49
Slowest flit = 140716
Fragmentation average = 0
	minimum = 0
	maximum = 0
Injected packet rate average = 0.10225
	minimum = 0.081 (at node 2)
	maximum = 0.127 (at node 6)
Accepted packet rate average = 0.10025
	minimum = 0.085 (at node 1)
	maximum = 0.117 (at node 8)
Injected flit rate average = 0.10225
	minimum = 0.081 (at node 2)
	maximum = 0.127 (at node 6)
Accepted flit rate average= 0.10025
	minimum = 0.085 (at node 1)
	maximum = 0.117 (at node 8)
Injected packet length average = 1
Accepted packet length average = 1
Total in-flight flits = 32 (0 measured)
latency change    = 1
throughput change = 1
Class 0:
Packet latency average = 19.8328
	minimum = 7
	maximum = 49
Network latency average = 19.8324
	minimum = 7
	maximum = 49
Slowest packet = 140716
Flit latency average = 19.8324
	minimum = 7
	maximum = 49
Slowest flit = 140716
Fragmentation average = 0
	minimum = 0
	maximum = 0
Injected packet rate average = 0.101031
	minimum = 0.085 (at node 2)
	maximum = 0.122 (at node 6)
Accepted packet rate average = 0.0999687
	minimum = 0.0895 (at node 3)
	maximum = 0.1095 (at node 12)
Injected flit rate average = 0.101031
	minimum = 0.085 (at node 2)
	maximum = 0.122 (at node 6)
Accepted flit rate average= 0.0999687
	minimum = 0.0895 (at node 3)
	maximum = 0.1095 (at node 12)
Injected packet length average = 1
Accepted packet length average = 1
Total in-flight flits = 34 (0 measured)
latency change    = 7.08097e-05
throughput change = 0.00281338
Class 0:
Packet latency average = 19.9886
	minimum = 7
	maximum = 42
Network latency average = 19.9886
	minimum = 7
	maximum = 42
Slowest packet = 143268
Flit latency average = 19.9886
	minimum = 7
	maximum = 42
Slowest flit = 143268
Fragmentation average = 0
	minimum = 0
	maximum = 0
Injected packet rate average = 0.098625
	minimum = 0.075 (at node 11)
	maximum = 0.119 (at node 12)
Accepted packet rate average = 0.0986875
	minimum = 0.069 (at node 10)
	maximum = 0.114 (at node 12)
Injected flit rate average = 0.098625
	minimum = 0.075 (at node 11)
	maximum = 0.119 (at node 12)
Accepted flit rate average= 0.0986875
	minimum = 0.069 (at node 10)
	maximum = 0.114 (at node 12)
Injected packet length average = 1
Accepted packet length average = 1
Total in-flight flits = 33 (0 measured)
latency change    = 0.00779645
throughput change = 0.0129829
Warmed up ...Time used is 3000 cycles
Class 0:
Packet latency average = 19.9306
	minimum = 7
	maximum = 45
Network latency average = 19.9306
	minimum = 7
	maximum = 45
Slowest packet = 146037
Flit latency average = 19.9604
	minimum = 7
	maximum = 45
Slowest flit = 146037
Fragmentation average = 0
	minimum = 0
	maximum = 0
Injected packet rate average = 0.0986875
	minimum = 0.087 (at node 5)
	maximum = 0.118 (at node 8)
Accepted packet rate average = 0.099375
	minimum = 0.079 (at node 12)
	maximum = 0.112 (at node 3)
Injected flit rate average = 0.0986875
	minimum = 0.087 (at node 5)
	maximum = 0.118 (at node 8)
Accepted flit rate average= 0.099375
	minimum = 0.079 (at node 12)
	maximum = 0.112 (at node 3)
Injected packet length average = 1
Accepted packet length average = 1
Total in-flight flits = 22 (22 measured)
latency change    = 0.00290831
throughput change = 0.00691824
Class 0:
Packet latency average = 19.8562
	minimum = 7
	maximum = 45
Network latency average = 19.8559
	minimum = 7
	maximum = 45
Slowest packet = 146037
Flit latency average = 19.8714
	minimum = 7
	maximum = 45
Slowest flit = 146037
Fragmentation average = 0
	minimum = 0
	maximum = 0
Injected packet rate average = 0.100281
	minimum = 0.0885 (at node 7)
	maximum = 0.111 (at node 2)
Accepted packet rate average = 0.100344
	minimum = 0.0895 (at node 12)
	maximum = 0.111 (at node 5)
Injected flit rate average = 0.100281
[...]
Injected packet rate average = 0.10175
	minimum = 0.083 (at node 7)
	maximum = 0.115 (at node 12)
Accepted packet rate average = 0.101312
	minimum = 0.086 (at node 13)
	maximum = 0.119 (at node 15)
Injected flit rate average = 0.10175
	minimum = 0.083 (at node 7)
	maximum = 0.115 (at node 12)
Accepted flit rate average= 0.101312
	minimum = 0.086 (at node 13)
	maximum = 0.119 (at node 15)
Injected packet length average = 1
Accepted packet length average = 1
Total in-flight flits = 37 (0 measured)
latency change    = 0.00797307
throughput change = 0.0178902
Warmed up ...Time used is 3000 cycles
Class 0:
Packet latency average = 19.9873
	minimum = 7
	maximum = 41
Network latency average = 19.9873
	minimum = 7
	maximum = 41
Slowest packet = 955555
Flit latency average = 20.0428
	minimum = 7
	maximum = 41
Slowest flit = 955555
Fragmentation average = 0
	minimum = 0
	maximum = 0
Injected packet rate average = 0.100625
	minimum = 0.082 (at node 6)
	maximum = 0.115 (at node 10)
Accepted packet rate average = 0.100875
	minimum = 0.073 (at node 1)
	maximum = 0.116 (at node 3)
Injected flit rate average = 0.100625
	minimum = 0.082 (at node 6)
	maximum = 0.115 (at node 10)
Accepted flit rate average= 0.100875
	minimum = 0.073 (at node 1)
	maximum = 0.116 (at node 3)
Injected packet length average = 1
Accepted packet length average = 1
Total in-flight flits = 33 (33 measured)
latency change    = 0.0135941
throughput change = 0.00433705
Class 0:
Packet latency average = 19.8282
	minimum = 7
	maximum = 41
Network latency average = 19.8282
	minimum = 7
	maximum = 41
Slowest packet = 955555
Flit latency average = 19.858
	minimum = 7
	maximum = 41
Slowest flit = 955555
Fragmentation average = 0
	minimum = 0
	maximum = 0
Injected packet rate average = 0.0997187
	minimum = 0.0925 (at node 6)
	maximum = 0.1055 (at node 9)
Accepted packet rate average = 0.0997187
	minimum = 0.09 (at node 1)
	maximum = 0.111 (at node 0)
Injected flit rate average = 0.0997187
	minimum = 0.0925 (at node 6)
	maximum = 0.1055 (at node 9)
Accepted flit rate average= 0.0997187
	minimum = 0.09 (at node 1)
	maximum = 0.111 (at node 0)
Injected packet length average = 1
Accepted packet length average = 1
Total in-flight flits = 37 (37 measured)
latency change    = 0.00802712
throughput change = 0.0115951
Class 0:
Packet latency average = 19.7792
	minimum = 7
	maximum = 44
Network latency average = 19.7792
	minimum = 7
	maximum = 44
Slowest packet = 958769
Flit latency average = 19.7995
	minimum = 7
	maximum = 44
Slowest flit = 958769
Fragmentation average = 0
	minimum = 0
	maximum = 0
Injected packet rate average = 0.0994583
	minimum = 0.088 (at node 0)
	maximum = 0.107 (at node 9)
Accepted packet rate average = 0.0993542
	minimum = 0.0926667 (at node 2)
	maximum = 0.11 (at node 3)
Injected flit rate average = 0.0994583
	minimum = 0.088 (at node 0)
	maximum = 0.107 (at node 9)
Accepted flit rate average= 0.0993542
	minimum = 0.0926667 (at node 2)
	maximum = 0.11 (at node 3)
Injected packet length average = 1
Accepted packet length average = 1
Total in-flight flits = 42 (42 measured)
latency change    = 0.00247693
throughput change = 0.00366953
Draining all recorded packets ...
Draining remaining packets ...
Time taken is 6058 cycles
Class 0:
Packet latency average = 19.8439
	minimum = 7
	maximum = 43
Network latency average = 19.8426
	minimum = 7
	maximum = 43
Slowest packet = 959171
Flit latency average = 19.8426
	minimum = 7
	maximum = 43
Slowest flit = 959171
Fragmentation average = 0
	minimum = 0
	maximum = 0
Injected packet rate average = 0.097375
	minimum = 0.085 (at node 0)
	maximum = 0.106 (at node 1)
Accepted packet rate average = 0.0953125
	minimum = 0.084 (at node 7)
	maximum = 0.116 (at node 2)
Injected flit rate average = 0.097375
	minimum = 0.085 (at node 0)
	maximum = 0.106 (at node 1)
Accepted flit rate average= 0.0953125
	minimum = 0.084 (at node 7)
	maximum = 0.116 (at node 2)
Injected packet length average = 1
Accepted packet length average = 1
Total in-flight flits = 33 (0 measured)
latency change    = 1
throughput change = 1
Class 0:
Packet latency average = 19.9629
	minimum = 7
	maximum = 43
Network latency average = 19.9622
	minimum = 7
	maximum = 43
Slowest packet = 959171
Flit latency average = 19.9622
	minimum = 7
	maximum = 43
Slowest flit = 959171
Fragmentation average = 0
	minimum = 0
	maximum = 0
Injected packet rate average = 0.09775
	minimum = 0.0895 (at node 9)
	maximum = 0.109 (at node 12)
Accepted packet rate average = 0.09675
	minimum = 0.0845 (at node 11)
	maximum = 0.1095 (at node 2)
Injected flit rate average = 0.09775
	minimum = 0.0895 (at node 9)
	maximum = 0.109 (at node 12)
Accepted flit rate average= 0.09675
	minimum = 0.0845 (at node 11)
	maximum = 0.1095 (at node 2)
Injected packet length average = 1
Accepted packet length average = 1
Total in-flight flits = 32 (0 measured)
latency change    = 0.00595711
throughput change = 0.0148579
Class 0:
Packet latency average = 19.9439
	minimum = 7
	maximum = 45
Network latency average = 19.9439
	minimum = 7
	maximum = 45
Slowest packet = 962472
Flit latency average = 19.9439
	minimum = 7
	maximum = 45
Slowest flit = 962472
Fragmentation average = 0
	minimum = 0
	maximum = 0
Injected packet rate average = 0.09775
	minimum = 0.074 (at node 9)
	maximum = 0.111 (at node 15)
Accepted packet rate average = 0.0980625
	minimum = 0.086 (at node 2)
	maximum = 0.114 (at node 7)
Injected flit rate average = 0.09775
	minimum = 0.074 (at node 9)
	maximum = 0.111 (at node 15)
Accepted flit rate average= 0.0980625
	minimum = 0.086 (at node 2)
	maximum = 0.114 (at node 7)
Injected packet length average = 1
Accepted packet length average = 1
Total in-flight flits = 27 (0 measured)
latency change    = 0.000949762
throughput change = 0.0133843
Warmed up ...Time used is 3000 cycles
Class 0:
Packet latency average = 19.6777
	minimum = 7
	maximum = 44
Network latency average = 19.6777
	minimum = 7
	maximum = 44
Slowest packet = 964894
Flit latency average = 19.7503
	minimum = 7
	maximum = 44
Slowest flit = 964894
Fragmentation average = 0
	minimum = 0
	maximum = 0
Injected packet rate average = 0.0998125
	minimum = 0.087 (at node 6)
	maximum = 0.111 (at node 9)
Accepted packet rate average = 0.099625
	minimum = 0.081 (at node 10)
	maximum = 0.127 (at node 3)
Injected flit rate average = 0.0998125
	minimum = 0.087 (at node 6)
	maximum = 0.111 (at node 9)
Accepted flit rate average= 0.099625
	minimum = 0.081 (at node 10)
	maximum = 0.127 (at node 3)
Injected packet length average = 1
Accepted packet length average = 1
Total in-flight flits = 30 (30 measured)
latency change    = 0.0135272
throughput change = 0.0156838
Class 0:
Packet latency average = 19.6941
	minimum = 7
	maximum = 44
Network latency average = 19.6941
	minimum = 7
	maximum = 44
Slowest packet = 964894
Flit latency average = 19.7298
	minimum = 7
	maximum = 44
Slowest flit = 964894
Fragmentation average = 0
	minimum = 0
	maximum = 0
Injected packet rate average = 0.10075
	minimum = 0.0905 (at node 6)
	maximum = 0.109 (at node 1)
Accepted packet rate average = 0.10075
	minimum = 0.087 (at node 10)
	maximum = 0.1115 (at node 3)
Injected flit rate average = 0.10075
	minimum = 0.0905 (at node 6)
	maximum = 0.109 (at node 1)
Accepted flit rate average= 0.10075
	minimum = 0.087 (at node 10)
	maximum = 0.1115 (at node 3)
Injected packet length average = 1
Accepted packet length average = 1
Total in-flight flits = 27 (27 measured)
latency change    = 0.000830709
throughput change = 0.0111663
Class 0:
Packet latency average = 19.6478
	minimum = 7
	maximum = 44
Network latency average = 19.6476
	minimum = 7
	maximum = 44
Slowest packet = 964894
Flit latency average = 19.6715
	minimum = 7
	maximum = 44
Slowest flit = 964894
Fragmentation average = 0
	minimum = 0
	maximum = 0
Injected packet rate average = 0.101583
	minimum = 0.0936667 (at node 6)
	maximum = 0.107 (at node 1)
Accepted packet rate average = 0.101354
	minimum = 0.0896667 (at node 10)
	maximum = 0.11 (at node 6)
Injected flit rate average = 0.101583
	minimum = 0.0936667 (at node 6)
	maximum = 0.107 (at node 1)
Accepted flit rate average= 0.101354
	minimum = 0.0896667 (at node 10)
	maximum = 0.11 (at node 6)
Injected packet length average = 1
Accepted packet length average = 1
Total in-flight flits = 38 (38 measured)
latency change    = 0.00235649
throughput change = 0.00596095
Draining all recorded packets ...
Draining remaining packets ...
Time taken is 6070 cycles
Class 0:
Packet latency average = 19.9773
	minimum = 7
	maximum = 43
Network latency average = 19.9773
	minimum = 7
	maximum = 43
Slowest packet = 968784
Flit latency average = 19.9773
	minimum = 7
	maximum = 43
Slowest flit = 968784
Fragmentation average = 0
	minimum = 0
	maximum = 0
Injected packet rate average = 0.098125
	minimum = 0.08 (at node 6)
	maximum = 0.115 (at node 5)
Accepted packet rate average = 0.0963125
	minimum = 0.079 (at node 10)
	maximum = 0.125 (at node 14)
Injected flit rate average = 0.098125
	minimum = 0.08 (at node 6)
	maximum = 0.115 (at node 5)
Accepted flit rate average= 0.0963125
	minimum = 0.079 (at node 10)
	maximum = 0.125 (at node 14)
Injected packet length average = 1
Accepted packet length average = 1
Total in-flight flits = 29 (0 measured)
latency change    = 1
throughput change = 1
Class 0:
Packet latency average = 19.9087
	minimum = 7
	maximum = 46
Network latency average = 19.9087
	minimum = 7
	maximum = 46
Slowest packet = 970441
Flit latency average = 19.9087
	minimum = 7
	maximum = 46
Slowest flit = 970441
Fragmentation average = 0
	minimum = 0
	maximum = 0
Injected packet rate average = 0.100031
	minimum = 0.0875 (at node 6)
	maximum = 0.1195 (at node 5)
Accepted packet rate average = 0.0989687
	minimum = 0.085 (at node 10)
	maximum = 0.1115 (at node 14)
Injected flit rate average = 0.100031
	minimum = 0.0875 (at node 6)
	maximum = 0.1195 (at node 5)
Accepted flit rate average= 0.0989687
	minimum = 0.085 (at node 10)
	maximum = 0.1115 (at node 14)
Injected packet length average = 1
Accepted packet length average = 1
Total in-flight flits = 34 (0 measured)
latency change    = 0.00344276
throughput change = 0.0268393
Class 0:
Packet latency average = 19.7116
	minimum = 7
	maximum = 45
Network latency average = 19.7116
	minimum = 7
	maximum = 45
Slowest packet = 971907
Flit latency average = 19.7116
	minimum = 7
	maximum = 45
Slowest flit = 971907
Fragmentation average = 0
	minimum = 0
	maximum = 0
Injected packet rate average = 0.0989375
	minimum = 0.073 (at node 6)
	maximum = 0.11 (at node 7)
Accepted packet rate average = 0.09925
	minimum = 0.077 (at node 1)
	maximum = 0.127 (at node 9)
Injected flit rate average = 0.0989375
	minimum = 0.073 (at node 6)
	maximum = 0.11 (at node 7)
Accepted flit rate average= 0.09925
	minimum = 0.077 (at node 1)
	maximum = 0.127 (at node 9)
Injected packet length average = 1
Accepted packet length average = 1
Total in-flight flits = 29 (0 measured)
latency change    = 0.0100022
throughput change = 0.00283375
Warmed up ...Time used is 3000 cycles
Class 0:
Packet latency average = 19.6517
	minimum = 7
	maximum = 41
Network latency average = 19.6511
	minimum = 7
	maximum = 41
Slowest packet = 974219
Flit latency average = 19.7292
	minimum = 7
	maximum = 41
Slowest flit = 974219
Fragmentation average = 0
	minimum = 0
	maximum = 0
Injected packet rate average = 0.0996875
	minimum = 0.09 (at node 0)
	maximum = 0.11 (at node 14)
Accepted packet rate average = 0.09925
	minimum = 0.082 (at node 7)
	maximum = 0.114 (at node 14)
Injected flit rate average = 0.0996875
	minimum = 0.09 (at node 0)
	maximum = 0.11 (at node 14)
Accepted flit rate average= 0.09925
	minimum = 0.082 (at node 7)
	maximum = 0.114 (at node 14)
Injected packet length average = 1
Accepted packet length average = 1
Total in-flight flits = 36 (36 measured)
latency change    = 0.00304743
throughput change = 0
Class 0:
Packet latency average = 19.678
	minimum = 7
	maximum = 51
Network latency average = 19.6777
	minimum = 7
	maximum = 51
Slowest packet = 976540
Flit latency average = 19.7162
	minimum = 7
	maximum = 51
Slowest flit = 976540
Fragmentation average = 0
	minimum = 0
	maximum = 0
Injected packet rate average = 0.0999375
	minimum = 0.091 (at node 1)
	maximum = 0.104 (at node 11)
Accepted packet rate average = 0.1
	minimum = 0.0865 (at node 0)
	maximum = 0.116 (at node 6)
Injected flit rate average = 0.0999375
	minimum = 0.091 (at node 1)
	maximum = 0.104 (at node 11)
Accepted flit rate average= 0.1
	minimum = 0.0865 (at node 0)
	maximum = 0.116 (at node 6)
Injected packet length average = 1
Accepted packet length average = 1
Total in-flight flits = 27 (27 measured)
latency change    = 0.00133752
throughput change = 0.0075
Class 0:
Packet latency average = 19.7215
	minimum = 7
	maximum = 51
Network latency average = 19.7211
	minimum = 7
	maximum = 51
Slowest packet = 976540
Flit latency average = 19.7467
	minimum = 7
	maximum = 51
Slowest flit = 976540
Fragmentation average = 0
	minimum = 0
	maximum = 0
Injected packet rate average = 0.09925
	minimum = 0.0943333 (at node 1)
	maximum = 0.104 (at node 5)
Accepted packet rate average = 0.0990417
	minimum = 0.0906667 (at node 5)
	maximum = 0.108667 (at node 6)
Injected flit rate average = 0.09925
	minimum = 0.0943333 (at node 1)
	maximum = 0.104 (at node 5)
Accepted flit rate average= 0.0990417
	minimum = 0.0906667 (at node 5)
	maximum = 0.108667 (at node 6)
Injected packet length average = 1
Accepted packet length average = 1
Total in-flight flits = 39 (39 measured)
latency change    = 0.00220379
throughput change = 0.00967606
Draining all recorded packets ...
Draining remaining packets ...
Time taken is 6059 cycles
Class 0:
Packet latency average = 19.7453
	minimum = 7
	maximum = 49
Network latency average = 19.7441
	minimum = 7
	maximum = 49
Slowest packet = 979498
Flit latency average = 19.7441
	minimum = 7
	maximum = 49
Slowest flit = 979498
Fragmentation average = 0
	minimum = 0
	maximum = 0
Injected packet rate average = 0.101625
	minimum = 0.083 (at node 4)
	maximum = 0.117 (at node 1)
Accepted packet rate average = 0.099875
	minimum = 0.082 (at node 2)
	maximum = 0.127 (at node 3)
Injected flit rate average = 0.101625
	minimum = 0.083 (at node 4)
	maximum = 0.117 (at node 1)
Accepted flit rate average= 0.099875
	minimum = 0.082 (at node 2)
	maximum = 0.127 (at node 3)
Injected packet length average = 1
Accepted packet length average = 1
Total in-flight flits = 28 (0 measured)
latency change    = 1
throughput change = 1
Class 0:
Packet latency average = 19.8587
	minimum = 7
	maximum = 54
Network latency average = 19.8577
	minimum = 7
	maximum = 54
Slowest packet = 981288
Flit latency average = 19.8577
	minimum = 7
	maximum = 54
Slowest flit = 981288
Fragmentation average = 0
	minimum = 0
	maximum = 0
Injected packet rate average = 0.101344
	minimum = 0.0865 (at node 4)
	maximum = 0.116 (at node 15)
Accepted packet rate average = 0.100156
	minimum = 0.084 (at node 4)
	maximum = 0.1195 (at node 12)
Injected flit rate average = 0.101344
	minimum = 0.0865 (at node 4)
	maximum = 0.116 (at node 15)
Accepted flit rate average= 0.100156
	minimum = 0.084 (at node 4)
	maximum = 0.1195 (at node 12)
Injected packet length average = 1
Accepted packet length average = 1
Total in-flight flits = 38 (0 measured)
latency change    = 0.00570792
throughput change = 0.00280811
Class 0:
Packet latency average = 19.7746
	minimum = 7
	maximum = 44
Network latency average = 19.774
	minimum = 7
	maximum = 44
Slowest packet = 981536
Flit latency average = 19.774
	minimum = 7
	maximum = 44
Slowest flit = 981536
Fragmentation average = 0
	minimum = 0
	maximum = 0
Injected packet rate average = 0.101187
	minimum = 0.085 (at node 5)
	maximum = 0.113 (at node 14)
Accepted packet rate average = 0.1015
	minimum = 0.077 (at node 4)
	maximum = 0.124 (at node 10)
Injected flit rate average = 0.101187
	minimum = 0.085 (at node 5)
	maximum = 0.113 (at node 14)
Accepted flit rate average= 0.1015
	minimum = 0.077 (at node 4)
	maximum = 0.124 (at node 10)
Injected packet length average = 1
Accepted packet length average = 1
Total in-flight flits = 33 (0 measured)
latency change    = 0.00424927
throughput change = 0.0132389
Warmed up ...Time used is 3000 cycles
Class 0:
Packet latency average = 19.8107
	minimum = 7
	maximum = 46
Network latency average = 19.8107
	minimum = 7
	maximum = 46
Slowest packet = 983680
Flit latency average = 19.8328
	minimum = 7
	maximum = 46
Slowest flit = 983680
Fragmentation average = 0
	minimum = 0
	maximum = 0
Injected packet rate average = 0.0993125
	minimum = 0.082 (at node 10)
	maximum = 0.121 (at node 13)
Accepted packet rate average = 0.0994375
	minimum = 0.081 (at node 6)
	maximum = 0.116 (at node 2)
Injected flit rate average = 0.0993125
	minimum = 0.082 (at node 10)
	maximum = 0.121 (at node 13)
Accepted flit rate average= 0.0994375
	minimum = 0.081 (at node 6)
	maximum = 0.116 (at node 2)
Injected packet length average = 1
Accepted packet length average = 1
Total in-flight flits = 31 (31 measured)
latency change    = 0.00181842
throughput change = 0.0207417
Class 0:
Packet latency average = 19.9654
	minimum = 7
	maximum = 51
Network latency average = 19.9651
	minimum = 7
	maximum = 51
Slowest packet = 985938
Flit latency average = 19.9744
	minimum = 7
	maximum = 51
Slowest flit = 985938
Fragmentation average = 0
	minimum = 0
	maximum = 0
Injected packet rate average = 0.101094
	minimum = 0.089 (at node 10)
	maximum = 0.1145 (at node 13)
Accepted packet rate average = 0.10125
	minimum = 0.0895 (at node 6)
	maximum = 0.1155 (at node 0)
Injected flit rate average = 0.101094
	minimum = 0.089 (at node 10)
	maximum = 0.1145 (at node 13)
Accepted flit rate average= 0.10125
	minimum = 0.0895 (at node 6)
	maximum = 0.1155 (at node 0)
Injected packet length average = 1
Accepted packet length average = 1
Total in-flight flits = 28 (28 measured)
latency change    = 0.00775009
throughput change = 0.0179012
Class 0:
Packet latency average = 19.9362
	minimum = 7
	maximum = 51
Network latency average = 19.936
	minimum = 7
	maximum = 51
Slowest packet = 985938
Flit latency average = 19.9424
	minimum = 7
	maximum = 51
Slowest flit = 985938
Fragmentation average = 0
	minimum = 0
	maximum = 0
Injected packet rate average = 0.100125
	minimum = 0.088 (at node 10)
	maximum = 0.112667 (at node 13)
Accepted packet rate average = 0.10025
	minimum = 0.0906667 (at node 13)
	maximum = 0.106 (at node 4)
Injected flit rate average = 0.100125
	minimum = 0.088 (at node 10)
	maximum = 0.112667 (at node 13)
Accepted flit rate average= 0.10025
	minimum = 0.0906667 (at node 13)
	maximum = 0.106 (at node 4)
Injected packet length average = 1
Accepted packet length average = 1
Total in-flight flits = 27 (27 measured)
latency change    = 0.00146513
throughput change = 0.00997506
Draining all recorded packets ...
Draining remaining packets ...
Time taken is 6076 cycles
====== Overall Traffic Statistics ======
====== Traffic class 0 ======
Packet latency average = 19.8097 (100 samples)
	minimum = 7 (100 samples)
	maximum = 47.81 (100 samples)
Network latency average = 19.8087 (100 samples)
	minimum = 7 (100 samples)
	maximum = 47.8 (100 samples)
Flit latency average = 19.8231 (100 samples)
	minimum = 7 (100 samples)
	maximum = 47.84 (100 samples)
Fragmentation average = 0 (100 samples)
	minimum = 0 (100 samples)
	maximum = 0 (100 samples)
Injected packet rate average = 0.0998874 (100 samples)
	minimum = 0.0906222 (100 samples)
	maximum = 0.109387 (100 samples)
Accepted packet rate average = 0.0998607 (100 samples)
	minimum = 0.089767 (100 samples)
	maximum = 0.11023 (100 samples)
Injected flit rate average = 0.0998874 (100 samples)
	minimum = 0.0906222 (100 samples)
	maximum = 0.109387 (100 samples)
Accepted flit rate average = 0.0998607 (100 samples)
	minimum = 0.089767 (100 samples)
	maximum = 0.11023 (100 samples)
Injected packet size average = 1 (100 samples)
Accepted packet size average = 1 (100 samples)
Hops average = 3.49965 (100 samples)
Total run time 11.2886
