BEGIN Configuration File: /tmp/bs_1137237_275383.cfg
topology = mesh;
k = 4;
n = 2;
routing_function = gnn_ppo_route_4x4;
num_vcs = 4;
vc_buf_size = 4;
wait_for_tail_credit = 1;
vc_allocator = islip;
sw_allocator = islip;
alloc_iters = 1;
credit_delay = 2;
routing_delay = 1;
vc_alloc_delay = 1;
sw_alloc_delay = 1;
input_speedup = 2;
output_speedup = 1;
internal_speedup = 1.0;
traffic = transpose;
packet_size = 1;
sim_type = latency;
injection_rate = 0.05;
warmup_periods = 3;
sample_period = 1000;
sim_count = 100;
seed = 1;

END Configuration File: /tmp/bs_1137237_275383.cfg
Class 0:
Packet latency average = 19.4798
	minimum = 7
	maximum = 46
Network latency average = 19.4798
	minimum = 7
	maximum = 46
Slowest packet = 303
Flit latency average = 19.4798
	minimum = 7
	maximum = 46
Slowest flit = 303
Fragmentation average = 0
	minimum = 0
	maximum = 0
Injected packet rate average = 0.0505
	minimum = 0.038 (at node 9)
	maximum = 0.073 (at node 1)
Accepted packet rate average = 0.049625
	minimum = 0.036 (at node 6)
	maximum = 0.072 (at node 4)
Injected flit rate average = 0.0505
	minimum = 0.038 (at node 9)
	maximum = 0.073 (at node 1)
Accepted flit rate average= 0.049625
	minimum = 0.036 (at node 6)
	maximum = 0.072 (at node 4)
Injected packet length average = 1
Accepted packet length average = 1
Total in-flight flits = 14 (0 measured)
latency change    = 1
throughput change = 1
Class 0:
Packet latency average = 19.6209
	minimum = 7
	maximum = 46
Network latency average = 19.6209
	minimum = 7
	maximum = 46
Slowest packet = 303
Flit latency average = 19.6209
	minimum = 7
	maximum = 46
Slowest flit = 303
Fragmentation average = 0
	minimum = 0
	maximum = 0
Injected packet rate average = 0.0509688
	minimum = 0.0425 (at node 3)
	maximum = 0.064 (at node 1)
Accepted packet rate average = 0.0505312
	minimum = 0.042 (at node 12)
	maximum = 0.063 (at node 4)
Injected flit rate average = 0.0509688
	minimum = 0.0425 (at node 3)
	maximum = 0.064 (at node 1)
Accepted flit rate average= 0.0505312
	minimum = 0.042 (at node 12)
	maximum = 0.063 (at node 4)
Injected packet length average = 1
Accepted packet length average = 1
Total in-flight flits = 14 (0 measured)
latency change    = 0.00718897
throughput change = 0.0179344
Class 0:
Packet latency average = 19.75
	minimum = 7
	maximum = 44
Network latency average = 19.75
	minimum = 7
	maximum = 44
Slowest packet = 2066
Flit latency average = 19.75
	minimum = 7
	maximum = 44
Slowest flit = 2066
Fragmentation average = 0
	minimum = 0
	maximum = 0
Injected packet rate average = 0.0524375
	minimum = 0.042 (at node 0)
	maximum = 0.064 (at node 1)
Accepted packet rate average = 0.05275
	minimum = 0.042 (at node 0)
	maximum = 0.064 (at node 4)
Injected flit rate average = 0.0524375
	minimum = 0.042 (at node 0)
	maximum = 0.064 (at node 1)
Accepted flit rate average= 0.05275
	minimum = 0.042 (at node 0)
	maximum = 0.064 (at node 4)
Injected packet length average = 1
Accepted packet length average = 1
Total in-flight flits = 9 (0 measured)
latency change    = 0.00653656
throughput change = 0.0420616
Warmed up ...Time used is 3000 cycles
Class 0:
Packet latency average = 19.3548
	minimum = 7
	maximum = 42
Network latency average = 19.3535
	minimum = 7
	maximum = 42
Slowest packet = 2819
Flit latency average = 19.402
	minimum = 7
	maximum = 42
Slowest flit = 2819
Fragmentation average = 0
	minimum = 0
	maximum = 0
Injected packet rate average = 0.05075
	minimum = 0.041 (at node 6)
	maximum = 0.065 (at node 5)
Accepted packet rate average = 0.0500625
	minimum = 0.037 (at node 9)
	maximum = 0.066 (at node 5)
Injected flit rate average = 0.05075
	minimum = 0.041 (at node 6)
	maximum = 0.065 (at node 5)
Accepted flit rate average= 0.0500625
	minimum = 0.037 (at node 9)
	maximum = 0.066 (at node 5)
Injected packet length average = 1
Accepted packet length average = 1
Total in-flight flits = 20 (20 measured)
latency change    = 0.0204188
throughput change = 0.0536829
Class 0:
Packet latency average = 19.8888
	minimum = 7
	maximum = 43
Network latency average = 19.8882
	minimum = 7
	maximum = 43
Slowest packet = 3534
Flit latency average = 19.9088
	minimum = 7
	maximum = 43
Slowest flit = 3534
Fragmentation average = 0
	minimum = 0
	maximum = 0
Injected packet rate average = 0.0520938
	minimum = 0.0415 (at node 6)
	maximum = 0.0615 (at node 2)
Accepted packet rate average = 0.0517188
	minimum = 0.0405 (at node 9)
	maximum = 0.061 (at node 5)
Injected flit rate average = 0.0520938
	minimum = 0.0415 (at node 6)
	maximum = 0.0615 (at node 2)
Accepted flit rate average= 0.0517188
	minimum = 0.0405 (at node 9)
	maximum = 0.061 (at node 5)
Injected packet length average = 1
Accepted packet length average = 1
Total in-flight flits = 21 (21 measured)
latency change    = 0.0268504
throughput change = 0.0320242
Class 0:
Packet latency average = 19.7483
	minimum = 7
	maximum = 43
Network latency average = 19.7478
	minimum = 7
	maximum = 43
Slowest packet = 3534
Flit latency average = 19.7623
	minimum = 7
	maximum = 43
Slowest flit = 3534
Fragmentation average = 0
	minimum = 0
	maximum = 0
Injected packet rate average = 0.0512708
	minimum = 0.0443333 (at node 11)
	maximum = 0.0606667 (at node 5)
Accepted packet rate average = 0.051
	minimum = 0.0443333 (at node 14)
	maximum = 0.0606667 (at node 5)
Injected flit rate average = 0.0512708
	minimum = 0.0443333 (at node 11)
	maximum = 0.0606667 (at node 5)
Accepted flit rate average= 0.051
	minimum = 0.0443333 (at node 14)
	maximum = 0.0606667 (at node 5)
Injected packet length average = 1
Accepted packet length average = 1
Total in-flight flits = 22 (22 measured)
latency change    = 0.00711779
throughput change = 0.0140931
Class 0:
Packet latency average = 19.7069
	minimum = 7
	maximum = 46
Network latency average = 19.7066
	minimum = 7
	maximum = 46
Slowest packet = 5563
Flit latency average = 19.7175
	minimum = 7
	maximum = 46
Slowest flit = 5563
Fragmentation average = 0
	minimum = 0
	maximum = 0
Injected packet rate average = 0.0509844
	minimum = 0.045 (at node 11)
	maximum = 0.06 (at node 2)
Accepted packet rate average = 0.0508906
	minimum = 0.04475 (at node 14)
	maximum = 0.05925 (at node 8)
Injected flit rate average = 0.0509844
	minimum = 0.045 (at node 11)
	maximum = 0.06 (at node 2)
Accepted flit rate average= 0.0508906
	minimum = 0.04475 (at node 14)
	maximum = 0.05925 (at node 8)
Injected packet length average = 1
Accepted packet length average = 1
Total in-flight flits = 15 (15 measured)
latency change    = 0.0020988
throughput change = 0.00214922
Draining all recorded packets ...
Draining remaining packets ...
Time taken is 7064 cycles
Class 0:
Packet latency average = 19.722
	minimum = 7
	maximum = 47
Network latency average = 19.722
	minimum = 7
	maximum = 47
Slowest packet = 6315
Flit latency average = 19.722
	minimum = 7
	maximum = 47
Slowest flit = 6315
Fragmentation average = 0
	minimum = 0
	maximum = 0
Injected packet rate average = 0.049375
	minimum = 0.041 (at node 12)
	maximum = 0.064 (at node 4)
Accepted packet rate average = 0.0485625
	minimum = 0.041 (at node 3)
	maximum = 0.062 (at node 1)
Injected flit rate average = 0.049375
	minimum = 0.041 (at node 12)
	maximum = 0.064 (at node 4)
Accepted flit rate average= 0.0485625
	minimum = 0.041 (at node 3)
	maximum = 0.062 (at node 1)
Injected packet length average = 1
Accepted packet length average = 1
Total in-flight flits = 13 (0 measured)
latency change    = 1
throughput change = 1
Class 0:
Packet latency average = 19.7666
	minimum = 7
	maximum = 48
Network latency average = 19.7666
	minimum = 7
	maximum = 48
Slowest packet = 6997
Flit latency average = 19.7666
	minimum = 7
	maximum = 48
Slowest flit = 6997
Fragmentation average = 0
	minimum = 0
	maximum = 0
Injected packet rate average = 0.0490937
	minimum = 0.0425 (at node 10)
	maximum = 0.054 (at node 14)
Accepted packet rate average = 0.0484687
	minimum = 0.042 (at node 10)
	maximum = 0.053 (at node 1)
Injected flit rate average = 0.0490937
	minimum = 0.0425 (at node 10)
	maximum = 0.054 (at node 14)
Accepted flit rate average= 0.0484687
	minimum = 0.042 (at node 10)
	maximum = 0.053 (at node 1)
Injected packet length average = 1
Accepted packet length average = 1
Total in-flight flits = 20 (0 measured)
latency change    = 0.00225605
throughput change = 0.00193424
Class 0:
Packet latency average = 19.3126
	minimum = 7
	maximum = 43
Network latency average = 19.3126
	minimum = 7
	maximum = 43
Slowest packet = 7314
Flit latency average = 19.3126
	minimum = 7
	maximum = 43
Slowest flit = 7314
Fragmentation average = 0
	minimum = 0
	maximum = 0
Injected packet rate average = 0.0501875
	minimum = 0.033 (at node 3)
	maximum = 0.07 (at node 14)
Accepted packet rate average = 0.0501875
	minimum = 0.035 (at node 12)
	maximum = 0.07 (at node 11)
Injected flit rate average = 0.0501875
	minimum = 0.033 (at node 3)
	maximum = 0.07 (at node 14)
Accepted flit rate average= 0.0501875
	minimum = 0.035 (at node 12)
	maximum = 0.07 (at node 11)
Injected packet length average = 1
Accepted packet length average = 1
Total in-flight flits = 20 (0 measured)
latency change    = 0.0235093
throughput change = 0.0342466
Warmed up ...Time used is 3000 cycles
Class 0:
Packet latency average = 19.3837
	minimum = 7
	maximum = 41
Network latency average = 19.3837
	minimum = 7
	maximum = 41
Slowest packet = 8473
Flit latency average = 19.4831
	minimum = 7
	maximum = 41
Slowest flit = 8473
Fragmentation average = 0
	minimum = 0
	maximum = 0
Injected packet rate average = 0.04775
	minimum = 0.037 (at node 7)
	maximum = 0.056 (at node 6)
Accepted packet rate average = 0.048
	minimum = 0.04 (at node 13)
	maximum = 0.059 (at node 6)
Injected flit rate average = 0.04775
	minimum = 0.037 (at node 7)
	maximum = 0.056 (at node 6)
Accepted flit rate average= 0.048
	minimum = 0.04 (at node 13)
	maximum = 0.059 (at node 6)
Injected packet length average = 1
Accepted packet length average = 1
Total in-flight flits = 16 (16 measured)
latency change    = 0.00366865
throughput change = 0.0455729
Class 0:
Packet latency average = 19.6077
	minimum = 7
	maximum = 47
Network latency average = 19.6077
	minimum = 7
	maximum = 47
Slowest packet = 9211
Flit latency average = 19.6542
	minimum = 7
	maximum = 47
Slowest flit = 9211
Fragmentation average = 0
	minimum = 0
	maximum = 0
Injected packet rate average = 0.0484375
	minimum = 0.0415 (at node 0)
	maximum = 0.0605 (at node 9)
Accepted packet rate average = 0.0483437
	minimum = 0.0415 (at node 0)
	maximum = 0.062 (at node 6)
Injected flit rate average = 0.0484375
	minimum = 0.0415 (at node 0)
	maximum = 0.0605 (at node 9)
Accepted flit rate average= 0.0483437
	minimum = 0.0415 (at node 0)
	maximum = 0.062 (at node 6)
Injected packet length average = 1
Accepted packet length average = 1
Total in-flight flits = 23 (23 measured)
latency change    = 0.011426
throughput change = 0.00711054
Class 0:
Packet latency average = 19.7652
	minimum = 7
	maximum = 51
Network latency average = 19.7652
	minimum = 7
	maximum = 51
Slowest packet = 9654
Flit latency average = 19.7948
	minimum = 7
	maximum = 51
Slowest flit = 9654
Fragmentation average = 0
	minimum = 0
	maximum = 0
Injected packet rate average = 0.0483542
	minimum = 0.0416667 (at node 0)
	maximum = 0.0573333 (at node 9)
Accepted packet rate average = 0.0483333
	minimum = 0.0413333 (at node 0)
	maximum = 0.0583333 (at node 6)
Injected flit rate average = 0.0483542
	minimum = 0.0416667 (at node 0)
	maximum = 0.0573333 (at node 9)
Accepted flit rate average= 0.0483333
	minimum = 0.0413333 (at node 0)
	maximum = 0.0583333 (at node 6)
Injected packet length average = 1
Accepted packet length average = 1
Total in-flight flits = 21 (21 measured)
latency change    = 0.00796803
throughput change = 0.000215517
Draining all recorded packets ...
Draining remaining packets ...
Time taken is 6064 cycles
Class 0:
Packet latency average = 19.1392
	minimum = 7
	maximum = 42
Network latency average = 19.1392
	minimum = 7
	maximum = 42
Slowest packet = 11174
Flit latency average = 19.1392
	minimum = 7
	maximum = 42
Slowest flit = 11174
Fragmentation average = 0
	minimum = 0
	maximum = 0
Injected packet rate average = 0.04725
	minimum = 0.037 (at node 7)
	maximum = 0.057 (at node 1)
Accepted packet rate average = 0.04625
	minimum = 0.035 (at node 13)
	maximum = 0.057 (at node 4)
Injected flit rate average = 0.04725
	minimum = 0.037 (at node 7)
	maximum = 0.057 (at node 1)
Accepted flit rate average= 0.04625
	minimum = 0.035 (at node 13)
	maximum = 0.057 (at node 4)
Injected packet length average = 1
Accepted packet length average = 1
Total in-flight flits = 16 (0 measured)
latency change    = 1
throughput change = 1
Class 0:
Packet latency average = 19.7392
	minimum = 7
	maximum = 49
Network latency average = 19.7392
	minimum = 7
	maximum = 49
Slowest packet = 11698
Flit latency average = 19.7392
	minimum = 7
	maximum = 49
Slowest flit = 11698
Fragmentation average = 0
	minimum = 0
	maximum = 0
Injected packet rate average = 0.0490312
	minimum = 0.04 (at node 15)
	maximum = 0.0585 (at node 12)
Accepted packet rate average = 0.0486562
	minimum = 0.04 (at node 15)
	maximum = 0.0575 (at node 3)
Injected flit rate average = 0.0490312
	minimum = 0.04 (at node 15)
	maximum = 0.0585 (at node 12)
Accepted flit rate average= 0.0486562
	minimum = 0.04 (at node 15)
	maximum = 0.0575 (at node 3)
Injected packet length average = 1
Accepted packet length average = 1
Total in-flight flits = 12 (0 measured)
latency change    = 0.030399
throughput change = 0.0494541
Class 0:
Packet latency average = 19.684
	minimum = 7
	maximum = 51
Network latency average = 19.684
	minimum = 7
	maximum = 51
Slowest packet = 12424
Flit latency average = 19.684
	minimum = 7
	maximum = 51
Slowest flit = 12424
Fragmentation average = 0
	minimum = 0
	maximum = 0
Injected packet rate average = 0.0508125
	minimum = 0.039 (at node 9)
	maximum = 0.07 (at node 2)
Accepted packet rate average = 0.050625
	minimum = 0.041 (at node 6)
	maximum = 0.07 (at node 8)
Injected flit rate average = 0.0508125
	minimum = 0.039 (at node 9)
	maximum = 0.07 (at node 2)
Accepted flit rate average= 0.050625
	minimum = 0.041 (at node 6)
	maximum = 0.07 (at node 8)
Injected packet length average = 1
Accepted packet length average = 1
Total in-flight flits = 15 (0 measured)
latency change    = 0.00280896
throughput change = 0.0388889
Warmed up ...Time used is 3000 cycles
Class 0:
Packet latency average = 19.365
	minimum = 7
	maximum = 38
Network latency average = 19.365
	minimum = 7
	maximum = 38
Slowest packet = 12957
Flit latency average = 19.3966
	minimum = 7
	maximum = 38
Slowest flit = 12957
Fragmentation average = 0
	minimum = 0
	maximum = 0
Injected packet rate average = 0.0485
	minimum = 0.04 (at node 8)
	maximum = 0.061 (at node 15)
Accepted packet rate average = 0.048375
	minimum = 0.041 (at node 1)
	maximum = 0.06 (at node 15)
Injected flit rate average = 0.0485
	minimum = 0.04 (at node 8)
	maximum = 0.061 (at node 15)
Accepted flit rate average= 0.048375
	minimum = 0.041 (at node 1)
	maximum = 0.06 (at node 15)
Injected packet length average = 1
Accepted packet length average = 1
Total in-flight flits = 17 (17 measured)
latency change    = 0.0164729
throughput change = 0.0465116
Class 0:
Packet latency average = 19.3773
	minimum = 7
	maximum = 46
Network latency average = 19.3773
	minimum = 7
	maximum = 46
Slowest packet = 14345
Flit latency average = 19.3929
	minimum = 7
	maximum = 46
Slowest flit = 14345
Fragmentation average = 0
	minimum = 0
	maximum = 0
Injected packet rate average = 0.0488125
	minimum = 0.0395 (at node 8)
	maximum = 0.0555 (at node 12)
Accepted packet rate average = 0.0485937
	minimum = 0.0395 (at node 2)
	maximum = 0.054 (at node 15)
Injected flit rate average = 0.0488125
	minimum = 0.0395 (at node 8)
	maximum = 0.0555 (at node 12)
Accepted flit rate average= 0.0485937
	minimum = 0.0395 (at node 2)
	maximum = 0.054 (at node 15)
Injected packet length average = 1
Accepted packet length average = 1
Total in-flight flits = 22 (22 measured)
latency change    = 0.000635737
throughput change = 0.00450161
Class 0:
Packet latency average = 19.6086
	minimum = 7
	maximum = 46
Network latency average = 19.6086
	minimum = 7
	maximum = 46
Slowest packet = 14345
Flit latency average = 19.6174
	minimum = 7
	maximum = 46
Slowest flit = 14345
Fragmentation average = 0
	minimum = 0
	maximum = 0
Injected packet rate average = 0.0493333
	minimum = 0.0396667 (at node 8)
	maximum = 0.056 (at node 12)
Accepted packet rate average = 0.0494375
	minimum = 0.0406667 (at node 2)
	maximum = 0.0556667 (at node 3)
Injected flit rate average = 0.0493333
	minimum = 0.0396667 (at node 8)
	maximum = 0.056 (at node 12)
Accepted flit rate average= 0.0494375
	minimum = 0.0406667 (at node 2)
	maximum = 0.0556667 (at node 3)
Injected packet length average = 1
Accepted packet length average = 1
Total in-flight flits = 10 (10 measured)
latency change    = 0.0117956
throughput change = 0.017067
Draining all recorded packets ...
Draining remaining packets ...
Time taken is 6074 cycles
Class 0:
Packet latency average = 19.3628
	minimum = 7
	maximum = 46
Network latency average = 19.3628
	minimum = 7
	maximum = 46
Slowest packet = 15258
Flit latency average = 19.3628
	minimum = 7
	maximum = 46
Slowest flit = 15258
Fragmentation average = 0
	minimum = 0
	maximum = 0
Injected packet rate average = 0.0485625
	minimum = 0.035 (at node 8)
	maximum = 0.064 (at node 9)
Accepted packet rate average = 0.047375
	minimum = 0.033 (at node 2)
	maximum = 0.063 (at node 1)
Injected flit rate average = 0.0485625
	minimum = 0.035 (at node 8)
	maximum = 0.064 (at node 9)
Accepted flit rate average= 0.047375
	minimum = 0.033 (at node 2)
	maximum = 0.063 (at node 1)
Injected packet length average = 1
Accepted packet length average = 1
Total in-flight flits = 19 (0 measured)
latency change    = 1
throughput change = 1
Class 0:
Packet latency average = 19.2229
	minimum = 7
	maximum = 46
Network latency average = 19.2229
	minimum = 7
	maximum = 46
Slowest packet = 15258
Flit latency average = 19.2229
	minimum = 7
	maximum = 46
Slowest flit = 15258
Fragmentation average = 0
	minimum = 0
	maximum = 0
Injected packet rate average = 0.048875
	minimum = 0.036 (at node 3)
	maximum = 0.057 (at node 4)
Accepted packet rate average = 0.048375
	minimum = 0.0355 (at node 12)
	maximum = 0.057 (at node 1)
Injected flit rate average = 0.048875
	minimum = 0.036 (at node 3)
	maximum = 0.057 (at node 4)
Accepted flit rate average= 0.048375
	minimum = 0.0355 (at node 12)
	maximum = 0.057 (at node 1)
Injected packet length average = 1
Accepted packet length average = 1
Total in-flight flits = 16 (0 measured)
latency change    = 0.00727928
throughput change = 0.0206718
Class 0:
Packet latency average = 19.8109
	minimum = 7
	maximum = 46
Network latency average = 19.8109
	minimum = 7
	maximum = 46
Slowest packet = 16921
Flit latency average = 19.8109
	minimum = 7
	maximum = 46
Slowest flit = 16921
Fragmentation average = 0
	minimum = 0
	maximum = 0
Injected packet rate average = 0.052375
	minimum = 0.035 (at node 6)
	maximum = 0.063 (at node 15)
Accepted packet rate average = 0.0525625
	minimum = 0.036 (at node 9)
	maximum = 0.062 (at node 3)
Injected flit rate average = 0.052375
	minimum = 0.035 (at node 6)
	maximum = 0.063 (at node 15)
Accepted flit rate average= 0.0525625
	minimum = 0.036 (at node 9)
	maximum = 0.062 (at node 3)
Injected packet length average = 1
Accepted packet length average = 1
Total in-flight flits = 13 (0 measured)
latency change    = 0.0296842
throughput change = 0.0796671
Warmed up ...Time used is 3000 cycles
Class 0:
Packet latency average = 19.9561
	minimum = 7
	maximum = 46
Network latency average = 19.9561
	minimum = 7
	maximum = 46
Slowest packet = 17920
Flit latency average = 19.9835
	minimum = 7
	maximum = 46
Slowest flit = 17920
Fragmentation average = 0
	minimum = 0
	maximum = 0
Injected packet rate average = 0.0494375
	minimum = 0.036 (at node 11)
	maximum = 0.061 (at node 2)
Accepted packet rate average = 0.0491875
	minimum = 0.037 (at node 14)
	maximum = 0.06 (at node 6)
Injected flit rate average = 0.0494375
	minimum = 0.036 (at node 11)
	maximum = 0.061 (at node 2)
Accepted flit rate average= 0.0491875
	minimum = 0.037 (at node 14)
	maximum = 0.06 (at node 6)
Injected packet length average = 1
Accepted packet length average = 1
Total in-flight flits = 17 (17 measured)
latency change    = 0.00727262
throughput change = 0.068615
Class 0:
Packet latency average = 19.894
	minimum = 7
	maximum = 46
Network latency average = 19.894
	minimum = 7
	maximum = 46
Slowest packet = 17920
Flit latency average = 19.9077
	minimum = 7
	maximum = 46
Slowest flit = 17920
Fragmentation average = 0
	minimum = 0
	maximum = 0
Injected packet rate average = 0.05075
	minimum = 0.0425 (at node 0)
	maximum = 0.062 (at node 2)
Accepted packet rate average = 0.0508125
	minimum = 0.0425 (at node 0)
	maximum = 0.062 (at node 8)
Injected flit rate average = 0.05075
	minimum = 0.0425 (at node 0)
	maximum = 0.062 (at node 2)
Accepted flit rate average= 0.0508125
	minimum = 0.0425 (at node 0)
	maximum = 0.062 (at node 8)
Injected packet length average = 1
Accepted packet length average = 1
Total in-flight flits = 11 (11 measured)
latency change    = 0.00312084
throughput change = 0.0319803
Class 0:
Packet latency average = 19.6129
	minimum = 7
	maximum = 50
Network latency average = 19.6129
	minimum = 7
	maximum = 50
Slowest packet = 19598
Flit latency average = 19.6235
	minimum = 7
	maximum = 50
Slowest flit = 19598
Fragmentation average = 0
	minimum = 0
	maximum = 0
Injected packet rate average = 0.0512292
	minimum = 0.046 (at node 0)
	maximum = 0.0586667 (at node 5)
Accepted packet rate average = 0.0511875
	minimum = 0.0456667 (at node 0)
	maximum = 0.0586667 (at node 5)
Injected flit rate average = 0.0512292
	minimum = 0.046 (at node 0)
	maximum = 0.0586667 (at node 5)
Accepted flit rate average= 0.0511875
	minimum = 0.0456667 (at node 0)
	maximum = 0.0586667 (at node 5)
Injected packet length average = 1
Accepted packet length average = 1
Total in-flight flits = 15 (15 measured)
latency change    = 0.0143302
throughput change = 0.00732601
Class 0:
Packet latency average = 19.4763
	minimum = 7
	maximum = 50
Network latency average = 19.4763
	minimum = 7
	maximum = 50
Slowest packet = 19598
Flit latency average = 19.4849
	minimum = 7
	maximum = 50
Slowest flit = 19598
Fragmentation average = 0
	minimum = 0
	maximum = 0
Injected packet rate average = 0.0506094
	minimum = 0.046 (at node 14)
	maximum = 0.05825 (at node 5)
Accepted packet rate average = 0.050625
	minimum = 0.046 (at node 11)
	maximum = 0.05775 (at node 5)
Injected flit rate average = 0.0506094
	minimum = 0.046 (at node 14)
	maximum = 0.05825 (at node 5)
Accepted flit rate average= 0.050625
	minimum = 0.046 (at node 11)
	maximum = 0.05775 (at node 5)
Injected packet length average = 1
Accepted packet length average = 1
Total in-flight flits = 12 (12 measured)
latency change    = 0.0070155
throughput change = 0.0111111
Draining all recorded packets ...
Draining remaining packets ...
Time taken is 7071 cycles
Class 0:
Packet latency average = 20.1741
	minimum = 7
	maximum = 44
Network latency average = 20.1741
	minimum = 7
	maximum = 44
Slowest packet = 21365
Flit latency average = 20.1741
	minimum = 7
	maximum = 44
Slowest flit = 21365
Fragmentation average = 0
	minimum = 0
	maximum = 0
Injected packet rate average = 0.05175
	minimum = 0.037 (at node 15)
	maximum = 0.068 (at node 7)
Accepted packet rate average = 0.050625
	minimum = 0.036 (at node 15)
	maximum = 0.064 (at node 13)
Injected flit rate average = 0.05175
	minimum = 0.037 (at node 15)
	maximum = 0.068 (at node 7)
Accepted flit rate average= 0.050625
	minimum = 0.036 (at node 15)
	maximum = 0.064 (at node 13)
Injected packet length average = 1
Accepted packet length average = 1
Total in-flight flits = 18 (0 measured)
latency change    = 1
throughput change = 1
Class 0:
Packet latency average = 19.8566
	minimum = 7
	maximum = 44
Network latency average = 19.8566
	minimum = 7
	maximum = 44
Slowest packet = 21365
Flit latency average = 19.8566
	minimum = 7
	maximum = 44
Slowest flit = 21365
Fragmentation average = 0
	minimum = 0
	maximum = 0
Injected packet rate average = 0.0512813
	minimum = 0.0445 (at node 12)
	maximum = 0.062 (at node 11)
Accepted packet rate average = 0.0507812
	minimum = 0.0445 (at node 3)
	maximum = 0.0615 (at node 14)
Injected flit rate average = 0.0512813
	minimum = 0.0445 (at node 12)
	maximum = 0.062 (at node 11)
Accepted flit rate average= 0.0507812
	minimum = 0.0445 (at node 3)
	maximum = 0.0615 (at node 14)
Injected packet length average = 1
Accepted packet length average = 1
Total in-flight flits = 16 (0 measured)
latency change    = 0.0159876
throughput change = 0.00307692
Class 0:
Packet latency average = 19.981
	minimum = 7
	maximum = 47
Network latency average = 19.9772
	minimum = 7
	maximum = 47
Slowest packet = 22741
Flit latency average = 19.9772
	minimum = 7
	maximum = 47
Slowest flit = 22741
Fragmentation average = 0
	minimum = 0
	maximum = 0
Injected packet rate average = 0.0490625
	minimum = 0.04 (at node 5)
	maximum = 0.06 (at node 14)
Accepted packet rate average = 0.049375
	minimum = 0.04 (at node 5)
	maximum = 0.059 (at node 11)
Injected flit rate average = 0.0490625
	minimum = 0.04 (at node 5)
	maximum = 0.06 (at node 14)
Accepted flit rate average= 0.049375
	minimum = 0.04 (at node 5)
	maximum = 0.059 (at node 11)
Injected packet length average = 1
Accepted packet length average = 1
Total in-flight flits = 11 (0 measured)
latency change    = 0.00622577
throughput change = 0.028481
Warmed up ...Time used is 3000 cycles
Class 0:
Packet latency average = 19.7517
	minimum = 7
	maximum = 54
Network latency average = 19.7517
	minimum = 7
	maximum = 54
Slowest packet = 23550
Flit latency average = 19.7986
	minimum = 7
	maximum = 54
Slowest flit = 23550
Fragmentation average = 0
	minimum = 0
	maximum = 0
Injected packet rate average = 0.0543125
	minimum = 0.045 (at node 1)
	maximum = 0.07 (at node 8)
Accepted packet rate average = 0.0543125
	minimum = 0.044 (at node 10)
	maximum = 0.068 (at node 2)
Injected flit rate average = 0.0543125
	minimum = 0.045 (at node 1)
	maximum = 0.07 (at node 8)
Accepted flit rate average= 0.0543125
	minimum = 0.044 (at node 10)
	maximum = 0.068 (at node 2)
Injected packet length average = 1
Accepted packet length average = 1
Total in-flight flits = 11 (11 measured)
latency change    = 0.0116073
throughput change = 0.0909091
Class 0:
Packet latency average = 19.7445
	minimum = 7
	maximum = 54
Network latency average = 19.7445
	minimum = 7
	maximum = 54
Slowest packet = 23550
Flit latency average = 19.7681
	minimum = 7
	maximum = 54
Slowest flit = 23550
Fragmentation average = 0
	minimum = 0
	maximum = 0
Injected packet rate average = 0.0541563
	minimum = 0.0445 (at node 5)
	maximum = 0.0615 (at node 14)
Accepted packet rate average = 0.0540313
	minimum = 0.0445 (at node 5)
	maximum = 0.0615 (at node 11)
Injected flit rate average = 0.0541563
	minimum = 0.0445 (at node 5)
	maximum = 0.0615 (at node 14)
Accepted flit rate average= 0.0540313
	minimum = 0.0445 (at node 5)
	maximum = 0.0615 (at node 11)
Injected packet length average = 1
Accepted packet length average = 1
Total in-flight flits = 15 (15 measured)
latency change    = 0.000368606
throughput change = 0.00520532
Class 0:
Packet latency average = 19.7002
	minimum = 7
	maximum = 54
Network latency average = 19.7002
	minimum = 7
	maximum = 54
Slowest packet = 23550
Flit latency average = 19.7166
	minimum = 7
	maximum = 54
Slowest flit = 23550
Fragmentation average = 0
	minimum = 0
	maximum = 0
Injected packet rate average = 0.0526875
	minimum = 0.0433333 (at node 5)
	maximum = 0.0593333 (at node 13)
Accepted packet rate average = 0.0525625
	minimum = 0.0433333 (at node 5)
	maximum = 0.0586667 (at node 7)
Injected flit rate average = 0.0526875
	minimum = 0.0433333 (at node 5)
	maximum = 0.0593333 (at node 13)
Accepted flit rate average= 0.0525625
	minimum = 0.0433333 (at node 5)
	maximum = 0.0586667 (at node 7)
Injected packet length average = 1
Accepted packet length average = 1
Total in-flight flits = 17 (17 measured)
latency change    = 0.00224522
throughput change = 0.0279429
Class 0:
Packet latency average = 19.7776
	minimum = 7
	maximum = 54
Network latency average = 19.7776
	minimum = 7
	maximum = 54
Slowest packet = 23550
Flit latency average = 19.7898
	minimum = 7
	maximum = 54
Slowest flit = 23550
Fragmentation average = 0
	minimum = 0
	maximum = 0
Injected packet rate average = 0.0519531
	minimum = 0.043 (at node 5)
	maximum = 0.05625 (at node 13)
Accepted packet rate average = 0.051875
	minimum = 0.043 (at node 5)
	maximum = 0.05625 (at node 11)
Injected flit rate average = 0.0519531
	minimum = 0.043 (at node 5)
	maximum = 0.05625 (at node 13)
Accepted flit rate average= 0.051875
	minimum = 0.043 (at node 5)
	maximum = 0.05625 (at node 11)
Injected packet length average = 1
Accepted packet length average = 1
Total in-flight flits = 16 (16 measured)
latency change    = 0.00391036
throughput change = 0.013253
Draining all recorded packets ...
Draining remaining packets ...
Time taken is 7061 cycles
Class 0:
Packet latency average = 19.0903
	minimum = 7
	maximum = 46
Network latency average = 19.0903
	minimum = 7
	maximum = 46
Slowest packet = 26994
Flit latency average = 19.0903
	minimum = 7
	maximum = 46
Slowest flit = 26994
Fragmentation average = 0
	minimum = 0
	maximum = 0
Injected packet rate average = 0.0511875
	minimum = 0.038 (at node 13)
	maximum = 0.065 (at node 15)
Accepted packet rate average = 0.0505
	minimum = 0.038 (at node 7)
	maximum = 0.065 (at node 15)
Injected flit rate average = 0.0511875
	minimum = 0.038 (at node 13)
	maximum = 0.065 (at node 15)
Accepted flit rate average= 0.0505
	minimum = 0.038 (at node 7)
	maximum = 0.065 (at node 15)
Injected packet length average = 1
Accepted packet length average = 1
Total in-flight flits = 11 (0 measured)
latency change    = 1
throughput change = 1
Class 0:
Packet latency average = 19.6844
	minimum = 7
	maximum = 46
Network latency average = 19.6844
	minimum = 7
	maximum = 46
Slowest packet = 26994
Flit latency average = 19.6844
	minimum = 7
	maximum = 46
Slowest flit = 26994
Fragmentation average = 0
	minimum = 0
	maximum = 0
Injected packet rate average = 0.050875
	minimum = 0.0435 (at node 9)
	maximum = 0.064 (at node 8)
Accepted packet rate average = 0.0504062
	minimum = 0.043 (at node 6)
	maximum = 0.064 (at node 2)
Injected flit rate average = 0.050875
	minimum = 0.0435 (at node 9)
	maximum = 0.064 (at node 8)
Accepted flit rate average= 0.0504062
	minimum = 0.043 (at node 6)
	maximum = 0.064 (at node 2)
Injected packet length average = 1
Accepted packet length average = 1
Total in-flight flits = 15 (0 measured)
latency change    = 0.0301808
throughput change = 0.00185989
Class 0:
Packet latency average = 20.0335
	minimum = 7
	maximum = 43
Network latency average = 20.0335
	minimum = 7
	maximum = 43
Slowest packet = 28572
Flit latency average = 20.0335
	minimum = 7
	maximum = 43
Slowest flit = 28572
Fragmentation average = 0
	minimum = 0
	maximum = 0
Injected packet rate average = 0.0506875
	minimum = 0.038 (at node 11)
	maximum = 0.066 (at node 10)
Accepted packet rate average = 0.050375
	minimum = 0.038 (at node 14)
	maximum = 0.063 (at node 10)
Injected flit rate average = 0.0506875
	minimum = 0.038 (at node 11)
	maximum = 0.066 (at node 10)
Accepted flit rate average= 0.050375
	minimum = 0.038 (at node 14)
	maximum = 0.063 (at node 10)
Injected packet length average = 1
Accepted packet length average = 1
Total in-flight flits = 20 (0 measured)
latency change    = 0.0174238
throughput change = 0.000620347
Warmed up ...Time used is 3000 cycles
Class 0:
Packet latency average = 18.9098
	minimum = 7
	maximum = 47
Network latency average = 18.9085
	minimum = 7
	maximum = 47
Slowest packet = 29660
Flit latency average = 18.9908
	minimum = 7
	maximum = 47
Slowest flit = 29660
Fragmentation average = 0
	minimum = 0
	maximum = 0
Injected packet rate average = 0.0475625
	minimum = 0.038 (at node 12)
	maximum = 0.058 (at node 0)
Accepted packet rate average = 0.0476875
	minimum = 0.038 (at node 3)
	maximum = 0.057 (at node 0)
Injected flit rate average = 0.0475625
	minimum = 0.038 (at node 12)
	maximum = 0.058 (at node 0)
Accepted flit rate average= 0.0476875
	minimum = 0.038 (at node 3)
	maximum = 0.057 (at node 0)
Injected packet length average = 1
Accepted packet length average = 1
Total in-flight flits = 18 (18 measured)
latency change    = 0.0594227
throughput change = 0.0563565
Class 0:
Packet latency average = 19.1941
	minimum = 7
	maximum = 47
Network latency average = 19.1934
	minimum = 7
	maximum = 47
Slowest packet = 29660
Flit latency average = 19.2304
	minimum = 7
	maximum = 47
Slowest flit = 29660
Fragmentation average = 0
	minimum = 0
	maximum = 0
Injected packet rate average = 0.0481562
	minimum = 0.043 (at node 6)
	maximum = 0.0555 (at node 0)
Accepted packet rate average = 0.0482812
	minimum = 0.043 (at node 9)
	maximum = 0.0555 (at node 0)
Injected flit rate average = 0.0481562
	minimum = 0.043 (at node 6)
	maximum = 0.0555 (at node 0)
Accepted flit rate average= 0.0482812
	minimum = 0.043 (at node 9)
	maximum = 0.0555 (at node 0)
Injected packet length average = 1
Accepted packet length average = 1
Total in-flight flits = 16 (16 measured)
latency change    = 0.0148105
throughput change = 0.0122977
Class 0:
Packet latency average = 19.1299
	minimum = 7
	maximum = 47
Network latency average = 19.1295
	minimum = 7
	maximum = 47
Slowest packet = 29660
Flit latency average = 19.1544
	minimum = 7
	maximum = 47
Slowest flit = 29660
Fragmentation average = 0
	minimum = 0
	maximum = 0
Injected packet rate average = 0.0486875
	minimum = 0.039 (at node 2)
	maximum = 0.0563333 (at node 0)
Accepted packet rate average = 0.0488542
	minimum = 0.0403333 (at node 8)
	maximum = 0.056 (at node 0)
Injected flit rate average = 0.0486875
	minimum = 0.039 (at node 2)
	maximum = 0.0563333 (at node 0)
Accepted flit rate average= 0.0488542
	minimum = 0.0403333 (at node 8)
	maximum = 0.056 (at node 0)
Injected packet length average = 1
Accepted packet length average = 1
Total in-flight flits = 12 (12 measured)
latency change    = 0.00335631
throughput change = 0.0117271
Class 0:
Packet latency average = 19.1436
	minimum = 7
	maximum = 47
Network latency average = 19.1432
	minimum = 7
	maximum = 47
Slowest packet = 29660
Flit latency average = 19.162
	minimum = 7
	maximum = 47
Slowest flit = 29660
Fragmentation average = 0
	minimum = 0
	maximum = 0
Injected packet rate average = 0.0481719
	minimum = 0.04075 (at node 2)
	maximum = 0.0555 (at node 0)
Accepted packet rate average = 0.0483125
	minimum = 0.0415 (at node 3)
	maximum = 0.0555 (at node 0)
Injected flit rate average = 0.0481719
	minimum = 0.04075 (at node 2)
	maximum = 0.0555 (at node 0)
Accepted flit rate average= 0.0483125
	minimum = 0.0415 (at node 3)
	maximum = 0.0555 (at node 0)
Injected packet length average = 1
Accepted packet length average = 1
Total in-flight flits = 11 (11 measured)
latency change    = 0.000713672
throughput change = 0.0112117
Draining all recorded packets ...
Draining remaining packets ...
Time taken is 7068 cycles
Class 0:
Packet latency average = 19.4106
	minimum = 7
	maximum = 43
Network latency average = 19.4106
	minimum = 7
	maximum = 43
Slowest packet = 32633
Flit latency average = 19.4106
	minimum = 7
	maximum = 43
Slowest flit = 32633
Fragmentation average = 0
	minimum = 0
	maximum = 0
Injected packet rate average = 0.049625
	minimum = 0.036 (at node 6)
	maximum = 0.059 (at node 5)
Accepted packet rate average = 0.0485625
	minimum = 0.035 (at node 9)
	maximum = 0.058 (at node 8)
Injected flit rate average = 0.049625
	minimum = 0.036 (at node 6)
	maximum = 0.059 (at node 5)
Accepted flit rate average= 0.0485625
	minimum = 0.035 (at node 9)
	maximum = 0.058 (at node 8)
Injected packet length average = 1
Accepted packet length average = 1
Total in-flight flits = 17 (0 measured)
latency change    = 1
throughput change = 1
Class 0:
Packet latency average = 19.521
	minimum = 7
	maximum = 50
Network latency average = 19.521
	minimum = 7
	maximum = 50
Slowest packet = 33439
Flit latency average = 19.521
	minimum = 7
	maximum = 50
Slowest flit = 33439
Fragmentation average = 0
	minimum = 0
	maximum = 0
Injected packet rate average = 0.0504375
	minimum = 0.037 (at node 6)
	maximum = 0.0585 (at node 4)
Accepted packet rate average = 0.0499062
	minimum = 0.036 (at node 9)
	maximum = 0.0585 (at node 1)
Injected flit rate average = 0.0504375
	minimum = 0.037 (at node 6)
	maximum = 0.0585 (at node 4)
Accepted flit rate average= 0.0499062
	minimum = 0.036 (at node 9)
	maximum = 0.0585 (at node 1)
Injected packet length average = 1
Accepted packet length average = 1
Total in-flight flits = 17 (0 measured)
latency change    = 0.00565665
throughput change = 0.0269255
Class 0:
Packet latency average = 19.6975
	minimum = 7
	maximum = 44
Network latency average = 19.6975
	minimum = 7
	maximum = 44
Slowest packet = 34427
Flit latency average = 19.6975
	minimum = 7
	maximum = 44
Slowest flit = 34427
Fragmentation average = 0
	minimum = 0
	maximum = 0
Injected packet rate average = 0.047625
	minimum = 0.04 (at node 0)
	maximum = 0.057 (at node 12)
Accepted packet rate average = 0.0479375
	minimum = 0.039 (at node 4)
	maximum = 0.056 (at node 3)
Injected flit rate average = 0.047625
	minimum = 0.04 (at node 0)
	maximum = 0.057 (at node 12)
Accepted flit rate average= 0.0479375
	minimum = 0.039 (at node 4)
	maximum = 0.056 (at node 3)
Injected packet length average = 1
Accepted packet length average = 1
Total in-flight flits = 12 (0 measured)
latency change    = 0.00896285
throughput change = 0.0410691
Warmed up ...Time used is 3000 cycles
Class 0:
Packet latency average = 19.4775
	minimum = 7
	maximum = 43
Network latency average = 19.4775
	minimum = 7
	maximum = 43
Slowest packet = 34615
Flit latency average = 19.587
	minimum = 7
	maximum = 43
Slowest flit = 34615
Fragmentation average = 0
	minimum = 0
	maximum = 0
Injected packet rate average = 0.0516875
	minimum = 0.042 (at node 13)
	maximum = 0.064 (at node 7)
Accepted packet rate average = 0.0520625
	minimum = 0.044 (at node 7)
	maximum = 0.063 (at node 13)
Injected flit rate average = 0.0516875
	minimum = 0.042 (at node 13)
	maximum = 0.064 (at node 7)
Accepted flit rate average= 0.0520625
	minimum = 0.044 (at node 7)
	maximum = 0.063 (at node 13)
Injected packet length average = 1
Accepted packet length average = 1
Total in-flight flits = 6 (6 measured)
latency change    = 0.011298
throughput change = 0.0792317
Class 0:
Packet latency average = 19.5611
	minimum = 7
	maximum = 47
Network latency average = 19.5611
	minimum = 7
	maximum = 47
Slowest packet = 35777
Flit latency average = 19.6161
	minimum = 7
	maximum = 47
Slowest flit = 35777
Fragmentation average = 0
	minimum = 0
	maximum = 0
Injected packet rate average = 0.0513125
	minimum = 0.041 (at node 13)
	maximum = 0.057 (at node 7)
Accepted packet rate average = 0.0512813
	minimum = 0.0415 (at node 7)
	maximum = 0.0575 (at node 13)
Injected flit rate average = 0.0513125
	minimum = 0.041 (at node 13)
	maximum = 0.057 (at node 7)
Accepted flit rate average= 0.0512813
	minimum = 0.0415 (at node 7)
	maximum = 0.0575 (at node 13)
Injected packet length average = 1
Accepted packet length average = 1
Total in-flight flits = 13 (13 measured)
latency change    = 0.0042745
throughput change = 0.0152346
Class 0:
Packet latency average = 19.7805
	minimum = 7
	maximum = 47
Network latency average = 19.7805
	minimum = 7
	maximum = 47
Slowest packet = 35777
Flit latency average = 19.8165
	minimum = 7
	maximum = 47
Slowest flit = 35777
Fragmentation average = 0
	minimum = 0
	maximum = 0
Injected packet rate average = 0.0507083
	minimum = 0.046 (at node 5)
	maximum = 0.0553333 (at node 0)
Accepted packet rate average = 0.0506458
	minimum = 0.046 (at node 5)
	maximum = 0.0553333 (at node 0)
Injected flit rate average = 0.0507083
	minimum = 0.046 (at node 5)
	maximum = 0.0553333 (at node 0)
Accepted flit rate average= 0.0506458
	minimum = 0.046 (at node 5)
	maximum = 0.0553333 (at node 0)
Injected packet length average = 1
Accepted packet length average = 1
Total in-flight flits = 15 (15 measured)
latency change    = 0.0110921
throughput change = 0.0125463
Class 0:
Packet latency average = 19.8558
	minimum = 7
	maximum = 47
Network latency average = 19.8558
	minimum = 7
	maximum = 47
Slowest packet = 35777
Flit latency average = 19.8826
	minimum = 7
	maximum = 47
Slowest flit = 35777
Fragmentation average = 0
	minimum = 0
	maximum = 0
Injected packet rate average = 0.0505
	minimum = 0.047 (at node 4)
	maximum = 0.05425 (at node 12)
Accepted packet rate average = 0.0504531
	minimum = 0.04675 (at node 1)
	maximum = 0.05425 (at node 3)
Injected flit rate average = 0.0505
	minimum = 0.047 (at node 4)
	maximum = 0.05425 (at node 12)
Accepted flit rate average= 0.0504531
	minimum = 0.04675 (at node 1)
	maximum = 0.05425 (at node 3)
Injected packet length average = 1
Accepted packet length average = 1
Total in-flight flits = 15 (15 measured)
latency change    = 0.00379126
throughput change = 0.00381955
Draining all recorded packets ...
Draining remaining packets ...
Time taken is 7068 cycles
Class 0:
Packet latency average = 19.8443
	minimum = 7
	maximum = 42
Network latency average = 19.8443
	minimum = 7
	maximum = 42
Slowest packet = 38229
Flit latency average = 19.8443
	minimum = 7
	maximum = 42
Slowest flit = 38229
Fragmentation average = 0
	minimum = 0
	maximum = 0
Injected packet rate average = 0.0509375
	minimum = 0.042 (at node 10)
	maximum = 0.059 (at node 3)
Accepted packet rate average = 0.049375
	minimum = 0.042 (at node 10)
	maximum = 0.056 (at node 0)
Injected flit rate average = 0.0509375
	minimum = 0.042 (at node 10)
	maximum = 0.059 (at node 3)
Accepted flit rate average= 0.049375
	minimum = 0.042 (at node 10)
	maximum = 0.056 (at node 0)
Injected packet length average = 1
Accepted packet length average = 1
Total in-flight flits = 25 (0 measured)
latency change    = 1
throughput change = 1
Class 0:
Packet latency average = 19.6447
	minimum = 7
	maximum = 49
Network latency average = 19.6447
	minimum = 7
	maximum = 49
Slowest packet = 39245
Flit latency average = 19.6447
	minimum = 7
	maximum = 49
Slowest flit = 39245
Fragmentation average = 0
	minimum = 0
	maximum = 0
Injected packet rate average = 0.04925
	minimum = 0.0415 (at node 10)
	maximum = 0.057 (at node 5)
Accepted packet rate average = 0.0488125
	minimum = 0.0415 (at node 10)
	maximum = 0.057 (at node 5)
Injected flit rate average = 0.04925
	minimum = 0.0415 (at node 10)
	maximum = 0.057 (at node 5)
Accepted flit rate average= 0.0488125
	minimum = 0.0415 (at node 10)
	maximum = 0.057 (at node 5)
Injected packet length average = 1
Accepted packet length average = 1
Total in-flight flits = 14 (0 measured)
latency change    = 0.0101614
throughput change = 0.0115237
Class 0:
Packet latency average = 19.1718
	minimum = 7
	maximum = 50
Network latency average = 19.1718
	minimum = 7
	maximum = 50
Slowest packet = 39551
Flit latency average = 19.1718
	minimum = 7
	maximum = 50
Slowest flit = 39551
Fragmentation average = 0
	minimum = 0
	maximum = 0
Injected packet rate average = 0.053
	minimum = 0.036 (at node 14)
	maximum = 0.078 (at node 10)
Accepted packet rate average = 0.05275
	minimum = 0.035 (at node 11)
	maximum = 0.078 (at node 10)
Injected flit rate average = 0.053
	minimum = 0.036 (at node 14)
	maximum = 0.078 (at node 10)
Accepted flit rate average= 0.05275
	minimum = 0.035 (at node 11)
	maximum = 0.078 (at node 10)
Injected packet length average = 1
Accepted packet length average = 1
Total in-flight flits = 18 (0 measured)
latency change    = 0.0246657
throughput change = 0.0746445
Warmed up ...Time used is 3000 cycles
Class 0:
Packet latency average = 19.564
	minimum = 7
	maximum = 51
Network latency average = 19.564
	minimum = 7
	maximum = 51
Slowest packet = 40516
Flit latency average = 19.7313
	minimum = 7
	maximum = 51
Slowest flit = 40516
Fragmentation average = 0
	minimum = 0
	maximum = 0
Injected packet rate average = 0.0520625
	minimum = 0.038 (at node 10)
	maximum = 0.063 (at node 4)
Accepted packet rate average = 0.051875
	minimum = 0.036 (at node 10)
	maximum = 0.062 (at node 1)
Injected flit rate average = 0.0520625
	minimum = 0.038 (at node 10)
	maximum = 0.063 (at node 4)
Accepted flit rate average= 0.051875
	minimum = 0.036 (at node 10)
	maximum = 0.062 (at node 1)
Injected packet length average = 1
Accepted packet length average = 1
Total in-flight flits = 21 (21 measured)
latency change    = 0.020049
throughput change = 0.0168675
Class 0:
Packet latency average = 19.6524
	minimum = 7
	maximum = 51
Network latency average = 19.6524
	minimum = 7
	maximum = 51
Slowest packet = 40516
Flit latency average = 19.7368
	minimum = 7
	maximum = 51
Slowest flit = 40516
Fragmentation average = 0
	minimum = 0
	maximum = 0
Injected packet rate average = 0.0506875
	minimum = 0.043 (at node 10)
	maximum = 0.056 (at node 4)
Accepted packet rate average = 0.0508125
	minimum = 0.0425 (at node 10)
	maximum = 0.0565 (at node 5)
Injected flit rate average = 0.0506875
	minimum = 0.043 (at node 10)
	maximum = 0.056 (at node 4)
Accepted flit rate average= 0.0508125
	minimum = 0.0425 (at node 10)
	maximum = 0.0565 (at node 5)
Injected packet length average = 1
Accepted packet length average = 1
Total in-flight flits = 14 (14 measured)
latency change    = 0.00449431
throughput change = 0.0209102
Class 0:
Packet latency average = 19.6469
	minimum = 7
	maximum = 51
Network latency average = 19.6469
	minimum = 7
	maximum = 51
Slowest packet = 40516
Flit latency average = 19.7039
	minimum = 7
	maximum = 51
Slowest flit = 40516
Fragmentation average = 0
	minimum = 0
	maximum = 0
Injected packet rate average = 0.05025
	minimum = 0.0436667 (at node 10)
	maximum = 0.0553333 (at node 8)
Accepted packet rate average = 0.0502292
	minimum = 0.0436667 (at node 10)
	maximum = 0.0553333 (at node 2)
Injected flit rate average = 0.05025
	minimum = 0.0436667 (at node 10)
	maximum = 0.0553333 (at node 8)
Accepted flit rate average= 0.0502292
	minimum = 0.0436667 (at node 10)
	maximum = 0.0553333 (at node 2)
Injected packet length average = 1
Accepted packet length average = 1
Total in-flight flits = 19 (19 measured)
latency change    = 0.000278743
throughput change = 0.0116134
Draining all recorded packets ...
Draining remaining packets ...
Time taken is 6062 cycles
Class 0:
Packet latency average = 19.5338
	minimum = 7
	maximum = 44
Network latency average = 19.5338
	minimum = 7
	maximum = 44
Slowest packet = 43104
Flit latency average = 19.5338
	minimum = 7
	maximum = 44
Slowest flit = 43104
Fragmentation average = 0
	minimum = 0
	maximum = 0
Injected packet rate average = 0.0498125
	minimum = 0.037 (at node 10)
	maximum = 0.057 (at node 1)
Accepted packet rate average = 0.0489375
	minimum = 0.037 (at node 10)
	maximum = 0.057 (at node 2)
Injected flit rate average = 0.0498125
	minimum = 0.037 (at node 10)
	maximum = 0.057 (at node 1)
Accepted flit rate average= 0.0489375
	minimum = 0.037 (at node 10)
	maximum = 0.057 (at node 2)
Injected packet length average = 1
Accepted packet length average = 1
Total in-flight flits = 14 (0 measured)
latency change    = 1
throughput change = 1
Class 0:
Packet latency average = 19.2494
	minimum = 7
	maximum = 46
Network latency average = 19.2494
	minimum = 7
	maximum = 46
Slowest packet = 44202
Flit latency average = 19.2494
	minimum = 7
	maximum = 46
Slowest flit = 44202
Fragmentation average = 0
	minimum = 0
	maximum = 0
Injected packet rate average = 0.0499687
	minimum = 0.041 (at node 12)
	maximum = 0.058 (at node 15)
Accepted packet rate average = 0.049375
	minimum = 0.0405 (at node 3)
	maximum = 0.058 (at node 15)
Injected flit rate average = 0.0499687
	minimum = 0.041 (at node 12)
	maximum = 0.058 (at node 15)
Accepted flit rate average= 0.049375
	minimum = 0.0405 (at node 3)
	maximum = 0.058 (at node 15)
Injected packet length average = 1
Accepted packet length average = 1
Total in-flight flits = 19 (0 measured)
latency change    = 0.0147785
throughput change = 0.00886076
Class 0:
Packet latency average = 20.0109
	minimum = 7
	maximum = 43
Network latency average = 20.0109
	minimum = 7
	maximum = 43
Slowest packet = 44874
Flit latency average = 20.0109
	minimum = 7
	maximum = 43
Slowest flit = 44874
Fragmentation average = 0
	minimum = 0
	maximum = 0
Injected packet rate average = 0.0513125
	minimum = 0.042 (at node 15)
	maximum = 0.062 (at node 4)
Accepted packet rate average = 0.051375
	minimum = 0.042 (at node 15)
	maximum = 0.063 (at node 1)
Injected flit rate average = 0.0513125
	minimum = 0.042 (at node 15)
	maximum = 0.062 (at node 4)
Accepted flit rate average= 0.051375
	minimum = 0.042 (at node 15)
	maximum = 0.063 (at node 1)
Injected packet length average = 1
Accepted packet length average = 1
Total in-flight flits = 18 (0 measured)
latency change    = 0.0380583
throughput change = 0.0389294
Warmed up ...Time used is 3000 cycles
Class 0:
Packet latency average = 19.3732
	minimum = 7
	maximum = 44
Network latency average = 19.3732
	minimum = 7
	maximum = 44
Slowest packet = 45304
Flit latency average = 19.5313
	minimum = 7
	maximum = 44
Slowest flit = 45304
Fragmentation average = 0
	minimum = 0
	maximum = 0
Injected packet rate average = 0.0520625
	minimum = 0.043 (at node 12)
	maximum = 0.061 (at node 13)
Accepted packet rate average = 0.051875
	minimum = 0.042 (at node 3)
	maximum = 0.063 (at node 7)
Injected flit rate average = 0.0520625
	minimum = 0.043 (at node 12)
	maximum = 0.061 (at node 13)
Accepted flit rate average= 0.051875
	minimum = 0.042 (at node 3)
	maximum = 0.063 (at node 7)
Injected packet length average = 1
Accepted packet length average = 1
Total in-flight flits = 21 (21 measured)
latency change    = 0.0329217
throughput change = 0.00963855
Class 0:
Packet latency average = 19.6137
	minimum = 7
	maximum = 44
Network latency average = 19.6137
	minimum = 7
	maximum = 44
Slowest packet = 45304
Flit latency average = 19.6935
	minimum = 7
	maximum = 44
Slowest flit = 45304
Fragmentation average = 0
	minimum = 0
	maximum = 0
Injected packet rate average = 0.0497187
	minimum = 0.0435 (at node 7)
	maximum = 0.055 (at node 10)
Accepted packet rate average = 0.04975
	minimum = 0.0435 (at node 13)
	maximum = 0.0555 (at node 7)
Injected flit rate average = 0.0497187
	minimum = 0.0435 (at node 7)
	maximum = 0.055 (at node 10)
Accepted flit rate average= 0.04975
	minimum = 0.0435 (at node 13)
	maximum = 0.0555 (at node 7)
Injected packet length average = 1
Accepted packet length average = 1
Total in-flight flits = 17 (17 measured)
latency change    = 0.0122654
throughput change = 0.0427136
Class 0:
Packet latency average = 19.7203
	minimum = 7
	maximum = 44
Network latency average = 19.7203
	minimum = 7
	maximum = 44
Slowest packet = 45304
Flit latency average = 19.7727
	minimum = 7
	maximum = 44
Slowest flit = 45304
Fragmentation average = 0
	minimum = 0
	maximum = 0
Injected packet rate average = 0.0495833
	minimum = 0.0426667 (at node 8)
	maximum = 0.0563333 (at node 3)
Accepted packet rate average = 0.0496875
	minimum = 0.0436667 (at node 2)
	maximum = 0.0553333 (at node 12)
Injected flit rate average = 0.0495833
	minimum = 0.0426667 (at node 8)
	maximum = 0.0563333 (at node 3)
Accepted flit rate average= 0.0496875
	minimum = 0.0436667 (at node 2)
	maximum = 0.0553333 (at node 12)
Injected packet length average = 1
Accepted packet length average = 1
Total in-flight flits = 13 (13 measured)
latency change    = 0.00540549
throughput change = 0.00125786
Draining all recorded packets ...
Draining remaining packets ...
Time taken is 6062 cycles
Class 0:
Packet latency average = 19.4344
	minimum = 7
	maximum = 44
Network latency average = 19.4344
	minimum = 7
	maximum = 44
Slowest packet = 47714
Flit latency average = 19.4344
	minimum = 7
	maximum = 44
Slowest flit = 47714
Fragmentation average = 0
	minimum = 0
	maximum = 0
Injected packet rate average = 0.04675
	minimum = 0.036 (at node 10)
	maximum = 0.059 (at node 9)
Accepted packet rate average = 0.04575
	minimum = 0.036 (at node 10)
	maximum = 0.058 (at node 4)
Injected flit rate average = 0.04675
	minimum = 0.036 (at node 10)
	maximum = 0.059 (at node 9)
Accepted flit rate average= 0.04575
	minimum = 0.036 (at node 10)
	maximum = 0.058 (at node 4)
Injected packet length average = 1
Accepted packet length average = 1
Total in-flight flits = 16 (0 measured)
latency change    = 1
throughput change = 1
Class 0:
Packet latency average = 19.3293
	minimum = 7
	maximum = 44
Network latency average = 19.3293
	minimum = 7
	maximum = 44
Slowest packet = 47714
Flit latency average = 19.3293
	minimum = 7
	maximum = 44
Slowest flit = 47714
Fragmentation average = 0
	minimum = 0
	maximum = 0
Injected packet rate average = 0.0491875
	minimum = 0.038 (at node 13)
	maximum = 0.0615 (at node 1)
Accepted packet rate average = 0.0487812
	minimum = 0.037 (at node 7)
	maximum = 0.0615 (at node 4)
Injected flit rate average = 0.0491875
	minimum = 0.038 (at node 13)
	maximum = 0.0615 (at node 1)
Accepted flit rate average= 0.0487812
	minimum = 0.037 (at node 7)
	maximum = 0.0615 (at node 4)
Injected packet length average = 1
Accepted packet length average = 1
Total in-flight flits = 13 (0 measured)
latency change    = 0.00543994
throughput change = 0.0621397
Class 0:
Packet latency average = 19.9872
	minimum = 7
	maximum = 47
Network latency average = 19.9872
	minimum = 7
	maximum = 47
Slowest packet = 49828
Flit latency average = 19.9872
	minimum = 7
	maximum = 47
Slowest flit = 49828
Fragmentation average = 0
	minimum = 0
	maximum = 0
Injected packet rate average = 0.0490625
	minimum = 0.039 (at node 9)
	maximum = 0.06 (at node 2)
Accepted packet rate average = 0.048875
	minimum = 0.041 (at node 6)
	maximum = 0.058 (at node 2)
Injected flit rate average = 0.0490625
	minimum = 0.039 (at node 9)
	maximum = 0.06 (at node 2)
Accepted flit rate average= 0.048875
	minimum = 0.041 (at node 6)
	maximum = 0.058 (at node 2)
Injected packet length average = 1
Accepted packet length average = 1
Total in-flight flits = 16 (0 measured)
latency change    = 0.0329179
throughput change = 0.00191816
Warmed up ...Time used is 3000 cycles
Class 0:
Packet latency average = 19.8414
	minimum = 7
	maximum = 45
Network latency average = 19.8414
	minimum = 7
	maximum = 45
Slowest packet = 50259
Flit latency average = 19.9295
	minimum = 7
	maximum = 45
Slowest flit = 50259
Fragmentation average = 0
	minimum = 0
	maximum = 0
Injected packet rate average = 0.05125
	minimum = 0.041 (at node 6)
	maximum = 0.071 (at node 2)
Accepted packet rate average = 0.0514375
	minimum = 0.04 (at node 9)
	maximum = 0.072 (at node 8)
Injected flit rate average = 0.05125
	minimum = 0.041 (at node 6)
	maximum = 0.071 (at node 2)
Accepted flit rate average= 0.0514375
	minimum = 0.04 (at node 9)
	maximum = 0.072 (at node 8)
Injected packet length average = 1
Accepted packet length average = 1
Total in-flight flits = 13 (13 measured)
latency change    = 0.00734951
throughput change = 0.0498177
Class 0:
Packet latency average = 19.8181
	minimum = 7
	maximum = 47
Network latency average = 19.8181
	minimum = 7
	maximum = 47
Slowest packet = 50884
Flit latency average = 19.863
	minimum = 7
	maximum = 47
Slowest flit = 50884
Fragmentation average = 0
	minimum = 0
	maximum = 0
Injected packet rate average = 0.0510313
	minimum = 0.046 (at node 7)
	maximum = 0.059 (at node 2)
Accepted packet rate average = 0.0506562
	minimum = 0.0455 (at node 13)
	maximum = 0.059 (at node 8)
Injected flit rate average = 0.0510313
	minimum = 0.046 (at node 7)
	maximum = 0.059 (at node 2)
Accepted flit rate average= 0.0506562
	minimum = 0.0455 (at node 13)
	maximum = 0.059 (at node 8)
Injected packet length average = 1
Accepted packet length average = 1
Total in-flight flits = 28 (28 measured)
latency change    = 0.00117667
throughput change = 0.0154226
Class 0:
Packet latency average = 19.8534
	minimum = 7
	maximum = 47
Network latency average = 19.853
	minimum = 7
	maximum = 47
Slowest packet = 50884
Flit latency average = 19.8827
	minimum = 7
	maximum = 47
Slowest flit = 50884
Fragmentation average = 0
	minimum = 0
	maximum = 0
Injected packet rate average = 0.050875
	minimum = 0.047 (at node 0)
	maximum = 0.055 (at node 4)
Accepted packet rate average = 0.0507917
	minimum = 0.0473333 (at node 0)
	maximum = 0.055 (at node 1)
Injected flit rate average = 0.050875
	minimum = 0.047 (at node 0)
	maximum = 0.055 (at node 4)
Accepted flit rate average= 0.0507917
	minimum = 0.0473333 (at node 0)
	maximum = 0.055 (at node 1)
Injected packet length average = 1
Accepted packet length average = 1
Total in-flight flits = 20 (20 measured)
latency change    = 0.00178097
throughput change = 0.00266612
Draining all recorded packets ...
Draining remaining packets ...
Time taken is 6067 cycles
Class 0:
Packet latency average = 19.88
	minimum = 7
	maximum = 45
Network latency average = 19.88
	minimum = 7
	maximum = 45
Slowest packet = 53093
Flit latency average = 19.88
	minimum = 7
	maximum = 45
Slowest flit = 53093
Fragmentation average = 0
	minimum = 0
	maximum = 0
Injected packet rate average = 0.0520625
	minimum = 0.034 (at node 5)
	maximum = 0.065 (at node 1)
Accepted packet rate average = 0.0505
	minimum = 0.034 (at node 5)
	maximum = 0.062 (at node 6)
Injected flit rate average = 0.0520625
	minimum = 0.034 (at node 5)
	maximum = 0.065 (at node 1)
Accepted flit rate average= 0.0505
	minimum = 0.034 (at node 5)
	maximum = 0.062 (at node 6)
Injected packet length average = 1
Accepted packet length average = 1
Total in-flight flits = 25 (0 measured)
latency change    = 1
throughput change = 1
Class 0:
Packet latency average = 19.8461
	minimum = 7
	maximum = 46
Network latency average = 19.8461
	minimum = 7
	maximum = 46
Slowest packet = 53832
Flit latency average = 19.8461
	minimum = 7
	maximum = 46
Slowest flit = 53832
Fragmentation average = 0
	minimum = 0
	maximum = 0
Injected packet rate average = 0.051
	minimum = 0.04 (at node 5)
	maximum = 0.058 (at node 8)
Accepted packet rate average = 0.0505625
	minimum = 0.04 (at node 5)
	maximum = 0.0575 (at node 6)
Injected flit rate average = 0.051
	minimum = 0.04 (at node 5)
	maximum = 0.058 (at node 8)
Accepted flit rate average= 0.0505625
	minimum = 0.04 (at node 5)
	maximum = 0.0575 (at node 6)
Injected packet length average = 1
Accepted packet length average = 1
Total in-flight flits = 14 (0 measured)
latency change    = 0.00170533
throughput change = 0.00123609
Class 0:
Packet latency average = 19.565
	minimum = 7
	maximum = 46
Network latency average = 19.565
	minimum = 7
	maximum = 46
Slowest packet = 54031
Flit latency average = 19.565
	minimum = 7
	maximum = 46
Slowest flit = 54031
Fragmentation average = 0
	minimum = 0
	maximum = 0
Injected packet rate average = 0.050125
	minimum = 0.04 (at node 13)
	maximum = 0.063 (at node 8)
Accepted packet rate average = 0.05
	minimum = 0.039 (at node 7)
	maximum = 0.065 (at node 2)
Injected flit rate average = 0.050125
	minimum = 0.04 (at node 13)
	maximum = 0.063 (at node 8)
Accepted flit rate average= 0.05
	minimum = 0.039 (at node 7)
	maximum = 0.065 (at node 2)
Injected packet length average = 1
Accepted packet length average = 1
Total in-flight flits = 16 (0 measured)
latency change    = 0.0143678
throughput change = 0.01125
Warmed up ...Time used is 3000 cycles
Class 0:
Packet latency average = 19.3618
	minimum = 7
	maximum = 43
Network latency average = 19.3618
	minimum = 7
	maximum = 43
Slowest packet = 55239
Flit latency average = 19.4644
	minimum = 7
	maximum = 43
Slowest flit = 55239
Fragmentation average = 0
	minimum = 0
	maximum = 0
Injected packet rate average = 0.0501875
	minimum = 0.034 (at node 8)
	maximum = 0.067 (at node 4)
Accepted packet rate average = 0.0500625
	minimum = 0.034 (at node 2)
	maximum = 0.067 (at node 1)
Injected flit rate average = 0.0501875
	minimum = 0.034 (at node 8)
	maximum = 0.067 (at node 4)
Accepted flit rate average= 0.0500625
	minimum = 0.034 (at node 2)
	maximum = 0.067 (at node 1)
Injected packet length average = 1
Accepted packet length average = 1
Total in-flight flits = 18 (18 measured)
latency change    = 0.0104958
throughput change = 0.00124844
Class 0:
Packet latency average = 19.6474
	minimum = 7
	maximum = 48
Network latency average = 19.6474
	minimum = 7
	maximum = 48
Slowest packet = 56005
Flit latency average = 19.6962
	minimum = 7
	maximum = 48
Slowest flit = 56005
Fragmentation average = 0
	minimum = 0
	maximum = 0
Injected packet rate average = 0.0498437
	minimum = 0.034 (at node 8)
	maximum = 0.065 (at node 4)
Accepted packet rate average = 0.0497812
	minimum = 0.034 (at node 2)
	maximum = 0.0645 (at node 1)
Injected flit rate average = 0.0498437
	minimum = 0.034 (at node 8)
	maximum = 0.065 (at node 4)
Accepted flit rate average= 0.0497812
	minimum = 0.034 (at node 2)
	maximum = 0.0645 (at node 1)
Injected packet length average = 1
Accepted packet length average = 1
Total in-flight flits = 18 (18 measured)
latency change    = 0.0145387
throughput change = 0.00564972
Class 0:
Packet latency average = 19.4648
	minimum = 7
	maximum = 48
Network latency average = 19.4648
	minimum = 7
	maximum = 48
Slowest packet = 56005
Flit latency average = 19.4985
	minimum = 7
	maximum = 48
Slowest flit = 56005
Fragmentation average = 0
	minimum = 0
	maximum = 0
Injected packet rate average = 0.0496667
	minimum = 0.0386667 (at node 13)
	maximum = 0.0603333 (at node 4)
Accepted packet rate average = 0.0497292
	minimum = 0.039 (at node 7)
	maximum = 0.061 (at node 1)
Injected flit rate average = 0.0496667
	minimum = 0.0386667 (at node 13)
	maximum = 0.0603333 (at node 4)
Accepted flit rate average= 0.0497292
	minimum = 0.039 (at node 7)
	maximum = 0.061 (at node 1)
Injected packet length average = 1
Accepted packet length average = 1
Total in-flight flits = 13 (13 measured)
latency change    = 0.00938356
throughput change = 0.00104734
Draining all recorded packets ...
Draining remaining packets ...
Time taken is 6073 cycles
Class 0:
Packet latency average = 19.9086
	minimum = 7
	maximum = 47
Network latency average = 19.9086
	minimum = 7
	maximum = 47
Slowest packet = 57721
Flit latency average = 19.9086
	minimum = 7
	maximum = 47
Slowest flit = 57721
Fragmentation average = 0
	minimum = 0
	maximum = 0
Injected packet rate average = 0.0515
	minimum = 0.039 (at node 1)
	maximum = 0.068 (at node 3)
Accepted packet rate average = 0.050625
	minimum = 0.038 (at node 11)
	maximum = 0.066 (at node 12)
Injected flit rate average = 0.0515
	minimum = 0.039 (at node 1)
	maximum = 0.068 (at node 3)
Accepted flit rate average= 0.050625
	minimum = 0.038 (at node 11)
	maximum = 0.066 (at node 12)
Injected packet length average = 1
Accepted packet length average = 1
Total in-flight flits = 14 (0 measured)
latency change    = 1
throughput change = 1
Class 0:
Packet latency average = 19.5444
	minimum = 7
	maximum = 49
Network latency average = 19.5444
	minimum = 7
	maximum = 49
Slowest packet = 58304
Flit latency average = 19.5444
	minimum = 7
	maximum = 49
Slowest flit = 58304
Fragmentation average = 0
	minimum = 0
	maximum = 0
Injected packet rate average = 0.05
	minimum = 0.042 (at node 1)
	maximum = 0.0645 (at node 15)
Accepted packet rate average = 0.0493125
	minimum = 0.042 (at node 4)
	maximum = 0.0635 (at node 15)
Injected flit rate average = 0.05
	minimum = 0.042 (at node 1)
	maximum = 0.0645 (at node 15)
Accepted flit rate average= 0.0493125
	minimum = 0.042 (at node 4)
	maximum = 0.0635 (at node 15)
Injected packet length average = 1
Accepted packet length average = 1
Total in-flight flits = 22 (0 measured)
latency change    = 0.0186387
throughput change = 0.026616
Class 0:
Packet latency average = 19.4203
	minimum = 7
	maximum = 43
Network latency average = 19.4203
	minimum = 7
	maximum = 43
Slowest packet = 59519
Flit latency average = 19.4203
	minimum = 7
	maximum = 43
Slowest flit = 59519
Fragmentation average = 0
	minimum = 0
	maximum = 0
Injected packet rate average = 0.0504375
	minimum = 0.036 (at node 6)
	maximum = 0.06 (at node 11)
Accepted packet rate average = 0.0505625
	minimum = 0.037 (at node 1)
	maximum = 0.061 (at node 14)
Injected flit rate average = 0.0504375
	minimum = 0.036 (at node 6)
	maximum = 0.06 (at node 11)
Accepted flit rate average= 0.0505625
	minimum = 0.037 (at node 1)
	maximum = 0.061 (at node 14)
Injected packet length average = 1
Accepted packet length average = 1
Total in-flight flits = 20 (0 measured)
latency change    = 0.00638961
throughput change = 0.0247219
Warmed up ...Time used is 3000 cycles
Class 0:
Packet latency average = 20.5335
	minimum = 7
	maximum = 50
Network latency average = 20.5335
	minimum = 7
	maximum = 50
Slowest packet = 59635
Flit latency average = 20.7717
	minimum = 7
	maximum = 50
Slowest flit = 59635
Fragmentation average = 0
	minimum = 0
	maximum = 0
Injected packet rate average = 0.0524375
	minimum = 0.035 (at node 2)
	maximum = 0.07 (at node 12)
Accepted packet rate average = 0.0525625
	minimum = 0.038 (at node 8)
	maximum = 0.071 (at node 12)
Injected flit rate average = 0.0524375
	minimum = 0.035 (at node 2)
	maximum = 0.07 (at node 12)
Accepted flit rate average= 0.0525625
	minimum = 0.038 (at node 8)
	maximum = 0.071 (at node 12)
Injected packet length average = 1
Accepted packet length average = 1
Total in-flight flits = 18 (18 measured)
latency change    = 0.054215
throughput change = 0.0380499
Class 0:
Packet latency average = 19.9736
	minimum = 7
	maximum = 50
Network latency average = 19.9736
	minimum = 7
	maximum = 50
Slowest packet = 59635
Flit latency average = 20.1019
	minimum = 7
	maximum = 50
Slowest flit = 59635
Fragmentation average = 0
	minimum = 0
	maximum = 0
Injected packet rate average = 0.051375
	minimum = 0.0425 (at node 2)
	maximum = 0.0605 (at node 12)
Accepted packet rate average = 0.0515313
	minimum = 0.0425 (at node 10)
	maximum = 0.06 (at node 3)
Injected flit rate average = 0.051375
	minimum = 0.0425 (at node 2)
	maximum = 0.0605 (at node 12)
Accepted flit rate average= 0.0515313
	minimum = 0.0425 (at node 10)
	maximum = 0.06 (at node 3)
Injected packet length average = 1
Accepted packet length average = 1
Total in-flight flits = 15 (15 measured)
latency change    = 0.0280316
throughput change = 0.0200121
Class 0:
Packet latency average = 19.8556
	minimum = 7
	maximum = 50
Network latency average = 19.8556
	minimum = 7
	maximum = 50
Slowest packet = 59635
Flit latency average = 19.9426
	minimum = 7
	maximum = 50
Slowest flit = 59635
Fragmentation average = 0
	minimum = 0
	maximum = 0
Injected packet rate average = 0.0511042
	minimum = 0.044 (at node 15)
	maximum = 0.0566667 (at node 0)
Accepted packet rate average = 0.0512083
	minimum = 0.044 (at node 15)
	maximum = 0.0573333 (at node 9)
Injected flit rate average = 0.0511042
	minimum = 0.044 (at node 15)
	maximum = 0.0566667 (at node 0)
Accepted flit rate average= 0.0512083
	minimum = 0.044 (at node 15)
	maximum = 0.0573333 (at node 9)
Injected packet length average = 1
Accepted packet length average = 1
Total in-flight flits = 15 (15 measured)
latency change    = 0.0059421
throughput change = 0.00630594
Class 0:
Packet latency average = 19.8376
	minimum = 7
	maximum = 50
Network latency average = 19.8376
	minimum = 7
	maximum = 50
Slowest packet = 59635
Flit latency average = 19.903
	minimum = 7
	maximum = 50
Slowest flit = 59635
Fragmentation average = 0
	minimum = 0
	maximum = 0
Injected packet rate average = 0.0511406
	minimum = 0.04475 (at node 15)
	maximum = 0.056 (at node 0)
Accepted packet rate average = 0.0512188
	minimum = 0.04475 (at node 15)
	maximum = 0.056 (at node 0)
Injected flit rate average = 0.0511406
	minimum = 0.04475 (at node 15)
	maximum = 0.056 (at node 0)
Accepted flit rate average= 0.0512188
	minimum = 0.04475 (at node 15)
	maximum = 0.056 (at node 0)
Injected packet length average = 1
Accepted packet length average = 1
Total in-flight flits = 15 (15 measured)
latency change    = 0.000906807
throughput change = 0.000203376
Draining all recorded packets ...
Draining remaining packets ...
Time taken is 7061 cycles
Class 0:
Packet latency average = 19.7128
	minimum = 7
	maximum = 43
Network latency average = 19.7128
	minimum = 7
	maximum = 43
Slowest packet = 63576
Flit latency average = 19.7128
	minimum = 7
	maximum = 43
Slowest flit = 63576
Fragmentation average = 0
	minimum = 0
	maximum = 0
Injected packet rate average = 0.0475625
	minimum = 0.04 (at node 7)
	maximum = 0.064 (at node 12)
Accepted packet rate average = 0.0465625
	minimum = 0.039 (at node 7)
	maximum = 0.062 (at node 3)
Injected flit rate average = 0.0475625
	minimum = 0.04 (at node 7)
	maximum = 0.064 (at node 12)
Accepted flit rate average= 0.0465625
	minimum = 0.039 (at node 7)
	maximum = 0.062 (at node 3)
Injected packet length average = 1
Accepted packet length average = 1
Total in-flight flits = 16 (0 measured)
latency change    = 1
throughput change = 1
Class 0:
Packet latency average = 20.1073
	minimum = 7
	maximum = 62
Network latency average = 20.1027
	minimum = 7
	maximum = 62
Slowest packet = 64091
Flit latency average = 20.1027
	minimum = 7
	maximum = 62
Slowest flit = 64091
Fragmentation average = 0
	minimum = 0
	maximum = 0
Injected packet rate average = 0.0482187
	minimum = 0.0385 (at node 4)
	maximum = 0.061 (at node 12)
Accepted packet rate average = 0.0477812
	minimum = 0.0385 (at node 1)
	maximum = 0.061 (at node 3)
Injected flit rate average = 0.0482187
	minimum = 0.0385 (at node 4)
	maximum = 0.061 (at node 12)
Accepted flit rate average= 0.0477812
	minimum = 0.0385 (at node 1)
	maximum = 0.061 (at node 3)
Injected packet length average = 1
Accepted packet length average = 1
Total in-flight flits = 14 (0 measured)
latency change    = 0.0196202
throughput change = 0.0255069
Class 0:
Packet latency average = 20.0784
	minimum = 7
	maximum = 44
Network latency average = 20.0784
	minimum = 7
	maximum = 44
Slowest packet = 64723
Flit latency average = 20.0784
	minimum = 7
	maximum = 44
Slowest flit = 64723
Fragmentation average = 0
	minimum = 0
	maximum = 0
Injected packet rate average = 0.0511875
	minimum = 0.037 (at node 5)
	maximum = 0.065 (at node 12)
Accepted packet rate average = 0.051
	minimum = 0.038 (at node 5)
	maximum = 0.064 (at node 3)
Injected flit rate average = 0.0511875
	minimum = 0.037 (at node 5)
	maximum = 0.065 (at node 12)
Accepted flit rate average= 0.051
	minimum = 0.038 (at node 5)
	maximum = 0.064 (at node 3)
Injected packet length average = 1
Accepted packet length average = 1
Total in-flight flits = 17 (0 measured)
latency change    = 0.00143578
throughput change = 0.0631127
Warmed up ...Time used is 3000 cycles
Class 0:
Packet latency average = 19.4476
	minimum = 7
	maximum = 43
Network latency average = 19.4476
	minimum = 7
	maximum = 43
Slowest packet = 65402
Flit latency average = 19.5193
	minimum = 7
	maximum = 43
Slowest flit = 65402
Fragmentation average = 0
	minimum = 0
	maximum = 0
Injected packet rate average = 0.05175
	minimum = 0.037 (at node 10)
	maximum = 0.061 (at node 5)
Accepted packet rate average = 0.05175
	minimum = 0.038 (at node 10)
	maximum = 0.061 (at node 4)
Injected flit rate average = 0.05175
	minimum = 0.037 (at node 10)
	maximum = 0.061 (at node 5)
Accepted flit rate average= 0.05175
	minimum = 0.038 (at node 10)
	maximum = 0.061 (at node 4)
Injected packet length average = 1
Accepted packet length average = 1
Total in-flight flits = 17 (17 measured)
latency change    = 0.0324377
throughput change = 0.0144928
Class 0:
Packet latency average = 19.6057
	minimum = 7
	maximum = 53
Network latency average = 19.6057
	minimum = 7
	maximum = 53
Slowest packet = 66546
Flit latency average = 19.6405
	minimum = 7
	maximum = 53
Slowest flit = 66546
Fragmentation average = 0
	minimum = 0
	maximum = 0
Injected packet rate average = 0.0509688
	minimum = 0.0435 (at node 7)
	maximum = 0.057 (at node 6)
Accepted packet rate average = 0.0509375
	minimum = 0.044 (at node 13)
	maximum = 0.057 (at node 4)
Injected flit rate average = 0.0509688
	minimum = 0.0435 (at node 7)
	maximum = 0.057 (at node 6)
Accepted flit rate average= 0.0509375
	minimum = 0.044 (at node 13)
	maximum = 0.057 (at node 4)
Injected packet length average = 1
Accepted packet length average = 1
Total in-flight flits = 18 (18 measured)
latency change    = 0.00806439
throughput change = 0.0159509
Class 0:
Packet latency average = 19.7022
	minimum = 7
	maximum = 53
Network latency average = 19.7022
	minimum = 7
	maximum = 53
Slowest packet = 66546
Flit latency average = 19.7246
	minimum = 7
	maximum = 53
Slowest flit = 66546
Fragmentation average = 0
	minimum = 0
	maximum = 0
Injected packet rate average = 0.051125
	minimum = 0.047 (at node 0)
	maximum = 0.0576667 (at node 2)
Accepted packet rate average = 0.0512083
	minimum = 0.0466667 (at node 0)
	maximum = 0.0576667 (at node 8)
Injected flit rate average = 0.051125
	minimum = 0.047 (at node 0)
	maximum = 0.0576667 (at node 2)
Accepted flit rate average= 0.0512083
	minimum = 0.0466667 (at node 0)
	maximum = 0.0576667 (at node 8)
Injected packet length average = 1
Accepted packet length average = 1
Total in-flight flits = 13 (13 measured)
latency change    = 0.00489629
throughput change = 0.00528885
Draining all recorded packets ...
Draining remaining packets ...
Time taken is 6054 cycles
Class 0:
Packet latency average = 18.9472
	minimum = 7
	maximum = 43
Network latency average = 18.9472
	minimum = 7
	maximum = 43
Slowest packet = 68493
Flit latency average = 18.9472
	minimum = 7
	maximum = 43
Slowest flit = 68493
Fragmentation average = 0
	minimum = 0
	maximum = 0
Injected packet rate average = 0.0529375
	minimum = 0.04 (at node 4)
	maximum = 0.071 (at node 5)
Accepted packet rate average = 0.052125
	minimum = 0.039 (at node 1)
	maximum = 0.071 (at node 5)
Injected flit rate average = 0.0529375
	minimum = 0.04 (at node 4)
	maximum = 0.071 (at node 5)
Accepted flit rate average= 0.052125
	minimum = 0.039 (at node 1)
	maximum = 0.071 (at node 5)
Injected packet length average = 1
Accepted packet length average = 1
Total in-flight flits = 13 (0 measured)
latency change    = 1
throughput change = 1
Class 0:
Packet latency average = 19.4302
	minimum = 7
	maximum = 43
Network latency average = 19.4302
	minimum = 7
	maximum = 43
Slowest packet = 68493
Flit latency average = 19.4302
	minimum = 7
	maximum = 43
Slowest flit = 68493
Fragmentation average = 0
	minimum = 0
	maximum = 0
Injected packet rate average = 0.0510938
	minimum = 0.043 (at node 9)
	maximum = 0.059 (at node 5)
Accepted packet rate average = 0.050625
	minimum = 0.0425 (at node 6)
	maximum = 0.059 (at node 5)
Injected flit rate average = 0.0510938
	minimum = 0.043 (at node 9)
	maximum = 0.059 (at node 5)
Accepted flit rate average= 0.050625
	minimum = 0.0425 (at node 6)
	maximum = 0.059 (at node 5)
Injected packet length average = 1
Accepted packet length average = 1
Total in-flight flits = 15 (0 measured)
latency change    = 0.0248584
throughput change = 0.0296296
Class 0:
Packet latency average = 19.166
	minimum = 7
	maximum = 43
Network latency average = 19.166
	minimum = 7
	maximum = 43
Slowest packet = 69627
Flit latency average = 19.166
	minimum = 7
	maximum = 43
Slowest flit = 69627
Fragmentation average = 0
	minimum = 0
	maximum = 0
Injected packet rate average = 0.04925
	minimum = 0.036 (at node 2)
	maximum = 0.059 (at node 10)
Accepted packet rate average = 0.0493125
	minimum = 0.036 (at node 8)
	maximum = 0.059 (at node 10)
Injected flit rate average = 0.04925
	minimum = 0.036 (at node 2)
	maximum = 0.059 (at node 10)
Accepted flit rate average= 0.0493125
	minimum = 0.036 (at node 8)
	maximum = 0.059 (at node 10)
Injected packet length average = 1
Accepted packet length average = 1
Total in-flight flits = 14 (0 measured)
latency change    = 0.0137855
throughput change = 0.026616
Warmed up ...Time used is 3000 cycles
Class 0:
Packet latency average = 19.7075
	minimum = 7
	maximum = 47
Network latency average = 19.7075
	minimum = 7
	maximum = 47
Slowest packet = 70220
Flit latency average = 19.7228
	minimum = 7
	maximum = 47
Slowest flit = 70220
Fragmentation average = 0
	minimum = 0
	maximum = 0
Injected packet rate average = 0.04925
	minimum = 0.038 (at node 7)
	maximum = 0.065 (at node 1)
Accepted packet rate average = 0.049375
	minimum = 0.039 (at node 6)
	maximum = 0.065 (at node 4)
Injected flit rate average = 0.04925
	minimum = 0.038 (at node 7)
	maximum = 0.065 (at node 1)
Accepted flit rate average= 0.049375
	minimum = 0.039 (at node 6)
	maximum = 0.065 (at node 4)
Injected packet length average = 1
Accepted packet length average = 1
Total in-flight flits = 12 (12 measured)
latency change    = 0.0274739
throughput change = 0.00126582
Class 0:
Packet latency average = 19.8621
	minimum = 7
	maximum = 47
Network latency average = 19.8621
	minimum = 7
	maximum = 47
Slowest packet = 70220
Flit latency average = 19.8683
	minimum = 7
	maximum = 47
Slowest flit = 70220
Fragmentation average = 0
	minimum = 0
	maximum = 0
Injected packet rate average = 0.0500625
	minimum = 0.043 (at node 0)
	maximum = 0.0585 (at node 1)
Accepted packet rate average = 0.0500625
	minimum = 0.0415 (at node 6)
	maximum = 0.059 (at node 4)
Injected flit rate average = 0.0500625
	minimum = 0.043 (at node 0)
	maximum = 0.0585 (at node 1)
Accepted flit rate average= 0.0500625
	minimum = 0.0415 (at node 6)
	maximum = 0.059 (at node 4)
Injected packet length average = 1
Accepted packet length average = 1
Total in-flight flits = 14 (14 measured)
latency change    = 0.0077845
throughput change = 0.0137328
Class 0:
Packet latency average = 19.794
	minimum = 7
	maximum = 47
Network latency average = 19.794
	minimum = 7
	maximum = 47
Slowest packet = 70220
Flit latency average = 19.7986
	minimum = 7
	maximum = 47
Slowest flit = 70220
Fragmentation average = 0
	minimum = 0
	maximum = 0
Injected packet rate average = 0.0499583
	minimum = 0.0433333 (at node 0)
	maximum = 0.057 (at node 1)
Accepted packet rate average = 0.0499583
	minimum = 0.0433333 (at node 0)
	maximum = 0.0566667 (at node 4)
Injected flit rate average = 0.0499583
	minimum = 0.0433333 (at node 0)
	maximum = 0.057 (at node 1)
Accepted flit rate average= 0.0499583
	minimum = 0.0433333 (at node 0)
	maximum = 0.0566667 (at node 4)
Injected packet length average = 1
Accepted packet length average = 1
Total in-flight flits = 14 (14 measured)
latency change    = 0.00343775
throughput change = 0.00208507
Draining all recorded packets ...
Draining remaining packets ...
Time taken is 6068 cycles
Class 0:
Packet latency average = 19.2869
	minimum = 7
	maximum = 46
Network latency average = 19.2869
	minimum = 7
	maximum = 46
Slowest packet = 72693
Flit latency average = 19.2869
	minimum = 7
	maximum = 46
Slowest flit = 72693
Fragmentation average = 0
	minimum = 0
	maximum = 0
Injected packet rate average = 0.047125
	minimum = 0.037 (at node 14)
	maximum = 0.055 (at node 1)
Accepted packet rate average = 0.0461875
	minimum = 0.036 (at node 11)
	maximum = 0.053 (at node 4)
Injected flit rate average = 0.047125
	minimum = 0.037 (at node 14)
	maximum = 0.055 (at node 1)
Accepted flit rate average= 0.0461875
	minimum = 0.036 (at node 11)
	maximum = 0.053 (at node 4)
Injected packet length average = 1
Accepted packet length average = 1
Total in-flight flits = 15 (0 measured)
latency change    = 1
throughput change = 1
Class 0:
Packet latency average = 19.5609
	minimum = 7
	maximum = 46
Network latency average = 19.5609
	minimum = 7
	maximum = 46
Slowest packet = 72693
Flit latency average = 19.5609
	minimum = 7
	maximum = 46
Slowest flit = 72693
Fragmentation average = 0
	minimum = 0
	maximum = 0
Injected packet rate average = 0.0494375
	minimum = 0.0425 (at node 8)
	maximum = 0.055 (at node 12)
Accepted packet rate average = 0.0489687
	minimum = 0.041 (at node 2)
	maximum = 0.0535 (at node 3)
[...]
	minimum = 0.036 (at node 5)
	maximum = 0.061 (at node 11)
Accepted packet rate average = 0.0478125
	minimum = 0.038 (at node 5)
	maximum = 0.063 (at node 14)
Injected flit rate average = 0.0479375
	minimum = 0.036 (at node 5)
	maximum = 0.061 (at node 11)
Accepted flit rate average= 0.0478125
	minimum = 0.038 (at node 5)
	maximum = 0.063 (at node 14)
Injected packet length average = 1
Accepted packet length average = 1
Total in-flight flits = 22 (22 measured)
latency change    = 0.00824446
throughput change = 0.0352941
Class 0:
Packet latency average = 19.6737
	minimum = 7
	maximum = 44
Network latency average = 19.6737
	minimum = 7
	maximum = 44
Slowest packet = 499808
Flit latency average = 19.7043
	minimum = 7
	maximum = 44
Slowest flit = 499808
Fragmentation average = 0
	minimum = 0
	maximum = 0
Injected packet rate average = 0.0493125
	minimum = 0.041 (at node 13)
	maximum = 0.0565 (at node 4)
Accepted packet rate average = 0.0495625
	minimum = 0.041 (at node 7)
	maximum = 0.056 (at node 1)
Injected flit rate average = 0.0493125
	minimum = 0.041 (at node 13)
	maximum = 0.0565 (at node 4)
Accepted flit rate average= 0.0495625
	minimum = 0.041 (at node 7)
	maximum = 0.056 (at node 1)
Injected packet length average = 1
Accepted packet length average = 1
Total in-flight flits = 12 (12 measured)
latency change    = 0.00225834
throughput change = 0.035309
Class 0:
Packet latency average = 19.8087
	minimum = 7
	maximum = 58
Network latency average = 19.8087
	minimum = 7
	maximum = 58
Slowest packet = 500748
Flit latency average = 19.8277
	minimum = 7
	maximum = 58
Slowest flit = 500748
Fragmentation average = 0
	minimum = 0
	maximum = 0
Injected packet rate average = 0.0499583
	minimum = 0.0423333 (at node 13)
	maximum = 0.0563333 (at node 1)
Accepted packet rate average = 0.0501875
	minimum = 0.043 (at node 7)
	maximum = 0.056 (at node 4)
Injected flit rate average = 0.0499583
	minimum = 0.0423333 (at node 13)
	maximum = 0.0563333 (at node 1)
Accepted flit rate average= 0.0501875
	minimum = 0.043 (at node 7)
	maximum = 0.056 (at node 4)
Injected packet length average = 1
Accepted packet length average = 1
Total in-flight flits = 9 (9 measured)
latency change    = 0.00681597
throughput change = 0.0124533
Draining all recorded packets ...
Draining remaining packets ...
Time taken is 6070 cycles
Class 0:
Packet latency average = 19.5227
	minimum = 7
	maximum = 43
Network latency average = 19.5227
	minimum = 7
	maximum = 43
Slowest packet = 501048
Flit latency average = 19.5227
	minimum = 7
	maximum = 43
Slowest flit = 501048
Fragmentation average = 0
	minimum = 0
	maximum = 0
Injected packet rate average = 0.0478125
	minimum = 0.041 (at node 1)
	maximum = 0.055 (at node 14)
Accepted packet rate average = 0.046875
	minimum = 0.04 (at node 4)
	maximum = 0.055 (at node 11)
Injected flit rate average = 0.0478125
	minimum = 0.041 (at node 1)
	maximum = 0.055 (at node 14)
Accepted flit rate average= 0.046875
	minimum = 0.04 (at node 4)
	maximum = 0.055 (at node 11)
Injected packet length average = 1
Accepted packet length average = 1
Total in-flight flits = 15 (0 measured)
latency change    = 1
throughput change = 1
Class 0:
Packet latency average = 19.3582
	minimum = 7
	maximum = 43
Network latency average = 19.3576
	minimum = 7
	maximum = 43
Slowest packet = 501048
Flit latency average = 19.3576
	minimum = 7
	maximum = 43
Slowest flit = 501048
Fragmentation average = 0
	minimum = 0
	maximum = 0
Injected packet rate average = 0.0492187
	minimum = 0.042 (at node 7)
	maximum = 0.0565 (at node 0)
Accepted packet rate average = 0.0485937
	minimum = 0.0405 (at node 13)
	maximum = 0.056 (at node 0)
Injected flit rate average = 0.0492187
	minimum = 0.042 (at node 7)
	maximum = 0.0565 (at node 0)
Accepted flit rate average= 0.0485937
	minimum = 0.0405 (at node 13)
	maximum = 0.056 (at node 0)
Injected packet length average = 1
Accepted packet length average = 1
Total in-flight flits = 20 (0 measured)
latency change    = 0.008496
throughput change = 0.0353698
Class 0:
Packet latency average = 20.2296
	minimum = 7
	maximum = 53
Network latency average = 20.2296
	minimum = 7
	maximum = 53
Slowest packet = 503142
Flit latency average = 20.2296
	minimum = 7
	maximum = 53
Slowest flit = 503142
Fragmentation average = 0
	minimum = 0
	maximum = 0
Injected packet rate average = 0.0475
	minimum = 0.037 (at node 13)
	maximum = 0.06 (at node 1)
Accepted packet rate average = 0.0481875
	minimum = 0.039 (at node 7)
	maximum = 0.062 (at node 4)
Injected flit rate average = 0.0475
	minimum = 0.037 (at node 13)
	maximum = 0.06 (at node 1)
Accepted flit rate average= 0.0481875
	minimum = 0.039 (at node 7)
	maximum = 0.062 (at node 4)
Injected packet length average = 1
Accepted packet length average = 1
Total in-flight flits = 9 (0 measured)
latency change    = 0.0430742
throughput change = 0.00843061
Warmed up ...Time used is 3000 cycles
Class 0:
Packet latency average = 20.282
	minimum = 7
	maximum = 44
Network latency average = 20.282
	minimum = 7
	maximum = 44
Slowest packet = 503892
Flit latency average = 20.3213
	minimum = 7
	maximum = 44
Slowest flit = 503892
Fragmentation average = 0
	minimum = 0
	maximum = 0
Injected packet rate average = 0.049
	minimum = 0.037 (at node 7)
	maximum = 0.067 (at node 3)
Accepted packet rate average = 0.0484375
	minimum = 0.037 (at node 13)
	maximum = 0.067 (at node 12)
Injected flit rate average = 0.049
	minimum = 0.037 (at node 7)
	maximum = 0.067 (at node 3)
Accepted flit rate average= 0.0484375
	minimum = 0.037 (at node 13)
	maximum = 0.067 (at node 12)
Injected packet length average = 1
Accepted packet length average = 1
Total in-flight flits = 18 (18 measured)
latency change    = 0.00258418
throughput change = 0.00516129
Class 0:
Packet latency average = 19.5567
	minimum = 7
	maximum = 44
Network latency average = 19.5567
	minimum = 7
	maximum = 44
Slowest packet = 503892
Flit latency average = 19.5805
	minimum = 7
	maximum = 44
Slowest flit = 503892
Fragmentation average = 0
	minimum = 0
	maximum = 0
Injected packet rate average = 0.0486562
	minimum = 0.0365 (at node 7)
	maximum = 0.0575 (at node 15)
Accepted packet rate average = 0.0485
	minimum = 0.0355 (at node 13)
	maximum = 0.0575 (at node 15)
Injected flit rate average = 0.0486562
	minimum = 0.0365 (at node 7)
	maximum = 0.0575 (at node 15)
Accepted flit rate average= 0.0485
	minimum = 0.0355 (at node 13)
	maximum = 0.0575 (at node 15)
Injected packet length average = 1
Accepted packet length average = 1
Total in-flight flits = 14 (14 measured)
latency change    = 0.0370858
throughput change = 0.00128866
Class 0:
Packet latency average = 19.4957
	minimum = 7
	maximum = 44
Network latency average = 19.4957
	minimum = 7
	maximum = 44
Slowest packet = 503892
Flit latency average = 19.5117
	minimum = 7
	maximum = 44
Slowest flit = 503892
Fragmentation average = 0
	minimum = 0
	maximum = 0
Injected packet rate average = 0.0491458
	minimum = 0.0416667 (at node 6)
	maximum = 0.0556667 (at node 15)
Accepted packet rate average = 0.0488125
	minimum = 0.042 (at node 9)
	maximum = 0.0546667 (at node 15)
Injected flit rate average = 0.0491458
	minimum = 0.0416667 (at node 6)
	maximum = 0.0556667 (at node 15)
Accepted flit rate average= 0.0488125
	minimum = 0.042 (at node 9)
	maximum = 0.0546667 (at node 15)
Injected packet length average = 1
Accepted packet length average = 1
Total in-flight flits = 25 (25 measured)
latency change    = 0.00312849
throughput change = 0.00640205
Draining all recorded packets ...
Draining remaining packets ...
Time taken is 6073 cycles
Class 0:
Packet latency average = 19.0123
	minimum = 7
	maximum = 42
Network latency average = 19.0123
	minimum = 7
	maximum = 42
Slowest packet = 506327
Flit latency average = 19.0123
	minimum = 7
	maximum = 42
Slowest flit = 506327
Fragmentation average = 0
	minimum = 0
	maximum = 0
Injected packet rate average = 0.0515
	minimum = 0.041 (at node 3)
	maximum = 0.063 (at node 5)
Accepted packet rate average = 0.0508125
	minimum = 0.038 (at node 12)
	maximum = 0.063 (at node 5)
Injected flit rate average = 0.0515
	minimum = 0.041 (at node 3)
	maximum = 0.063 (at node 5)
Accepted flit rate average= 0.0508125
	minimum = 0.038 (at node 12)
	maximum = 0.063 (at node 5)
Injected packet length average = 1
Accepted packet length average = 1
Total in-flight flits = 11 (0 measured)
latency change    = 1
throughput change = 1
Class 0:
Packet latency average = 19.2068
	minimum = 7
	maximum = 42
Network latency average = 19.2068
	minimum = 7
	maximum = 42
Slowest packet = 506327
Flit latency average = 19.2068
	minimum = 7
	maximum = 42
Slowest flit = 506327
Fragmentation average = 0
	minimum = 0
	maximum = 0
Injected packet rate average = 0.0511563
	minimum = 0.042 (at node 13)
	maximum = 0.0625 (at node 5)
Accepted packet rate average = 0.050625
	minimum = 0.0405 (at node 7)
	maximum = 0.0625 (at node 5)
Injected flit rate average = 0.0511563
	minimum = 0.042 (at node 13)
	maximum = 0.0625 (at node 5)
Accepted flit rate average= 0.050625
	minimum = 0.0405 (at node 7)
	maximum = 0.0625 (at node 5)
Injected packet length average = 1
Accepted packet length average = 1
Total in-flight flits = 17 (0 measured)
latency change    = 0.0101261
throughput change = 0.0037037
Class 0:
Packet latency average = 19.7912
	minimum = 7
	maximum = 45
Network latency average = 19.7912
	minimum = 7
	maximum = 45
Slowest packet = 507770
Flit latency average = 19.7912
	minimum = 7
	maximum = 45
Slowest flit = 507770
Fragmentation average = 0
	minimum = 0
	maximum = 0
Injected packet rate average = 0.0495625
	minimum = 0.041 (at node 9)
	maximum = 0.065 (at node 13)
Accepted packet rate average = 0.0496875
	minimum = 0.042 (at node 8)
	maximum = 0.066 (at node 7)
Injected flit rate average = 0.0495625
	minimum = 0.041 (at node 9)
	maximum = 0.065 (at node 13)
Accepted flit rate average= 0.0496875
	minimum = 0.042 (at node 8)
	maximum = 0.066 (at node 7)
Injected packet length average = 1
Accepted packet length average = 1
Total in-flight flits = 15 (0 measured)
latency change    = 0.0295285
throughput change = 0.0188679
Warmed up ...Time used is 3000 cycles
Class 0:
Packet latency average = 19.732
	minimum = 7
	maximum = 45
Network latency average = 19.732
	minimum = 7
	maximum = 45
Slowest packet = 508378
Flit latency average = 19.8501
	minimum = 7
	maximum = 45
Slowest flit = 508378
Fragmentation average = 0
	minimum = 0
	maximum = 0
Injected packet rate average = 0.053
	minimum = 0.043 (at node 5)
	maximum = 0.062 (at node 0)
Accepted packet rate average = 0.0529375
	minimum = 0.042 (at node 4)
	maximum = 0.062 (at node 0)
Injected flit rate average = 0.053
	minimum = 0.043 (at node 5)
	maximum = 0.062 (at node 0)
Accepted flit rate average= 0.0529375
	minimum = 0.042 (at node 4)
	maximum = 0.062 (at node 0)
Injected packet length average = 1
Accepted packet length average = 1
Total in-flight flits = 16 (16 measured)
latency change    = 0.00300141
throughput change = 0.0613932
Class 0:
Packet latency average = 19.8952
	minimum = 7
	maximum = 46
Network latency average = 19.8952
	minimum = 7
	maximum = 46
Slowest packet = 509713
Flit latency average = 19.9548
	minimum = 7
	maximum = 46
Slowest flit = 509713
Fragmentation average = 0
	minimum = 0
	maximum = 0
Injected packet rate average = 0.0512188
	minimum = 0.042 (at node 5)
	maximum = 0.057 (at node 2)
Accepted packet rate average = 0.0511563
	minimum = 0.0415 (at node 5)
	maximum = 0.056 (at node 9)
Injected flit rate average = 0.0512188
	minimum = 0.042 (at node 5)
	maximum = 0.057 (at node 2)
Accepted flit rate average= 0.0511563
	minimum = 0.0415 (at node 5)
	maximum = 0.056 (at node 9)
Injected packet length average = 1
Accepted packet length average = 1
Total in-flight flits = 17 (17 measured)
latency change    = 0.00820399
throughput change = 0.0348198
Class 0:
Packet latency average = 19.8508
	minimum = 7
	maximum = 46
Network latency average = 19.8508
	minimum = 7
	maximum = 46
Slowest packet = 509713
Flit latency average = 19.8907
	minimum = 7
	maximum = 46
Slowest flit = 509713
Fragmentation average = 0
	minimum = 0
	maximum = 0
Injected packet rate average = 0.0513125
	minimum = 0.043 (at node 5)
	maximum = 0.0566667 (at node 2)
Accepted packet rate average = 0.0512708
	minimum = 0.043 (at node 5)
	maximum = 0.056 (at node 8)
Injected flit rate average = 0.0513125
	minimum = 0.043 (at node 5)
	maximum = 0.0566667 (at node 2)
Accepted flit rate average= 0.0512708
	minimum = 0.043 (at node 5)
	maximum = 0.056 (at node 8)
Injected packet length average = 1
Accepted packet length average = 1
Total in-flight flits = 17 (17 measured)
latency change    = 0.00223741
throughput change = 0.00223486
Class 0:
Packet latency average = 19.9007
	minimum = 7
	maximum = 46
Network latency average = 19.9007
	minimum = 7
	maximum = 46
Slowest packet = 509713
Flit latency average = 19.9306
	minimum = 7
	maximum = 46
Slowest flit = 509713
Fragmentation average = 0
	minimum = 0
	maximum = 0
Injected packet rate average = 0.0510313
	minimum = 0.0425 (at node 5)
	maximum = 0.056 (at node 7)
Accepted packet rate average = 0.0510781
	minimum = 0.0425 (at node 5)
	maximum = 0.05575 (at node 13)
Injected flit rate average = 0.0510313
	minimum = 0.0425 (at node 5)
	maximum = 0.056 (at node 7)
Accepted flit rate average= 0.0510781
	minimum = 0.0425 (at node 5)
	maximum = 0.05575 (at node 13)
Injected packet length average = 1
Accepted packet length average = 1
Total in-flight flits = 12 (12 measured)
latency change    = 0.0025105
throughput change = 0.00377282
Draining all recorded packets ...
Draining remaining packets ...
Time taken is 7062 cycles
Class 0:
Packet latency average = 20.0865
	minimum = 7
	maximum = 49
Network latency average = 20.0865
	minimum = 7
	maximum = 49
Slowest packet = 511746
Flit latency average = 20.0865
	minimum = 7
	maximum = 49
Slowest flit = 511746
Fragmentation average = 0
	minimum = 0
	maximum = 0
Injected packet rate average = 0.0516875
	minimum = 0.037 (at node 15)
	maximum = 0.061 (at node 3)
Accepted packet rate average = 0.0505625
	minimum = 0.037 (at node 15)
	maximum = 0.06 (at node 6)
Injected flit rate average = 0.0516875
	minimum = 0.037 (at node 15)
	maximum = 0.061 (at node 3)
Accepted flit rate average= 0.0505625
	minimum = 0.037 (at node 15)
	maximum = 0.06 (at node 6)
Injected packet length average = 1
Accepted packet length average = 1
Total in-flight flits = 18 (0 measured)
latency change    = 1
throughput change = 1
Class 0:
Packet latency average = 19.9036
	minimum = 7
	maximum = 49
Network latency average = 19.9036
	minimum = 7
	maximum = 49
Slowest packet = 511746
Flit latency average = 19.9036
	minimum = 7
	maximum = 49
Slowest flit = 511746
Fragmentation average = 0
	minimum = 0
	maximum = 0
Injected packet rate average = 0.0513438
	minimum = 0.042 (at node 11)
	maximum = 0.0625 (at node 6)
Accepted packet rate average = 0.0509063
	minimum = 0.0415 (at node 14)
	maximum = 0.0625 (at node 9)
Injected flit rate average = 0.0513438
	minimum = 0.042 (at node 11)
	maximum = 0.0625 (at node 6)
Accepted flit rate average= 0.0509063
	minimum = 0.0415 (at node 14)
	maximum = 0.0625 (at node 9)
Injected packet length average = 1
Accepted packet length average = 1
Total in-flight flits = 14 (0 measured)
latency change    = 0.00918952
throughput change = 0.00675261
Class 0:
Packet latency average = 20.222
	minimum = 7
	maximum = 44
Network latency average = 20.222
	minimum = 7
	maximum = 44
Slowest packet = 513792
Flit latency average = 20.222
	minimum = 7
	maximum = 44
Slowest flit = 513792
Fragmentation average = 0
	minimum = 0
	maximum = 0
Injected packet rate average = 0.0540625
	minimum = 0.032 (at node 0)
	maximum = 0.065 (at node 10)
Accepted packet rate average = 0.0535
	minimum = 0.031 (at node 0)
	maximum = 0.065 (at node 10)
Injected flit rate average = 0.0540625
	minimum = 0.032 (at node 0)
	maximum = 0.065 (at node 10)
Accepted flit rate average= 0.0535
	minimum = 0.031 (at node 0)
	maximum = 0.065 (at node 10)
Injected packet length average = 1
Accepted packet length average = 1
Total in-flight flits = 23 (0 measured)
latency change    = 0.0157423
throughput change = 0.0484813
Warmed up ...Time used is 3000 cycles
Class 0:
Packet latency average = 19.6409
	minimum = 7
	maximum = 42
Network latency average = 19.6409
	minimum = 7
	maximum = 42
Slowest packet = 514230
Flit latency average = 19.8141
	minimum = 7
	maximum = 42
Slowest flit = 514230
Fragmentation average = 0
	minimum = 0
	maximum = 0
Injected packet rate average = 0.0518125
	minimum = 0.039 (at node 3)
	maximum = 0.074 (at node 11)
Accepted packet rate average = 0.0524375
	minimum = 0.04 (at node 12)
	maximum = 0.073 (at node 14)
Injected flit rate average = 0.0518125
	minimum = 0.039 (at node 3)
	maximum = 0.074 (at node 11)
Accepted flit rate average= 0.0524375
	minimum = 0.04 (at node 12)
	maximum = 0.073 (at node 14)
Injected packet length average = 1
Accepted packet length average = 1
Total in-flight flits = 13 (13 measured)
latency change    = 0.0295827
throughput change = 0.0202622
Class 0:
Packet latency average = 19.6095
	minimum = 7
	maximum = 51
Network latency average = 19.6095
	minimum = 7
	maximum = 51
Slowest packet = 514829
Flit latency average = 19.6993
	minimum = 7
	maximum = 51
Slowest flit = 514829
Fragmentation average = 0
	minimum = 0
	maximum = 0
Injected packet rate average = 0.0505937
	minimum = 0.043 (at node 10)
	maximum = 0.0655 (at node 1)
Accepted packet rate average = 0.0508125
	minimum = 0.043 (at node 10)
	maximum = 0.066 (at node 4)
Injected flit rate average = 0.0505937
	minimum = 0.043 (at node 10)
	maximum = 0.0655 (at node 1)
Accepted flit rate average= 0.0508125
	minimum = 0.043 (at node 10)
	maximum = 0.066 (at node 4)
Injected packet length average = 1
Accepted packet length average = 1
Total in-flight flits = 16 (16 measured)
latency change    = 0.00160377
throughput change = 0.0319803
Class 0:
Packet latency average = 19.788
	minimum = 7
	maximum = 51
Network latency average = 19.786
	minimum = 7
	maximum = 51
Slowest packet = 514829
Flit latency average = 19.844
	minimum = 7
	maximum = 51
Slowest flit = 514829
Fragmentation average = 0
	minimum = 0
	maximum = 0
Injected packet rate average = 0.0506667
	minimum = 0.0433333 (at node 10)
	maximum = 0.061 (at node 1)
Accepted packet rate average = 0.0508958
	minimum = 0.043 (at node 10)
	maximum = 0.0613333 (at node 4)
Injected flit rate average = 0.0506667
	minimum = 0.0433333 (at node 10)
	maximum = 0.061 (at node 1)
Accepted flit rate average= 0.0508958
	minimum = 0.043 (at node 10)
	maximum = 0.0613333 (at node 4)
Injected packet length average = 1
Accepted packet length average = 1
Total in-flight flits = 12 (12 measured)
latency change    = 0.00902234
throughput change = 0.00163733
Draining all recorded packets ...
Draining remaining packets ...
Time taken is 6070 cycles
====== Overall Traffic Statistics ======
====== Traffic class 0 ======
Packet latency average = 19.6603 (100 samples)
	minimum = 7 (100 samples)
	maximum = 47.85 (100 samples)
Network latency average = 19.6602 (100 samples)
	minimum = 7 (100 samples)
	maximum = 47.85 (100 samples)
Flit latency average = 19.6919 (100 samples)
	minimum = 7 (100 samples)
	maximum = 47.91 (100 samples)
Fragmentation average = 0 (100 samples)
	minimum = 0 (100 samples)
	maximum = 0 (100 samples)
Injected packet rate average = 0.0501958 (100 samples)
	minimum = 0.0434983 (100 samples)
	maximum = 0.056863 (100 samples)
Accepted packet rate average = 0.0501983 (100 samples)
	minimum = 0.0435287 (100 samples)
	maximum = 0.0568195 (100 samples)
Injected flit rate average = 0.0501958 (100 samples)
	minimum = 0.0434983 (100 samples)
	maximum = 0.056863 (100 samples)
Accepted flit rate average = 0.0501983 (100 samples)
	minimum = 0.0435287 (100 samples)
	maximum = 0.0568195 (100 samples)
Injected packet size average = 1 (100 samples)
Accepted packet size average = 1 (100 samples)
Hops average = 3.49837 (100 samples)
Total run time 7.21397
