BEGIN Configuration File: /tmp/bs_1138183_951289.cfg
topology = mesh;
k = 4;
n = 2;
routing_function = dor;
num_vcs = 4;
vc_buf_size = 4;
wait_for_tail_credit = 1;
vc_allocator = islip;
sw_allocator = islip;
alloc_iters = 1;
credit_delay = 2;
routing_delay = 1;
vc_alloc_delay = 1;
sw_alloc_delay = 1;
input_speedup = 2;
output_speedup = 1;
internal_speedup = 1.0;
traffic = transpose;
packet_size = 1;
sim_type = latency;
injection_rate = 0.05;
warmup_periods = 3;
sample_period = 1000;
sim_count = 100;
seed = 2;

END Configuration File: /tmp/bs_1138183_951289.cfg
Class 0:
Packet latency average = 18.8886
	minimum = 7
	maximum = 43
Network latency average = 18.8886
	minimum = 7
	maximum = 43
Slowest packet = 527
Flit latency average = 18.8886
	minimum = 7
	maximum = 43
Slowest flit = 527
Fragmentation average = 0
	minimum = 0
	maximum = 0
Injected packet rate average = 0.04975
	minimum = 0.035 (at node 8)
	maximum = 0.064 (at node 10)
Accepted packet rate average = 0.04825
	minimum = 0.034 (at node 2)
	maximum = 0.064 (at node 10)
Injected flit rate average = 0.04975
	minimum = 0.035 (at node 8)
	maximum = 0.064 (at node 10)
Accepted flit rate average= 0.04825
	minimum = 0.034 (at node 2)
	maximum = 0.064 (at node 10)
Injected packet length average = 1
Accepted packet length average = 1
Total in-flight flits = 24 (0 measured)
latency change    = 1
throughput change = 1
Class 0:
Packet latency average = 19.3465
	minimum = 7
	maximum = 43
Network latency average = 19.3465
	minimum = 7
	maximum = 43
Slowest packet = 527
Flit latency average = 19.3465
	minimum = 7
	maximum = 43
Slowest flit = 527
Fragmentation average = 0
	minimum = 0
	maximum = 0
Injected packet rate average = 0.0495
	minimum = 0.039 (at node 1)
	maximum = 0.067 (at node 10)
Accepted packet rate average = 0.0490625
	minimum = 0.039 (at node 4)
	maximum = 0.067 (at node 10)
Injected flit rate average = 0.0495
	minimum = 0.039 (at node 1)
	maximum = 0.067 (at node 10)
Accepted flit rate average= 0.0490625
	minimum = 0.039 (at node 4)
	maximum = 0.067 (at node 10)
Injected packet length average = 1
Accepted packet length average = 1
Total in-flight flits = 14 (0 measured)
latency change    = 0.0236681
throughput change = 0.0165605
Class 0:
Packet latency average = 19.7645
	minimum = 7
	maximum = 40
Network latency average = 19.7645
	minimum = 7
	maximum = 40
Slowest packet = 1897
Flit latency average = 19.7645
	minimum = 7
	maximum = 40
Slowest flit = 1897
Fragmentation average = 0
	minimum = 0
	maximum = 0
Injected packet rate average = 0.0475625
	minimum = 0.04 (at node 6)
	maximum = 0.059 (at node 10)
Accepted packet rate average = 0.0475
	minimum = 0.039 (at node 15)
	maximum = 0.06 (at node 13)
Injected flit rate average = 0.0475625
	minimum = 0.04 (at node 6)
	maximum = 0.059 (at node 10)
Accepted flit rate average= 0.0475
	minimum = 0.039 (at node 15)
	maximum = 0.06 (at node 13)
Injected packet length average = 1
Accepted packet length average = 1
Total in-flight flits = 15 (0 measured)
latency change    = 0.0211479
throughput change = 0.0328947
Warmed up ...Time used is 3000 cycles
Class 0:
Packet latency average = 19.2494
	minimum = 7
	maximum = 43
Network latency average = 19.2494
	minimum = 7
	maximum = 43
Slowest packet = 3148
Flit latency average = 19.294
	minimum = 7
	maximum = 43
Slowest flit = 3148
Fragmentation average = 0
	minimum = 0
	maximum = 0
Injected packet rate average = 0.053625
	minimum = 0.037 (at node 1)
	maximum = 0.066 (at node 12)
Accepted packet rate average = 0.0535625
	minimum = 0.037 (at node 4)
	maximum = 0.065 (at node 10)
Injected flit rate average = 0.053625
	minimum = 0.037 (at node 1)
	maximum = 0.066 (at node 12)
Accepted flit rate average= 0.0535625
	minimum = 0.037 (at node 4)
	maximum = 0.065 (at node 10)
Injected packet length average = 1
Accepted packet length average = 1
Total in-flight flits = 16 (16 measured)
latency change    = 0.0267576
throughput change = 0.113186
Class 0:
Packet latency average = 19.655
	minimum = 7
	maximum = 43
Network latency average = 19.655
	minimum = 7
	maximum = 43
Slowest packet = 3148
Flit latency average = 19.6742
	minimum = 7
	maximum = 43
Slowest flit = 3148
Fragmentation average = 0
	minimum = 0
	maximum = 0
Injected packet rate average = 0.0524688
	minimum = 0.0415 (at node 1)
	maximum = 0.0585 (at node 12)
Accepted packet rate average = 0.052375
	minimum = 0.0405 (at node 4)
	maximum = 0.0595 (at node 3)
Injected flit rate average = 0.0524688
	minimum = 0.0415 (at node 1)
	maximum = 0.0585 (at node 12)
Accepted flit rate average= 0.052375
	minimum = 0.0405 (at node 4)
	maximum = 0.0595 (at node 3)
Injected packet length average = 1
Accepted packet length average = 1
Total in-flight flits = 18 (18 measured)
latency change    = 0.020637
throughput change = 0.022673
Class 0:
Packet latency average = 19.5157
	minimum = 7
	maximum = 44
Network latency average = 19.5157
	minimum = 7
	maximum = 44
Slowest packet = 4519
Flit latency average = 19.5293
	minimum = 7
	maximum = 44
Slowest flit = 4519
Fragmentation average = 0
	minimum = 0
	maximum = 0
Injected packet rate average = 0.0521042
	minimum = 0.0456667 (at node 2)
	maximum = 0.0576667 (at node 10)
Accepted packet rate average = 0.0522292
	minimum = 0.045 (at node 8)
	maximum = 0.058 (at node 10)
Injected flit rate average = 0.0521042
	minimum = 0.0456667 (at node 2)
	maximum = 0.0576667 (at node 10)
Accepted flit rate average= 0.0522292
	minimum = 0.045 (at node 8)
	maximum = 0.058 (at node 10)
Injected packet length average = 1
Accepted packet length average = 1
Total in-flight flits = 9 (9 measured)
latency change    = 0.00714181
throughput change = 0.00279218
Class 0:
Packet latency average = 19.5615
	minimum = 7
	maximum = 44
Network latency average = 19.5597
	minimum = 7
	maximum = 44
Slowest packet = 4519
Flit latency average = 19.5699
	minimum = 7
	maximum = 44
Slowest flit = 4519
Fragmentation average = 0
	minimum = 0
	maximum = 0
Injected packet rate average = 0.0516719
	minimum = 0.04575 (at node 2)
	maximum = 0.0545 (at node 10)
Accepted packet rate average = 0.0515469
	minimum = 0.045 (at node 8)
	maximum = 0.055 (at node 10)
Injected flit rate average = 0.0516719
	minimum = 0.04575 (at node 2)
	maximum = 0.0545 (at node 10)
Accepted flit rate average= 0.0515469
	minimum = 0.045 (at node 8)
	maximum = 0.055 (at node 10)
Injected packet length average = 1
Accepted packet length average = 1
Total in-flight flits = 23 (23 measured)
latency change    = 0.00234441
throughput change = 0.0132363
Draining all recorded packets ...
Draining remaining packets ...
Time taken is 7077 cycles
Class 0:
Packet latency average = 19.2661
	minimum = 7
	maximum = 42
Network latency average = 19.2661
	minimum = 7
	maximum = 42
Slowest packet = 5947
Flit latency average = 19.2661
	minimum = 7
	maximum = 42
Slowest flit = 5947
Fragmentation average = 0
	minimum = 0
	maximum = 0
Injected packet rate average = 0.049875
	minimum = 0.033 (at node 9)
	maximum = 0.058 (at node 4)
Accepted packet rate average = 0.048625
	minimum = 0.031 (at node 6)
	maximum = 0.058 (at node 5)
Injected flit rate average = 0.049875
	minimum = 0.033 (at node 9)
	maximum = 0.058 (at node 4)
Accepted flit rate average= 0.048625
	minimum = 0.031 (at node 6)
	maximum = 0.058 (at node 5)
Injected packet length average = 1
Accepted packet length average = 1
Total in-flight flits = 20 (0 measured)
latency change    = 1
throughput change = 1
Class 0:
Packet latency average = 19.5984
	minimum = 7
	maximum = 42
Network latency average = 19.5984
	minimum = 7
	maximum = 42
Slowest packet = 5947
Flit latency average = 19.5984
	minimum = 7
	maximum = 42
Slowest flit = 5947
Fragmentation average = 0
	minimum = 0
	maximum = 0
Injected packet rate average = 0.05
	minimum = 0.0365 (at node 9)
	maximum = 0.061 (at node 15)
Accepted packet rate average = 0.0494062
	minimum = 0.036 (at node 6)
	maximum = 0.061 (at node 15)
Injected flit rate average = 0.05
	minimum = 0.0365 (at node 9)
	maximum = 0.061 (at node 15)
Accepted flit rate average= 0.0494062
	minimum = 0.036 (at node 6)
	maximum = 0.061 (at node 15)
Injected packet length average = 1
Accepted packet length average = 1
Total in-flight flits = 19 (0 measured)
latency change    = 0.0169549
throughput change = 0.0158128
Class 0:
Packet latency average = 19.3024
	minimum = 7
	maximum = 41
Network latency average = 19.3024
	minimum = 7
	maximum = 41
Slowest packet = 7256
Flit latency average = 19.3024
	minimum = 7
	maximum = 41
Slowest flit = 7256
Fragmentation average = 0
	minimum = 0
	maximum = 0
Injected packet rate average = 0.050125
	minimum = 0.041 (at node 1)
	maximum = 0.061 (at node 0)
Accepted packet rate average = 0.0504375
	minimum = 0.04 (at node 4)
	maximum = 0.065 (at node 11)
Injected flit rate average = 0.050125
	minimum = 0.041 (at node 1)
	maximum = 0.061 (at node 0)
Accepted flit rate average= 0.0504375
	minimum = 0.04 (at node 4)
	maximum = 0.065 (at node 11)
Injected packet length average = 1
Accepted packet length average = 1
Total in-flight flits = 14 (0 measured)
latency change    = 0.015335
throughput change = 0.0204461
Warmed up ...Time used is 3000 cycles
Class 0:
Packet latency average = 19.4417
	minimum = 7
	maximum = 42
Network latency average = 19.4417
	minimum = 7
	maximum = 42
Slowest packet = 8772
Flit latency average = 19.4726
	minimum = 7
	maximum = 42
Slowest flit = 8772
Fragmentation average = 0
	minimum = 0
	maximum = 0
Injected packet rate average = 0.0526875
	minimum = 0.041 (at node 5)
	maximum = 0.063 (at node 10)
Accepted packet rate average = 0.052375
	minimum = 0.04 (at node 12)
	maximum = 0.063 (at node 10)
Injected flit rate average = 0.0526875
	minimum = 0.041 (at node 5)
	maximum = 0.063 (at node 10)
Accepted flit rate average= 0.052375
	minimum = 0.04 (at node 12)
	maximum = 0.063 (at node 10)
Injected packet length average = 1
Accepted packet length average = 1
Total in-flight flits = 19 (19 measured)
latency change    = 0.00716979
throughput change = 0.0369928
Class 0:
Packet latency average = 19.5176
	minimum = 7
	maximum = 42
Network latency average = 19.5176
	minimum = 7
	maximum = 42
Slowest packet = 8772
Flit latency average = 19.5328
	minimum = 7
	maximum = 42
Slowest flit = 8772
Fragmentation average = 0
	minimum = 0
	maximum = 0
Injected packet rate average = 0.0510625
	minimum = 0.045 (at node 5)
	maximum = 0.0565 (at node 6)
Accepted packet rate average = 0.0510313
	minimum = 0.045 (at node 5)
	maximum = 0.057 (at node 9)
Injected flit rate average = 0.0510625
	minimum = 0.045 (at node 5)
	maximum = 0.0565 (at node 6)
Accepted flit rate average= 0.0510313
	minimum = 0.045 (at node 5)
	maximum = 0.057 (at node 9)
Injected packet length average = 1
Accepted packet length average = 1
Total in-flight flits = 15 (15 measured)
latency change    = 0.00388654
throughput change = 0.0263319
Class 0:
Packet latency average = 19.4404
	minimum = 7
	maximum = 42
Network latency average = 19.4404
	minimum = 7
	maximum = 42
Slowest packet = 8772
Flit latency average = 19.4511
	minimum = 7
	maximum = 42
Slowest flit = 8772
Fragmentation average = 0
	minimum = 0
	maximum = 0
Injected packet rate average = 0.050125
	minimum = 0.0456667 (at node 3)
	maximum = 0.0556667 (at node 15)
Accepted packet rate average = 0.0501042
	minimum = 0.046 (at node 12)
	maximum = 0.056 (at node 15)
Injected flit rate average = 0.050125
	minimum = 0.0456667 (at node 3)
	maximum = 0.0556667 (at node 15)
Accepted flit rate average= 0.0501042
	minimum = 0.046 (at node 12)
	maximum = 0.056 (at node 15)
Injected packet length average = 1
Accepted packet length average = 1
Total in-flight flits = 15 (15 measured)
latency change    = 0.00397121
throughput change = 0.0185031
Draining all recorded packets ...
Draining remaining packets ...
Time taken is 6075 cycles
Class 0:
Packet latency average = 19.5578
	minimum = 7
	maximum = 41
Network latency average = 19.5578
	minimum = 7
	maximum = 41
Slowest packet = 10896
Flit latency average = 19.5578
	minimum = 7
	maximum = 41
Slowest flit = 10896
Fragmentation average = 0
	minimum = 0
	maximum = 0
Injected packet rate average = 0.0498125
	minimum = 0.038 (at node 0)
	maximum = 0.064 (at node 6)
Accepted packet rate average = 0.048625
	minimum = 0.038 (at node 0)
	maximum = 0.062 (at node 9)
Injected flit rate average = 0.0498125
	minimum = 0.038 (at node 0)
	maximum = 0.064 (at node 6)
Accepted flit rate average= 0.048625
	minimum = 0.038 (at node 0)
	maximum = 0.062 (at node 9)
Injected packet length average = 1
Accepted packet length average = 1
Total in-flight flits = 19 (0 measured)
latency change    = 1
throughput change = 1
Class 0:
Packet latency average = 19.2797
	minimum = 7
	maximum = 42
Network latency average = 19.2797
	minimum = 7
	maximum = 42
Slowest packet = 11699
Flit latency average = 19.2797
	minimum = 7
	maximum = 42
Slowest flit = 11699
Fragmentation average = 0
	minimum = 0
	maximum = 0
Injected packet rate average = 0.0497187
	minimum = 0.0445 (at node 0)
	maximum = 0.0575 (at node 11)
Accepted packet rate average = 0.049375
	minimum = 0.0435 (at node 12)
	maximum = 0.0565 (at node 14)
Injected flit rate average = 0.0497187
	minimum = 0.0445 (at node 0)
	maximum = 0.0575 (at node 11)
Accepted flit rate average= 0.049375
	minimum = 0.0435 (at node 12)
	maximum = 0.0565 (at node 14)
Injected packet length average = 1
Accepted packet length average = 1
Total in-flight flits = 11 (0 measured)
latency change    = 0.0144241
throughput change = 0.0151899
Class 0:
Packet latency average = 19.6561
	minimum = 7
	maximum = 39
Network latency average = 19.6561
	minimum = 7
	maximum = 39
Slowest packet = 12325
Flit latency average = 19.6561
	minimum = 7
	maximum = 39
Slowest flit = 12325
Fragmentation average = 0
	minimum = 0
	maximum = 0
Injected packet rate average = 0.0530625
	minimum = 0.039 (at node 13)
	maximum = 0.064 (at node 1)
Accepted packet rate average = 0.0530625
	minimum = 0.037 (at node 7)
	maximum = 0.063 (at node 1)
Injected flit rate average = 0.0530625
	minimum = 0.039 (at node 13)
	maximum = 0.064 (at node 1)
Accepted flit rate average= 0.0530625
	minimum = 0.037 (at node 7)
	maximum = 0.063 (at node 1)
Injected packet length average = 1
Accepted packet length average = 1
Total in-flight flits = 11 (0 measured)
latency change    = 0.0191452
throughput change = 0.0694935
Warmed up ...Time used is 3000 cycles
Class 0:
Packet latency average = 19.7214
	minimum = 7
	maximum = 43
Network latency average = 19.7214
	minimum = 7
	maximum = 43
Slowest packet = 13374
Flit latency average = 19.7878
	minimum = 7
	maximum = 43
Slowest flit = 13374
Fragmentation average = 0
	minimum = 0
	maximum = 0
Injected packet rate average = 0.047125
	minimum = 0.034 (at node 1)
	maximum = 0.066 (at node 8)
Accepted packet rate average = 0.047125
	minimum = 0.035 (at node 4)
	maximum = 0.066 (at node 2)
Injected flit rate average = 0.047125
	minimum = 0.034 (at node 1)
	maximum = 0.066 (at node 8)
Accepted flit rate average= 0.047125
	minimum = 0.035 (at node 4)
	maximum = 0.066 (at node 2)
Injected packet length average = 1
Accepted packet length average = 1
Total in-flight flits = 11 (11 measured)
latency change    = 0.00331284
throughput change = 0.125995
Class 0:
Packet latency average = 19.4804
	minimum = 7
	maximum = 43
Network latency average = 19.4804
	minimum = 7
	maximum = 43
Slowest packet = 13374
Flit latency average = 19.5135
	minimum = 7
	maximum = 43
Slowest flit = 13374
Fragmentation average = 0
	minimum = 0
	maximum = 0
Injected packet rate average = 0.0499375
	minimum = 0.039 (at node 1)
	maximum = 0.0605 (at node 8)
Accepted packet rate average = 0.0498437
	minimum = 0.0395 (at node 4)
	maximum = 0.06 (at node 2)
Injected flit rate average = 0.0499375
	minimum = 0.039 (at node 1)
	maximum = 0.0605 (at node 8)
Accepted flit rate average= 0.0498437
	minimum = 0.0395 (at node 4)
	maximum = 0.06 (at node 2)
Injected packet length average = 1
Accepted packet length average = 1
Total in-flight flits = 14 (14 measured)
latency change    = 0.0123699
throughput change = 0.0545455
Class 0:
Packet latency average = 19.4315
	minimum = 7
	maximum = 43
Network latency average = 19.4315
	minimum = 7
	maximum = 43
Slowest packet = 13374
Flit latency average = 19.4542
	minimum = 7
	maximum = 43
Slowest flit = 13374
Fragmentation average = 0
	minimum = 0
	maximum = 0
Injected packet rate average = 0.0489792
	minimum = 0.0423333 (at node 3)
	maximum = 0.0553333 (at node 8)
Accepted packet rate average = 0.0488958
	minimum = 0.0426667 (at node 12)
	maximum = 0.0553333 (at node 2)
Injected flit rate average = 0.0489792
	minimum = 0.0423333 (at node 3)
	maximum = 0.0553333 (at node 8)
Accepted flit rate average= 0.0488958
	minimum = 0.0426667 (at node 12)
	maximum = 0.0553333 (at node 2)
Injected packet length average = 1
Accepted packet length average = 1
Total in-flight flits = 15 (15 measured)
latency change    = 0.00251769
throughput change = 0.0193865
Class 0:
Packet latency average = 19.5171
	minimum = 7
	maximum = 44
Network latency average = 19.5171
	minimum = 7
	maximum = 44
Slowest packet = 15595
Flit latency average = 19.5338
	minimum = 7
	maximum = 44
Slowest flit = 15595
Fragmentation average = 0
	minimum = 0
	maximum = 0
Injected packet rate average = 0.0491406
	minimum = 0.04375 (at node 3)
	maximum = 0.0555 (at node 8)
Accepted packet rate average = 0.0489375
	minimum = 0.0435 (at node 12)
	maximum = 0.05525 (at node 2)
Injected flit rate average = 0.0491406
	minimum = 0.04375 (at node 3)
	maximum = 0.0555 (at node 8)
Accepted flit rate average= 0.0489375
	minimum = 0.0435 (at node 12)
	maximum = 0.05525 (at node 2)
Injected packet length average = 1
Accepted packet length average = 1
Total in-flight flits = 24 (24 measured)
latency change    = 0.00438769
throughput change = 0.000851426
Class 0:
Packet latency average = 19.48
	minimum = 7
	maximum = 44
Network latency average = 19.48
	minimum = 7
	maximum = 44
Slowest packet = 15595
Flit latency average = 19.4935
	minimum = 7
	maximum = 44
Slowest flit = 15595
Fragmentation average = 0
	minimum = 0
	maximum = 0
Injected packet rate average = 0.049025
	minimum = 0.0458 (at node 1)
	maximum = 0.0536 (at node 4)
Accepted packet rate average = 0.0489125
	minimum = 0.0448 (at node 12)
	maximum = 0.0532 (at node 1)
Injected flit rate average = 0.049025
	minimum = 0.0458 (at node 1)
	maximum = 0.0536 (at node 4)
Accepted flit rate average= 0.0489125
	minimum = 0.0448 (at node 12)
	maximum = 0.0532 (at node 1)
Injected packet length average = 1
Accepted packet length average = 1
Total in-flight flits = 20 (20 measured)
latency change    = 0.00190614
throughput change = 0.000511117
Draining all recorded packets ...
Draining remaining packets ...
Time taken is 8074 cycles
Class 0:
Packet latency average = 20.1187
	minimum = 7
	maximum = 40
Network latency average = 20.1187
	minimum = 7
	maximum = 40
Slowest packet = 17479
Flit latency average = 20.1187
	minimum = 7
	maximum = 40
Slowest flit = 17479
Fragmentation average = 0
	minimum = 0
	maximum = 0
Injected packet rate average = 0.05125
	minimum = 0.037 (at node 10)
	maximum = 0.063 (at node 4)
Accepted packet rate average = 0.0505625
	minimum = 0.037 (at node 10)
	maximum = 0.062 (at node 1)
Injected flit rate average = 0.05125
	minimum = 0.037 (at node 10)
	maximum = 0.063 (at node 4)
Accepted flit rate average= 0.0505625
	minimum = 0.037 (at node 10)
	maximum = 0.062 (at node 1)
Injected packet length average = 1
Accepted packet length average = 1
Total in-flight flits = 11 (0 measured)
latency change    = 1
throughput change = 1
Class 0:
Packet latency average = 19.7495
	minimum = 7
	maximum = 45
Network latency average = 19.7495
	minimum = 7
	maximum = 45
Slowest packet = 18338
Flit latency average = 19.7495
	minimum = 7
	maximum = 45
Slowest flit = 18338
Fragmentation average = 0
	minimum = 0
	maximum = 0
Injected packet rate average = 0.0499687
	minimum = 0.043 (at node 9)
	maximum = 0.0625 (at node 13)
Accepted packet rate average = 0.0495312
	minimum = 0.043 (at node 6)
	maximum = 0.0625 (at node 7)
Injected flit rate average = 0.0499687
	minimum = 0.043 (at node 9)
	maximum = 0.0625 (at node 13)
Accepted flit rate average= 0.0495312
	minimum = 0.043 (at node 6)
	maximum = 0.0625 (at node 7)
Injected packet length average = 1
Accepted packet length average = 1
Total in-flight flits = 14 (0 measured)
latency change    = 0.018691
throughput change = 0.0208202
Class 0:
Packet latency average = 19.7707
	minimum = 7
	maximum = 41
Network latency average = 19.7707
	minimum = 7
	maximum = 41
Slowest packet = 18844
Flit latency average = 19.7707
	minimum = 7
	maximum = 41
Slowest flit = 18844
Fragmentation average = 0
	minimum = 0
	maximum = 0
Injected packet rate average = 0.0498125
	minimum = 0.04 (at node 5)
	maximum = 0.061 (at node 6)
Accepted packet rate average = 0.049875
	minimum = 0.04 (at node 5)
	maximum = 0.064 (at node 9)
Injected flit rate average = 0.0498125
	minimum = 0.04 (at node 5)
	maximum = 0.061 (at node 6)
Accepted flit rate average= 0.049875
	minimum = 0.04 (at node 5)
	maximum = 0.064 (at node 9)
Injected packet length average = 1
Accepted packet length average = 1
Total in-flight flits = 13 (0 measured)
latency change    = 0.00106976
throughput change = 0.00689223
Warmed up ...Time used is 3000 cycles
Class 0:
Packet latency average = 19.7107
	minimum = 7
	maximum = 44
Network latency average = 19.7107
	minimum = 7
	maximum = 44
Slowest packet = 19896
Flit latency average = 19.8519
	minimum = 7
	maximum = 44
Slowest flit = 19896
Fragmentation average = 0
	minimum = 0
	maximum = 0
Injected packet rate average = 0.047875
	minimum = 0.035 (at node 5)
	maximum = 0.057 (at node 9)
Accepted packet rate average = 0.0476875
	minimum = 0.035 (at node 5)
	maximum = 0.057 (at node 8)
Injected flit rate average = 0.047875
	minimum = 0.035 (at node 5)
	maximum = 0.057 (at node 9)
Accepted flit rate average= 0.0476875
	minimum = 0.035 (at node 5)
	maximum = 0.057 (at node 8)
Injected packet length average = 1
Accepted packet length average = 1
Total in-flight flits = 16 (16 measured)
latency change    = 0.00304455
throughput change = 0.0458716
Class 0:
Packet latency average = 20.0896
	minimum = 7
	maximum = 44
Network latency average = 20.0896
	minimum = 7
	maximum = 44
Slowest packet = 19896
Flit latency average = 20.1573
	minimum = 7
	maximum = 44
Slowest flit = 19896
Fragmentation average = 0
	minimum = 0
	maximum = 0
Injected packet rate average = 0.0475625
	minimum = 0.036 (at node 5)
	maximum = 0.0535 (at node 3)
Accepted packet rate average = 0.0474687
	minimum = 0.036 (at node 5)
	maximum = 0.0535 (at node 9)
Injected flit rate average = 0.0475625
	minimum = 0.036 (at node 5)
	maximum = 0.0535 (at node 3)
Accepted flit rate average= 0.0474687
	minimum = 0.036 (at node 5)
	maximum = 0.0535 (at node 9)
Injected packet length average = 1
Accepted packet length average = 1
Total in-flight flits = 16 (16 measured)
latency change    = 0.0188642
throughput change = 0.00460829
Class 0:
Packet latency average = 19.7615
	minimum = 7
	maximum = 44
Network latency average = 19.7615
	minimum = 7
	maximum = 44
Slowest packet = 19896
Flit latency average = 19.8075
	minimum = 7
	maximum = 44
Slowest flit = 19896
Fragmentation average = 0
	minimum = 0
	maximum = 0
Injected packet rate average = 0.0485417
	minimum = 0.0403333 (at node 1)
	maximum = 0.054 (at node 7)
Accepted packet rate average = 0.0484792
	minimum = 0.0403333 (at node 4)
	maximum = 0.0536667 (at node 13)
Injected flit rate average = 0.0485417
	minimum = 0.0403333 (at node 1)
	maximum = 0.054 (at node 7)
Accepted flit rate average= 0.0484792
	minimum = 0.0403333 (at node 4)
	maximum = 0.0536667 (at node 13)
Injected packet length average = 1
Accepted packet length average = 1
Total in-flight flits = 16 (16 measured)
latency change    = 0.0166076
throughput change = 0.0208423
Draining all recorded packets ...
Draining remaining packets ...
Time taken is 6063 cycles
Class 0:
Packet latency average = 19.4333
	minimum = 7
	maximum = 45
Network latency average = 19.4333
	minimum = 7
	maximum = 45
Slowest packet = 21698
Flit latency average = 19.4333
	minimum = 7
	maximum = 45
Slowest flit = 21698
Fragmentation average = 0
	minimum = 0
	maximum = 0
Injected packet rate average = 0.051625
	minimum = 0.04 (at node 5)
	maximum = 0.071 (at node 14)
Accepted packet rate average = 0.050625
	minimum = 0.04 (at node 5)
	maximum = 0.07 (at node 11)
Injected flit rate average = 0.051625
	minimum = 0.04 (at node 5)
	maximum = 0.071 (at node 14)
Accepted flit rate average= 0.050625
	minimum = 0.04 (at node 5)
	maximum = 0.07 (at node 11)
Injected packet length average = 1
Accepted packet length average = 1
Total in-flight flits = 16 (0 measured)
latency change    = 1
throughput change = 1
Class 0:
Packet latency average = 19.1441
	minimum = 7
	maximum = 45
Network latency average = 19.1441
	minimum = 7
	maximum = 45
Slowest packet = 21698
Flit latency average = 19.1441
	minimum = 7
	maximum = 45
Slowest flit = 21698
Fragmentation average = 0
	minimum = 0
	maximum = 0
Injected packet rate average = 0.0524375
	minimum = 0.0385 (at node 9)
	maximum = 0.065 (at node 14)
Accepted packet rate average = 0.0520313
	minimum = 0.0385 (at node 6)
	maximum = 0.065 (at node 11)
Injected flit rate average = 0.0524375
	minimum = 0.0385 (at node 9)
	maximum = 0.065 (at node 14)
Accepted flit rate average= 0.0520313
	minimum = 0.0385 (at node 6)
	maximum = 0.065 (at node 11)
Injected packet length average = 1
Accepted packet length average = 1
Total in-flight flits = 13 (0 measured)
latency change    = 0.0151059
throughput change = 0.027027
Class 0:
Packet latency average = 19.8135
	minimum = 7
	maximum = 44
Network latency average = 19.8135
	minimum = 7
	maximum = 44
Slowest packet = 23900
Flit latency average = 19.8135
	minimum = 7
	maximum = 44
Slowest flit = 23900
Fragmentation average = 0
	minimum = 0
	maximum = 0
Injected packet rate average = 0.0515625
	minimum = 0.04 (at node 13)
	maximum = 0.059 (at node 4)
Accepted packet rate average = 0.0509375
	minimum = 0.041 (at node 7)
	maximum = 0.059 (at node 4)
Injected flit rate average = 0.0515625
	minimum = 0.04 (at node 13)
	maximum = 0.059 (at node 4)
Accepted flit rate average= 0.0509375
	minimum = 0.041 (at node 7)
	maximum = 0.059 (at node 4)
Injected packet length average = 1
Accepted packet length average = 1
Total in-flight flits = 23 (0 measured)
latency change    = 0.0337827
throughput change = 0.0214724
Warmed up ...Time used is 3000 cycles
Class 0:
Packet latency average = 19.6087
	minimum = 7
	maximum = 45
Network latency average = 19.6087
	minimum = 7
	maximum = 45
Slowest packet = 24336
Flit latency average = 19.7839
	minimum = 7
	maximum = 45
Slowest flit = 24336
Fragmentation average = 0
	minimum = 0
	maximum = 0
Injected packet rate average = 0.049625
	minimum = 0.039 (at node 5)
	maximum = 0.058 (at node 15)
Accepted packet rate average = 0.0503125
	minimum = 0.038 (at node 5)
	maximum = 0.058 (at node 15)
Injected flit rate average = 0.049625
	minimum = 0.039 (at node 5)
	maximum = 0.058 (at node 15)
Accepted flit rate average= 0.0503125
	minimum = 0.038 (at node 5)
	maximum = 0.058 (at node 15)
Injected packet length average = 1
Accepted packet length average = 1
Total in-flight flits = 12 (12 measured)
latency change    = 0.0104444
throughput change = 0.0124224
Class 0:
Packet latency average = 19.4014
	minimum = 7
	maximum = 45
Network latency average = 19.4014
	minimum = 7
	maximum = 45
Slowest packet = 24336
Flit latency average = 19.4952
	minimum = 7
	maximum = 45
Slowest flit = 24336
Fragmentation average = 0
	minimum = 0
	maximum = 0
Injected packet rate average = 0.0482187
	minimum = 0.039 (at node 7)
	maximum = 0.0605 (at node 4)
Accepted packet rate average = 0.0485937
	minimum = 0.0405 (at node 13)
	maximum = 0.061 (at node 1)
Injected flit rate average = 0.0482187
	minimum = 0.039 (at node 7)
	maximum = 0.0605 (at node 4)
Accepted flit rate average= 0.0485937
	minimum = 0.0405 (at node 13)
	maximum = 0.061 (at node 1)
Injected packet length average = 1
Accepted packet length average = 1
Total in-flight flits = 11 (11 measured)
latency change    = 0.0106827
throughput change = 0.0353698
Class 0:
Packet latency average = 19.5867
	minimum = 7
	maximum = 45
Network latency average = 19.5867
	minimum = 7
	maximum = 45
Slowest packet = 24336
Flit latency average = 19.6461
	minimum = 7
	maximum = 45
Slowest flit = 24336
Fragmentation average = 0
	minimum = 0
	maximum = 0
Injected packet rate average = 0.0494583
	minimum = 0.0433333 (at node 8)
	maximum = 0.058 (at node 3)
Accepted packet rate average = 0.049625
	minimum = 0.0443333 (at node 2)
	maximum = 0.0593333 (at node 12)
Injected flit rate average = 0.0494583
	minimum = 0.0433333 (at node 8)
	maximum = 0.058 (at node 3)
Accepted flit rate average= 0.049625
	minimum = 0.0443333 (at node 2)
	maximum = 0.0593333 (at node 12)
Injected packet length average = 1
Accepted packet length average = 1
Total in-flight flits = 15 (15 measured)
latency change    = 0.00945812
throughput change = 0.0207809
Draining all recorded packets ...
Draining remaining packets ...
Time taken is 6056 cycles
Class 0:
Packet latency average = 19.0982
	minimum = 7
	maximum = 40
Network latency average = 19.0982
	minimum = 7
	maximum = 40
Slowest packet = 26833
Flit latency average = 19.0982
	minimum = 7
	maximum = 40
Slowest flit = 26833
Fragmentation average = 0
	minimum = 0
	maximum = 0
Injected packet rate average = 0.0494375
	minimum = 0.04 (at node 4)
	maximum = 0.059 (at node 11)
Accepted packet rate average = 0.048375
	minimum = 0.039 (at node 3)
	maximum = 0.059 (at node 14)
Injected flit rate average = 0.0494375
	minimum = 0.04 (at node 4)
	maximum = 0.059 (at node 11)
Accepted flit rate average= 0.048375
	minimum = 0.039 (at node 3)
	maximum = 0.059 (at node 14)
Injected packet length average = 1
Accepted packet length average = 1
Total in-flight flits = 17 (0 measured)
latency change    = 1
throughput change = 1
Class 0:
Packet latency average = 19.1142
	minimum = 7
	maximum = 44
Network latency average = 19.1142
	minimum = 7
	maximum = 44
Slowest packet = 27725
Flit latency average = 19.1142
	minimum = 7
	maximum = 44
Slowest flit = 27725
Fragmentation average = 0
	minimum = 0
	maximum = 0
Injected packet rate average = 0.0489375
	minimum = 0.041 (at node 3)
	maximum = 0.0575 (at node 0)
Accepted packet rate average = 0.0487187
	minimum = 0.0405 (at node 1)
	maximum = 0.0575 (at node 0)
Injected flit rate average = 0.0489375
	minimum = 0.041 (at node 3)
	maximum = 0.0575 (at node 0)
Accepted flit rate average= 0.0487187
	minimum = 0.0405 (at node 1)
	maximum = 0.0575 (at node 0)
Injected packet length average = 1
Accepted packet length average = 1
Total in-flight flits = 7 (0 measured)
latency change    = 0.000836266
throughput change = 0.00705581
Class 0:
Packet latency average = 19.4519
	minimum = 7
	maximum = 40
Network latency average = 19.4481
	minimum = 7
	maximum = 40
Slowest packet = 28597
Flit latency average = 19.4481
	minimum = 7
	maximum = 40
Slowest flit = 28597
Fragmentation average = 0
	minimum = 0
	maximum = 0
Injected packet rate average = 0.050125
	minimum = 0.035 (at node 0)
	maximum = 0.061 (at node 3)
Accepted packet rate average = 0.049375
	minimum = 0.035 (at node 0)
	maximum = 0.06 (at node 15)
Injected flit rate average = 0.050125
	minimum = 0.035 (at node 0)
	maximum = 0.061 (at node 3)
Accepted flit rate average= 0.049375
	minimum = 0.035 (at node 0)
	maximum = 0.06 (at node 15)
Injected packet length average = 1
Accepted packet length average = 1
Total in-flight flits = 19 (0 measured)
latency change    = 0.017362
throughput change = 0.0132911
Warmed up ...Time used is 3000 cycles
Class 0:
Packet latency average = 19.1873
	minimum = 7
	maximum = 41
Network latency average = 19.1873
	minimum = 7
	maximum = 41
Slowest packet = 29260
Flit latency average = 19.415
	minimum = 7
	maximum = 41
Slowest flit = 29260
Fragmentation average = 0
	minimum = 0
	maximum = 0
Injected packet rate average = 0.0490625
	minimum = 0.038 (at node 2)
	maximum = 0.061 (at node 5)
Accepted packet rate average = 0.04925
	minimum = 0.036 (at node 8)
	maximum = 0.062 (at node 5)
Injected flit rate average = 0.0490625
	minimum = 0.038 (at node 2)
	maximum = 0.061 (at node 5)
Accepted flit rate average= 0.04925
	minimum = 0.036 (at node 8)
	maximum = 0.062 (at node 5)
Injected packet length average = 1
Accepted packet length average = 1
Total in-flight flits = 16 (16 measured)
latency change    = 0.0137926
throughput change = 0.00253807
Class 0:
Packet latency average = 19.4877
	minimum = 7
	maximum = 45
Network latency average = 19.4877
	minimum = 7
	maximum = 45
Slowest packet = 30246
Flit latency average = 19.5985
	minimum = 7
	maximum = 45
Slowest flit = 30246
Fragmentation average = 0
	minimum = 0
	maximum = 0
Injected packet rate average = 0.0489687
	minimum = 0.039 (at node 6)
	maximum = 0.0545 (at node 9)
Accepted packet rate average = 0.0490312
	minimum = 0.039 (at node 9)
	maximum = 0.055 (at node 14)
Injected flit rate average = 0.0489687
	minimum = 0.039 (at node 6)
	maximum = 0.0545 (at node 9)
Accepted flit rate average= 0.0490312
	minimum = 0.039 (at node 9)
	maximum = 0.055 (at node 14)
Injected packet length average = 1
Accepted packet length average = 1
Total in-flight flits = 17 (17 measured)
latency change    = 0.0154192
throughput change = 0.00446144
Class 0:
Packet latency average = 19.7609
	minimum = 7
	maximum = 46
Network latency average = 19.7609
	minimum = 7
	maximum = 46
Slowest packet = 31161
Flit latency average = 19.8345
	minimum = 7
	maximum = 46
Slowest flit = 31161
Fragmentation average = 0
	minimum = 0
	maximum = 0
Injected packet rate average = 0.0476667
	minimum = 0.043 (at node 15)
	maximum = 0.0513333 (at node 9)
Accepted packet rate average = 0.0477083
	minimum = 0.043 (at node 15)
	maximum = 0.051 (at node 6)
Injected flit rate average = 0.0476667
	minimum = 0.043 (at node 15)
	maximum = 0.0513333 (at node 9)
Accepted flit rate average= 0.0477083
	minimum = 0.043 (at node 15)
	maximum = 0.051 (at node 6)
Injected packet length average = 1
Accepted packet length average = 1
Total in-flight flits = 17 (17 measured)
latency change    = 0.0138231
throughput change = 0.0277293
Draining all recorded packets ...
Draining remaining packets ...
Time taken is 6062 cycles
Class 0:
Packet latency average = 19.3167
	minimum = 7
	maximum = 43
Network latency average = 19.3167
	minimum = 7
	maximum = 43
Slowest packet = 31285
Flit latency average = 19.3167
	minimum = 7
	maximum = 43
Slowest flit = 31285
Fragmentation average = 0
	minimum = 0
	maximum = 0
Injected packet rate average = 0.05125
	minimum = 0.032 (at node 13)
	maximum = 0.063 (at node 5)
Accepted packet rate average = 0.050125
	minimum = 0.03 (at node 7)
	maximum = 0.063 (at node 5)
Injected flit rate average = 0.05125
	minimum = 0.032 (at node 13)
	maximum = 0.063 (at node 5)
Accepted flit rate average= 0.050125
	minimum = 0.03 (at node 7)
	maximum = 0.063 (at node 5)
Injected packet length average = 1
Accepted packet length average = 1
Total in-flight flits = 18 (0 measured)
latency change    = 1
throughput change = 1
Class 0:
Packet latency average = 19.4688
	minimum = 7
	maximum = 47
Network latency average = 19.467
	minimum = 7
	maximum = 47
Slowest packet = 32588
Flit latency average = 19.467
	minimum = 7
	maximum = 47
Slowest flit = 32588
Fragmentation average = 0
	minimum = 0
	maximum = 0
Injected packet rate average = 0.0511875
	minimum = 0.036 (at node 13)
	maximum = 0.0585 (at node 1)
Accepted packet rate average = 0.0506562
	minimum = 0.035 (at node 7)
	maximum = 0.058 (at node 4)
Injected flit rate average = 0.0511875
	minimum = 0.036 (at node 13)
	maximum = 0.0585 (at node 1)
Accepted flit rate average= 0.0506562
	minimum = 0.035 (at node 7)
	maximum = 0.058 (at node 4)
Injected packet length average = 1
Accepted packet length average = 1
Total in-flight flits = 17 (0 measured)
latency change    = 0.00781444
throughput change = 0.0104874
Class 0:
Packet latency average = 19.4685
	minimum = 7
	maximum = 38
Network latency average = 19.4685
	minimum = 7
	maximum = 38
Slowest packet = 32887
Flit latency average = 19.4685
	minimum = 7
	maximum = 38
Slowest flit = 32887
Fragmentation average = 0
	minimum = 0
	maximum = 0
Injected packet rate average = 0.0484375
	minimum = 0.034 (at node 5)
	maximum = 0.06 (at node 14)
Accepted packet rate average = 0.0486875
	minimum = 0.034 (at node 5)
	maximum = 0.058 (at node 2)
Injected flit rate average = 0.0484375
	minimum = 0.034 (at node 5)
	maximum = 0.06 (at node 14)
Accepted flit rate average= 0.0486875
	minimum = 0.034 (at node 5)
	maximum = 0.058 (at node 2)
Injected packet length average = 1
Accepted packet length average = 1
Total in-flight flits = 13 (0 measured)
latency change    = 1.52538e-05
throughput change = 0.0404365
Warmed up ...Time used is 3000 cycles
Class 0:
Packet latency average = 18.8745
	minimum = 7
	maximum = 40
Network latency average = 18.8745
	minimum = 7
	maximum = 40
Slowest packet = 33692
Flit latency average = 18.9759
	minimum = 7
	maximum = 40
Slowest flit = 33692
Fragmentation average = 0
	minimum = 0
	maximum = 0
Injected packet rate average = 0.04675
	minimum = 0.031 (at node 12)
	maximum = 0.058 (at node 6)
Accepted packet rate average = 0.046625
	minimum = 0.032 (at node 3)
	maximum = 0.059 (at node 9)
Injected flit rate average = 0.04675
	minimum = 0.031 (at node 12)
	maximum = 0.058 (at node 6)
Accepted flit rate average= 0.046625
	minimum = 0.032 (at node 3)
	maximum = 0.059 (at node 9)
Injected packet length average = 1
Accepted packet length average = 1
Total in-flight flits = 15 (15 measured)
latency change    = 0.0314743
throughput change = 0.0442359
Class 0:
Packet latency average = 19.3092
	minimum = 7
	maximum = 47
Network latency average = 19.3092
	minimum = 7
	maximum = 47
Slowest packet = 35202
Flit latency average = 19.3533
	minimum = 7
	maximum = 47
Slowest flit = 35202
Fragmentation average = 0
	minimum = 0
	maximum = 0
Injected packet rate average = 0.0495312
	minimum = 0.043 (at node 14)
	maximum = 0.0615 (at node 4)
Accepted packet rate average = 0.0495312
	minimum = 0.0435 (at node 11)
	maximum = 0.061 (at node 1)
Injected flit rate average = 0.0495312
	minimum = 0.043 (at node 14)
	maximum = 0.0615 (at node 4)
Accepted flit rate average= 0.0495312
	minimum = 0.0435 (at node 11)
	maximum = 0.061 (at node 1)
Injected packet length average = 1
Accepted packet length average = 1
Total in-flight flits = 13 (13 measured)
latency change    = 0.0225112
throughput change = 0.0586751
Class 0:
Packet latency average = 19.1776
	minimum = 7
	maximum = 47
Network latency average = 19.1776
	minimum = 7
	maximum = 47
Slowest packet = 35202
Flit latency average = 19.2074
	minimum = 7
	maximum = 47
Slowest flit = 35202
Fragmentation average = 0
	minimum = 0
	maximum = 0
Injected packet rate average = 0.0502083
	minimum = 0.043 (at node 2)
	maximum = 0.0593333 (at node 4)
Accepted packet rate average = 0.050125
	minimum = 0.0433333 (at node 8)
	maximum = 0.0593333 (at node 1)
Injected flit rate average = 0.0502083
	minimum = 0.043 (at node 2)
	maximum = 0.0593333 (at node 4)
Accepted flit rate average= 0.050125
	minimum = 0.0433333 (at node 8)
	maximum = 0.0593333 (at node 1)
Injected packet length average = 1
Accepted packet length average = 1
Total in-flight flits = 17 (17 measured)
latency change    = 0.00686003
throughput change = 0.0118454
Class 0:
Packet latency average = 19.3909
	minimum = 7
	maximum = 47
Network latency average = 19.3909
	minimum = 7
	maximum = 47
Slowest packet = 35202
Flit latency average = 19.4123
	minimum = 7
	maximum = 47
Slowest flit = 35202
Fragmentation average = 0
	minimum = 0
	maximum = 0
Injected packet rate average = 0.0504531
	minimum = 0.04525 (at node 9)
	maximum = 0.05675 (at node 4)
Accepted packet rate average = 0.0503281
	minimum = 0.04475 (at node 6)
	maximum = 0.05625 (at node 1)
Injected flit rate average = 0.0504531
	minimum = 0.04525 (at node 9)
	maximum = 0.05675 (at node 4)
Accepted flit rate average= 0.0503281
	minimum = 0.04475 (at node 6)
	maximum = 0.05625 (at node 1)
Injected packet length average = 1
Accepted packet length average = 1
Total in-flight flits = 21 (21 measured)
latency change    = 0.0109998
throughput change = 0.00403601
Class 0:
Packet latency average = 19.4433
	minimum = 7
	maximum = 47
Network latency average = 19.4433
	minimum = 7
	maximum = 47
Slowest packet = 35202
Flit latency average = 19.4601
	minimum = 7
	maximum = 47
Slowest flit = 35202
Fragmentation average = 0
	minimum = 0
	maximum = 0
Injected packet rate average = 0.0508875
	minimum = 0.045 (at node 2)
	maximum = 0.0588 (at node 4)
Accepted packet rate average = 0.0508
	minimum = 0.0452 (at node 6)
	maximum = 0.0584 (at node 1)
Injected flit rate average = 0.0508875
	minimum = 0.045 (at node 2)
	maximum = 0.0588 (at node 4)
Accepted flit rate average= 0.0508
	minimum = 0.0452 (at node 6)
	maximum = 0.0584 (at node 1)
Injected packet length average = 1
Accepted packet length average = 1
Total in-flight flits = 20 (20 measured)
latency change    = 0.00269756
throughput change = 0.00928888
Draining all recorded packets ...
Draining remaining packets ...
Time taken is 8064 cycles
Class 0:
Packet latency average = 19.1924
	minimum = 7
	maximum = 42
Network latency average = 19.1924
	minimum = 7
	maximum = 42
Slowest packet = 37989
Flit latency average = 19.1924
	minimum = 7
	maximum = 42
Slowest flit = 37989
Fragmentation average = 0
	minimum = 0
	maximum = 0
Injected packet rate average = 0.05025
	minimum = 0.039 (at node 13)
	maximum = 0.057 (at node 0)
Accepted packet rate average = 0.049375
	minimum = 0.039 (at node 7)
	maximum = 0.057 (at node 0)
Injected flit rate average = 0.05025
	minimum = 0.039 (at node 13)
	maximum = 0.057 (at node 0)
Accepted flit rate average= 0.049375
	minimum = 0.039 (at node 7)
	maximum = 0.057 (at node 0)
Injected packet length average = 1
Accepted packet length average = 1
Total in-flight flits = 14 (0 measured)
latency change    = 1
throughput change = 1
Class 0:
Packet latency average = 19.5335
	minimum = 7
	maximum = 42
Network latency average = 19.5335
	minimum = 7
	maximum = 42
Slowest packet = 37989
Flit latency average = 19.5335
	minimum = 7
	maximum = 42
Slowest flit = 37989
Fragmentation average = 0
	minimum = 0
	maximum = 0
Injected packet rate average = 0.0504062
	minimum = 0.045 (at node 7)
	maximum = 0.0555 (at node 6)
Accepted packet rate average = 0.0499062
	minimum = 0.044 (at node 7)
	maximum = 0.055 (at node 9)
Injected flit rate average = 0.0504062
	minimum = 0.045 (at node 7)
	maximum = 0.0555 (at node 6)
Accepted flit rate average= 0.0499062
	minimum = 0.044 (at node 7)
	maximum = 0.055 (at node 9)
Injected packet length average = 1
Accepted packet length average = 1
Total in-flight flits = 16 (0 measured)
latency change    = 0.0174621
throughput change = 0.010645
Class 0:
Packet latency average = 19.5685
	minimum = 7
	maximum = 45
Network latency average = 19.5685
	minimum = 7
	maximum = 45
Slowest packet = 39689
Flit latency average = 19.5685
	minimum = 7
	maximum = 45
Slowest flit = 39689
Fragmentation average = 0
	minimum = 0
	maximum = 0
Injected packet rate average = 0.0514375
	minimum = 0.036 (at node 9)
	maximum = 0.06 (at node 2)
Accepted packet rate average = 0.0515625
	minimum = 0.037 (at node 6)
	maximum = 0.061 (at node 8)
Injected flit rate average = 0.0514375
	minimum = 0.036 (at node 9)
	maximum = 0.06 (at node 2)
Accepted flit rate average= 0.0515625
	minimum = 0.037 (at node 6)
	maximum = 0.061 (at node 8)
Injected packet length average = 1
Accepted packet length average = 1
Total in-flight flits = 14 (0 measured)
latency change    = 0.0017878
throughput change = 0.0321212
Warmed up ...Time used is 3000 cycles
Class 0:
Packet latency average = 19.174
	minimum = 7
	maximum = 44
Network latency average = 19.174
	minimum = 7
	maximum = 44
Slowest packet = 40877
Flit latency average = 19.2675
	minimum = 7
	maximum = 44
Slowest flit = 40877
Fragmentation average = 0
	minimum = 0
	maximum = 0
Injected packet rate average = 0.046375
	minimum = 0.035 (at node 1)
	maximum = 0.06 (at node 13)
Accepted packet rate average = 0.0465
	minimum = 0.036 (at node 4)
	maximum = 0.062 (at node 7)
Injected flit rate average = 0.046375
	minimum = 0.035 (at node 1)
	maximum = 0.06 (at node 13)
Accepted flit rate average= 0.0465
	minimum = 0.036 (at node 4)
	maximum = 0.062 (at node 7)
Injected packet length average = 1
Accepted packet length average = 1
Total in-flight flits = 12 (12 measured)
latency change    = 0.0205754
throughput change = 0.108871
Class 0:
Packet latency average = 19.3601
	minimum = 7
	maximum = 44
Network latency average = 19.3601
	minimum = 7
	maximum = 44
Slowest packet = 40877
Flit latency average = 19.4027
	minimum = 7
	maximum = 44
Slowest flit = 40877
Fragmentation average = 0
	minimum = 0
	maximum = 0
Injected packet rate average = 0.0490937
	minimum = 0.0395 (at node 8)
	maximum = 0.058 (at node 6)
Accepted packet rate average = 0.049125
	minimum = 0.0395 (at node 2)
	maximum = 0.058 (at node 7)
Injected flit rate average = 0.0490937
	minimum = 0.0395 (at node 8)
	maximum = 0.058 (at node 6)
Accepted flit rate average= 0.049125
	minimum = 0.0395 (at node 2)
	maximum = 0.058 (at node 7)
Injected packet length average = 1
Accepted packet length average = 1
Total in-flight flits = 13 (13 measured)
latency change    = 0.00961279
throughput change = 0.0534351
Class 0:
Packet latency average = 19.4793
	minimum = 7
	maximum = 44
Network latency average = 19.4793
	minimum = 7
	maximum = 44
Slowest packet = 40877
Flit latency average = 19.507
	minimum = 7
	maximum = 44
Slowest flit = 40877
Fragmentation average = 0
	minimum = 0
	maximum = 0
Injected packet rate average = 0.0491667
	minimum = 0.043 (at node 7)
	maximum = 0.0553333 (at node 6)
Accepted packet rate average = 0.0491875
	minimum = 0.0433333 (at node 13)
	maximum = 0.055 (at node 9)
Injected flit rate average = 0.0491667
	minimum = 0.043 (at node 7)
	maximum = 0.0553333 (at node 6)
Accepted flit rate average= 0.0491875
	minimum = 0.0433333 (at node 13)
	maximum = 0.055 (at node 9)
Injected packet length average = 1
Accepted packet length average = 1
Total in-flight flits = 13 (13 measured)
latency change    = 0.0061223
throughput change = 0.00127065
Class 0:
Packet latency average = 19.636
	minimum = 7
	maximum = 44
Network latency average = 19.636
	minimum = 7
	maximum = 44
Slowest packet = 40877
Flit latency average = 19.6562
	minimum = 7
	maximum = 44
Slowest flit = 40877
Fragmentation average = 0
	minimum = 0
	maximum = 0
Injected packet rate average = 0.0488125
	minimum = 0.0445 (at node 14)
	maximum = 0.056 (at node 13)
Accepted packet rate average = 0.0488125
	minimum = 0.04425 (at node 11)
	maximum = 0.05575 (at node 7)
Injected flit rate average = 0.0488125
	minimum = 0.0445 (at node 14)
	maximum = 0.056 (at node 13)
Accepted flit rate average= 0.0488125
	minimum = 0.04425 (at node 11)
	maximum = 0.05575 (at node 7)
Injected packet length average = 1
Accepted packet length average = 1
Total in-flight flits = 14 (14 measured)
latency change    = 0.00797909
throughput change = 0.00768246
Class 0:
Packet latency average = 19.5733
	minimum = 7
	maximum = 44
Network latency average = 19.5733
	minimum = 7
	maximum = 44
Slowest packet = 40877
Flit latency average = 19.5897
	minimum = 7
	maximum = 44
Slowest flit = 40877
Fragmentation average = 0
	minimum = 0
	maximum = 0
Injected packet rate average = 0.0489
	minimum = 0.0436 (at node 7)
	maximum = 0.0558 (at node 6)
Accepted packet rate average = 0.0488625
	minimum = 0.0434 (at node 11)
	maximum = 0.0554 (at node 9)
Injected flit rate average = 0.0489
	minimum = 0.0436 (at node 7)
	maximum = 0.0558 (at node 6)
Accepted flit rate average= 0.0488625
	minimum = 0.0434 (at node 11)
	maximum = 0.0554 (at node 9)
Injected packet length average = 1
Accepted packet length average = 1
Total in-flight flits = 17 (17 measured)
latency change    = 0.00320405
throughput change = 0.00102328
Draining all recorded packets ...
Draining remaining packets ...
Time taken is 8067 cycles
Class 0:
Packet latency average = 19.4422
	minimum = 7
	maximum = 41
Network latency average = 19.4422
	minimum = 7
	maximum = 41
Slowest packet = 44864
Flit latency average = 19.4422
	minimum = 7
	maximum = 41
Slowest flit = 44864
Fragmentation average = 0
	minimum = 0
	maximum = 0
Injected packet rate average = 0.0499375
	minimum = 0.039 (at node 2)
	maximum = 0.063 (at node 1)
Accepted packet rate average = 0.0491875
	minimum = 0.039 (at node 8)
	maximum = 0.061 (at node 4)
Injected flit rate average = 0.0499375
	minimum = 0.039 (at node 2)
	maximum = 0.063 (at node 1)
Accepted flit rate average= 0.0491875
	minimum = 0.039 (at node 8)
	maximum = 0.061 (at node 4)
Injected packet length average = 1
Accepted packet length average = 1
Total in-flight flits = 12 (0 measured)
latency change    = 1
throughput change = 1
Class 0:
Packet latency average = 19.1921
	minimum = 7
	maximum = 42
Network latency average = 19.1915
	minimum = 7
	maximum = 42
Slowest packet = 45000
Flit latency average = 19.1915
	minimum = 7
	maximum = 42
Slowest flit = 45000
Fragmentation average = 0
	minimum = 0
	maximum = 0
Injected packet rate average = 0.0511563
	minimum = 0.0395 (at node 13)
	maximum = 0.061 (at node 0)
Accepted packet rate average = 0.05075
	minimum = 0.0385 (at node 7)
	maximum = 0.061 (at node 0)
Injected flit rate average = 0.0511563
	minimum = 0.0395 (at node 13)
	maximum = 0.061 (at node 0)
Accepted flit rate average= 0.05075
	minimum = 0.0385 (at node 7)
	maximum = 0.061 (at node 0)
Injected packet length average = 1
Accepted packet length average = 1
Total in-flight flits = 13 (0 measured)
latency change    = 0.0130297
throughput change = 0.0307882
Class 0:
Packet latency average = 19.0217
	minimum = 7
	maximum = 45
Network latency average = 19.0217
	minimum = 7
	maximum = 45
Slowest packet = 46021
Flit latency average = 19.0217
	minimum = 7
	maximum = 45
Slowest flit = 46021
Fragmentation average = 0
	minimum = 0
	maximum = 0
Injected packet rate average = 0.0526875
	minimum = 0.045 (at node 7)
	maximum = 0.063 (at node 10)
Accepted packet rate average = 0.05175
	minimum = 0.041 (at node 13)
	maximum = 0.063 (at node 10)
Injected flit rate average = 0.0526875
	minimum = 0.045 (at node 7)
	maximum = 0.063 (at node 10)
Accepted flit rate average= 0.05175
	minimum = 0.041 (at node 13)
	maximum = 0.063 (at node 10)
Injected packet length average = 1
Accepted packet length average = 1
Total in-flight flits = 28 (0 measured)
latency change    = 0.00895707
throughput change = 0.0193237
Warmed up ...Time used is 3000 cycles
Class 0:
Packet latency average = 19.3735
	minimum = 7
	maximum = 43
Network latency average = 19.3712
	minimum = 7
	maximum = 43
Slowest packet = 46799
Flit latency average = 19.6056
	minimum = 7
	maximum = 43
Slowest flit = 46799
Fragmentation average = 0
	minimum = 0
	maximum = 0
Injected packet rate average = 0.0545
	minimum = 0.036 (at node 5)
	maximum = 0.064 (at node 0)
Accepted packet rate average = 0.055625
	minimum = 0.035 (at node 5)
	maximum = 0.066 (at node 0)
Injected flit rate average = 0.0545
	minimum = 0.036 (at node 5)
	maximum = 0.064 (at node 0)
Accepted flit rate average= 0.055625
	minimum = 0.035 (at node 5)
	maximum = 0.066 (at node 0)
Injected packet length average = 1
Accepted packet length average = 1
Total in-flight flits = 10 (10 measured)
latency change    = 0.0181593
throughput change = 0.0696629
Class 0:
Packet latency average = 19.6127
	minimum = 7
	maximum = 44
Network latency average = 19.6108
	minimum = 7
	maximum = 44
Slowest packet = 47795
Flit latency average = 19.7317
	minimum = 7
	maximum = 44
Slowest flit = 47795
Fragmentation average = 0
	minimum = 0
	maximum = 0
Injected packet rate average = 0.0518125
	minimum = 0.039 (at node 5)
	maximum = 0.0645 (at node 0)
Accepted packet rate average = 0.0521875
	minimum = 0.0385 (at node 5)
	maximum = 0.065 (at node 0)
Injected flit rate average = 0.0518125
	minimum = 0.039 (at node 5)
	maximum = 0.0645 (at node 0)
Accepted flit rate average= 0.0521875
	minimum = 0.0385 (at node 5)
	maximum = 0.065 (at node 0)
Injected packet length average = 1
Accepted packet length average = 1
Total in-flight flits = 16 (16 measured)
latency change    = 0.012192
throughput change = 0.0658683
Class 0:
Packet latency average = 19.5994
	minimum = 7
	maximum = 44
Network latency average = 19.5982
	minimum = 7
	maximum = 44
Slowest packet = 47795
Flit latency average = 19.6797
	minimum = 7
	maximum = 44
Slowest flit = 47795
Fragmentation average = 0
	minimum = 0
	maximum = 0
Injected packet rate average = 0.0512292
	minimum = 0.0426667 (at node 5)
	maximum = 0.0583333 (at node 0)
Accepted packet rate average = 0.0517083
	minimum = 0.0426667 (at node 5)
	maximum = 0.059 (at node 0)
Injected flit rate average = 0.0512292
	minimum = 0.0426667 (at node 5)
	maximum = 0.0583333 (at node 0)
Accepted flit rate average= 0.0517083
	minimum = 0.0426667 (at node 5)
	maximum = 0.059 (at node 0)
Injected packet length average = 1
Accepted packet length average = 1
Total in-flight flits = 5 (5 measured)
latency change    = 0.000675427
throughput change = 0.00926672
Class 0:
Packet latency average = 19.6073
	minimum = 7
	maximum = 44
Network latency average = 19.6063
	minimum = 7
	maximum = 44
Slowest packet = 47795
Flit latency average = 19.6684
	minimum = 7
	maximum = 44
Slowest flit = 47795
Fragmentation average = 0
	minimum = 0
	maximum = 0
Injected packet rate average = 0.0506094
	minimum = 0.04325 (at node 5)
	maximum = 0.0565 (at node 13)
Accepted packet rate average = 0.0508438
	minimum = 0.04275 (at node 5)
	maximum = 0.057 (at node 7)
Injected flit rate average = 0.0506094
	minimum = 0.04325 (at node 5)
	maximum = 0.0565 (at node 13)
Accepted flit rate average= 0.0508438
	minimum = 0.04275 (at node 5)
	maximum = 0.057 (at node 7)
Injected packet length average = 1
Accepted packet length average = 1
Total in-flight flits = 13 (13 measured)
latency change    = 0.000399039
throughput change = 0.0170047
Class 0:
Packet latency average = 19.588
	minimum = 7
	maximum = 44
Network latency average = 19.5872
	minimum = 7
	maximum = 44
Slowest packet = 47795
Flit latency average = 19.6378
	minimum = 7
	maximum = 44
Slowest flit = 47795
Fragmentation average = 0
	minimum = 0
	maximum = 0
Injected packet rate average = 0.0499375
	minimum = 0.0444 (at node 12)
	maximum = 0.0558 (at node 13)
Accepted packet rate average = 0.050075
	minimum = 0.045 (at node 3)
	maximum = 0.056 (at node 7)
Injected flit rate average = 0.0499375
	minimum = 0.0444 (at node 12)
	maximum = 0.0558 (at node 13)
Accepted flit rate average= 0.050075
	minimum = 0.045 (at node 3)
	maximum = 0.056 (at node 7)
Injected packet length average = 1
Accepted packet length average = 1
Total in-flight flits = 17 (17 measured)
latency change    = 0.000983749
throughput change = 0.015352
Draining all recorded packets ...
Draining remaining packets ...
Time taken is 8057 cycles
Class 0:
Packet latency average = 18.8212
	minimum = 7
	maximum = 38
Network latency average = 18.8212
	minimum = 7
	maximum = 38
Slowest packet = 50805
Flit latency average = 18.8212
	minimum = 7
	maximum = 38
Slowest flit = 50805
Fragmentation average = 0
	minimum = 0
	maximum = 0
Injected packet rate average = 0.0490625
	minimum = 0.038 (at node 12)
	maximum = 0.064 (at node 6)
Accepted packet rate average = 0.04825
	minimum = 0.036 (at node 3)
	maximum = 0.064 (at node 9)
Injected flit rate average = 0.0490625
	minimum = 0.038 (at node 12)
	maximum = 0.064 (at node 6)
Accepted flit rate average= 0.04825
	minimum = 0.036 (at node 3)
	maximum = 0.064 (at node 9)
Injected packet length average = 1
Accepted packet length average = 1
Total in-flight flits = 13 (0 measured)
latency change    = 1
throughput change = 1
Class 0:
Packet latency average = 18.9502
	minimum = 7
	maximum = 39
Network latency average = 18.9502
	minimum = 7
	maximum = 39
Slowest packet = 52108
Flit latency average = 18.9502
	minimum = 7
	maximum = 39
Slowest flit = 52108
Fragmentation average = 0
	minimum = 0
	maximum = 0
Injected packet rate average = 0.0495312
	minimum = 0.0405 (at node 2)
	maximum = 0.058 (at node 11)
Accepted packet rate average = 0.0489687
	minimum = 0.039 (at node 8)
	maximum = 0.0575 (at node 14)
Injected flit rate average = 0.0495312
	minimum = 0.0405 (at node 2)
	maximum = 0.058 (at node 11)
Accepted flit rate average= 0.0489687
	minimum = 0.039 (at node 8)
	maximum = 0.0575 (at node 14)
Injected packet length average = 1
Accepted packet length average = 1
Total in-flight flits = 18 (0 measured)
latency change    = 0.00680624
throughput change = 0.0146777
Class 0:
Packet latency average = 19.9018
	minimum = 7
	maximum = 42
Network latency average = 19.9018
	minimum = 7
	maximum = 42
Slowest packet = 52565
Flit latency average = 19.9018
	minimum = 7
	maximum = 42
Slowest flit = 52565
Fragmentation average = 0
	minimum = 0
	maximum = 0
Injected packet rate average = 0.0474375
	minimum = 0.036 (at node 4)
	maximum = 0.064 (at node 8)
Accepted packet rate average = 0.04775
	minimum = 0.037 (at node 1)
	maximum = 0.065 (at node 2)
Injected flit rate average = 0.0474375
	minimum = 0.036 (at node 4)
	maximum = 0.064 (at node 8)
Accepted flit rate average= 0.04775
	minimum = 0.037 (at node 1)
	maximum = 0.065 (at node 2)
Injected packet length average = 1
Accepted packet length average = 1
Total in-flight flits = 13 (0 measured)
latency change    = 0.0478151
throughput change = 0.0255236
Warmed up ...Time used is 3000 cycles
Class 0:
Packet latency average = 19.4224
	minimum = 7
	maximum = 42
Network latency average = 19.4224
	minimum = 7
	maximum = 42
Slowest packet = 53724
Flit latency average = 19.555
	minimum = 7
	maximum = 42
Slowest flit = 53724
Fragmentation average = 0
	minimum = 0
	maximum = 0
Injected packet rate average = 0.051125
	minimum = 0.043 (at node 5)
	maximum = 0.063 (at node 14)
Accepted packet rate average = 0.051125
	minimum = 0.043 (at node 1)
	maximum = 0.063 (at node 11)
Injected flit rate average = 0.051125
	minimum = 0.043 (at node 5)
	maximum = 0.063 (at node 14)
Accepted flit rate average= 0.051125
	minimum = 0.043 (at node 1)
	maximum = 0.063 (at node 11)
Injected packet length average = 1
Accepted packet length average = 1
Total in-flight flits = 13 (13 measured)
latency change    = 0.0246866
throughput change = 0.0660147
Class 0:
Packet latency average = 19.4451
	minimum = 7
	maximum = 44
Network latency average = 19.4451
	minimum = 7
	maximum = 44
Slowest packet = 54177
Flit latency average = 19.5136
	minimum = 7
	maximum = 44
Slowest flit = 54177
Fragmentation average = 0
	minimum = 0
	maximum = 0
Injected packet rate average = 0.049375
	minimum = 0.0405 (at node 9)
	maximum = 0.057 (at node 11)
Accepted packet rate average = 0.0493437
	minimum = 0.0415 (at node 6)
	maximum = 0.0565 (at node 9)
Injected flit rate average = 0.049375
	minimum = 0.0405 (at node 9)
	maximum = 0.057 (at node 11)
Accepted flit rate average= 0.0493437
	minimum = 0.0415 (at node 6)
	maximum = 0.0565 (at node 9)
Injected packet length average = 1
Accepted packet length average = 1
Total in-flight flits = 14 (14 measured)
latency change    = 0.00116856
throughput change = 0.0360988
Class 0:
Packet latency average = 19.36
	minimum = 7
	maximum = 44
Network latency average = 19.36
	minimum = 7
	maximum = 44
Slowest packet = 54177
Flit latency average = 19.4062
	minimum = 7
	maximum = 44
Slowest flit = 54177
Fragmentation average = 0
	minimum = 0
	maximum = 0
Injected packet rate average = 0.0495
	minimum = 0.0426667 (at node 9)
	maximum = 0.0556667 (at node 1)
Accepted packet rate average = 0.0492917
	minimum = 0.043 (at node 6)
	maximum = 0.0553333 (at node 4)
Injected flit rate average = 0.0495
	minimum = 0.0426667 (at node 9)
	maximum = 0.0556667 (at node 1)
Accepted flit rate average= 0.0492917
	minimum = 0.043 (at node 6)
	maximum = 0.0553333 (at node 4)
Injected packet length average = 1
Accepted packet length average = 1
Total in-flight flits = 23 (23 measured)
latency change    = 0.00439655
throughput change = 0.00105664
Class 0:
Packet latency average = 19.3082
	minimum = 7
	maximum = 44
Network latency average = 19.3082
	minimum = 7
	maximum = 44
Slowest packet = 54177
Flit latency average = 19.3429
	minimum = 7
	maximum = 44
Slowest flit = 54177
Fragmentation average = 0
	minimum = 0
	maximum = 0
Injected packet rate average = 0.0493906
	minimum = 0.04375 (at node 5)
	maximum = 0.05525 (at node 15)
Accepted packet rate average = 0.0494375
	minimum = 0.044 (at node 5)
	maximum = 0.055 (at node 15)
Injected flit rate average = 0.0493906
	minimum = 0.04375 (at node 5)
	maximum = 0.05525 (at node 15)
Accepted flit rate average= 0.0494375
	minimum = 0.044 (at node 5)
	maximum = 0.055 (at node 15)
Injected packet length average = 1
Accepted packet length average = 1
Total in-flight flits = 10 (10 measured)
latency change    = 0.00268331
throughput change = 0.00294985
Draining all recorded packets ...
Draining remaining packets ...
Time taken is 7051 cycles
Class 0:
Packet latency average = 19.636
	minimum = 7
	maximum = 41
Network latency average = 19.636
	minimum = 7
	maximum = 41
Slowest packet = 56734
Flit latency average = 19.636
	minimum = 7
	maximum = 41
Slowest flit = 56734
Fragmentation average = 0
	minimum = 0
	maximum = 0
Injected packet rate average = 0.049875
	minimum = 0.037 (at node 10)
	maximum = 0.063 (at node 0)
Accepted packet rate average = 0.0489375
	minimum = 0.037 (at node 10)
	maximum = 0.063 (at node 0)
Injected flit rate average = 0.049875
	minimum = 0.037 (at node 10)
	maximum = 0.063 (at node 0)
Accepted flit rate average= 0.0489375
	minimum = 0.037 (at node 10)
	maximum = 0.063 (at node 0)
Injected packet length average = 1
Accepted packet length average = 1
Total in-flight flits = 15 (0 measured)
latency change    = 1
throughput change = 1
Class 0:
Packet latency average = 19.4169
	minimum = 7
	maximum = 43
Network latency average = 19.4169
	minimum = 7
	maximum = 43
Slowest packet = 57375
Flit latency average = 19.4169
	minimum = 7
	maximum = 43
Slowest flit = 57375
Fragmentation average = 0
	minimum = 0
	maximum = 0
Injected packet rate average = 0.04925
	minimum = 0.041 (at node 10)
	maximum = 0.065 (at node 0)
Accepted packet rate average = 0.0487187
	minimum = 0.0405 (at node 10)
	maximum = 0.0645 (at node 0)
Injected flit rate average = 0.04925
	minimum = 0.041 (at node 10)
	maximum = 0.065 (at node 0)
Accepted flit rate average= 0.0487187
	minimum = 0.0405 (at node 10)
	maximum = 0.0645 (at node 0)
Injected packet length average = 1
Accepted packet length average = 1
Total in-flight flits = 17 (0 measured)
latency change    = 0.011283
throughput change = 0.00449006
Class 0:
Packet latency average = 19.9099
	minimum = 7
	maximum = 43
Network latency average = 19.9099
	minimum = 7
	maximum = 43
Slowest packet = 58379
Flit latency average = 19.9099
	minimum = 7
	maximum = 43
Slowest flit = 58379
Fragmentation average = 0
	minimum = 0
	maximum = 0
Injected packet rate average = 0.0491875
	minimum = 0.039 (at node 1)
	maximum = 0.069 (at node 13)
Accepted packet rate average = 0.04925
	minimum = 0.039 (at node 3)
	maximum = 0.067 (at node 7)
Injected flit rate average = 0.0491875
	minimum = 0.039 (at node 1)
	maximum = 0.069 (at node 13)
Accepted flit rate average= 0.04925
	minimum = 0.039 (at node 3)
	maximum = 0.067 (at node 7)
Injected packet length average = 1
Accepted packet length average = 1
Total in-flight flits = 16 (0 measured)
latency change    = 0.0247598
throughput change = 0.0107868
Warmed up ...Time used is 3000 cycles
Class 0:
Packet latency average = 19.8571
	minimum = 7
	maximum = 42
Network latency average = 19.8571
	minimum = 7
	maximum = 42
Slowest packet = 59079
Flit latency average = 19.9398
	minimum = 7
	maximum = 42
Slowest flit = 59079
Fragmentation average = 0
	minimum = 0
	maximum = 0
Injected packet rate average = 0.0511875
	minimum = 0.035 (at node 13)
	maximum = 0.063 (at node 7)
Accepted packet rate average = 0.050875
	minimum = 0.036 (at node 7)
	maximum = 0.06 (at node 6)
Injected flit rate average = 0.0511875
	minimum = 0.035 (at node 13)
	maximum = 0.063 (at node 7)
Accepted flit rate average= 0.050875
	minimum = 0.036 (at node 7)
	maximum = 0.06 (at node 6)
Injected packet length average = 1
Accepted packet length average = 1
Total in-flight flits = 21 (21 measured)
latency change    = 0.00265676
throughput change = 0.031941
Class 0:
Packet latency average = 19.5076
	minimum = 7
	maximum = 42
Network latency average = 19.5076
	minimum = 7
	maximum = 42
Slowest packet = 59079
Flit latency average = 19.5533
	minimum = 7
	maximum = 42
Slowest flit = 59079
Fragmentation average = 0
	minimum = 0
	maximum = 0
Injected packet rate average = 0.0498125
	minimum = 0.044 (at node 13)
	maximum = 0.061 (at node 7)
Accepted packet rate average = 0.049875
	minimum = 0.0445 (at node 9)
	maximum = 0.0595 (at node 13)
Injected flit rate average = 0.0498125
	minimum = 0.044 (at node 13)
	maximum = 0.061 (at node 7)
Accepted flit rate average= 0.049875
	minimum = 0.0445 (at node 9)
	maximum = 0.0595 (at node 13)
Injected packet length average = 1
Accepted packet length average = 1
Total in-flight flits = 14 (14 measured)
latency change    = 0.0179186
throughput change = 0.0200501
Class 0:
Packet latency average = 19.454
	minimum = 7
	maximum = 42
Network latency average = 19.454
	minimum = 7
	maximum = 42
Slowest packet = 59079
Flit latency average = 19.4846
	minimum = 7
	maximum = 42
Slowest flit = 59079
Fragmentation average = 0
	minimum = 0
	maximum = 0
Injected packet rate average = 0.0503125
	minimum = 0.0443333 (at node 15)
	maximum = 0.057 (at node 0)
Accepted packet rate average = 0.0501667
	minimum = 0.0436667 (at node 15)
	maximum = 0.0563333 (at node 0)
Injected flit rate average = 0.0503125
	minimum = 0.0443333 (at node 15)
	maximum = 0.057 (at node 0)
Accepted flit rate average= 0.0501667
	minimum = 0.0436667 (at node 15)
	maximum = 0.0563333 (at node 0)
Injected packet length average = 1
Accepted packet length average = 1
Total in-flight flits = 23 (23 measured)
latency change    = 0.00275427
throughput change = 0.00581395
Draining all recorded packets ...
Draining remaining packets ...
Time taken is 6073 cycles
Class 0:
Packet latency average = 19.396
	minimum = 7
	maximum = 39
Network latency average = 19.396
	minimum = 7
	maximum = 39
Slowest packet = 61421
Flit latency average = 19.396
	minimum = 7
	maximum = 39
Slowest flit = 61421
Fragmentation average = 0
	minimum = 0
	maximum = 0
Injected packet rate average = 0.050875
	minimum = 0.041 (at node 4)
	maximum = 0.064 (at node 11)
Accepted packet rate average = 0.049875
	minimum = 0.039 (at node 3)
	maximum = 0.062 (at node 14)
Injected flit rate average = 0.050875
	minimum = 0.041 (at node 4)
	maximum = 0.064 (at node 11)
Accepted flit rate average= 0.049875
	minimum = 0.039 (at node 3)
	maximum = 0.062 (at node 14)
Injected packet length average = 1
Accepted packet length average = 1
Total in-flight flits = 16 (0 measured)
latency change    = 1
throughput change = 1
Class 0:
Packet latency average = 19.5275
	minimum = 7
	maximum = 41
Network latency average = 19.5275
	minimum = 7
	maximum = 41
Slowest packet = 62038
Flit latency average = 19.5275
	minimum = 7
	maximum = 41
Slowest flit = 62038
Fragmentation average = 0
	minimum = 0
	maximum = 0
Injected packet rate average = 0.0514375
	minimum = 0.043 (at node 12)
	maximum = 0.0605 (at node 1)
Accepted packet rate average = 0.051125
	minimum = 0.043 (at node 3)
	maximum = 0.0605 (at node 4)
Injected flit rate average = 0.0514375
	minimum = 0.043 (at node 12)
	maximum = 0.0605 (at node 1)
Accepted flit rate average= 0.051125
	minimum = 0.043 (at node 3)
	maximum = 0.0605 (at node 4)
Injected packet length average = 1
Accepted packet length average = 1
Total in-flight flits = 10 (0 measured)
latency change    = 0.00673492
throughput change = 0.0244499
Class 0:
Packet latency average = 19.725
	minimum = 7
	maximum = 44
Network latency average = 19.725
	minimum = 7
	maximum = 44
Slowest packet = 62745
Flit latency average = 19.725
	minimum = 7
	maximum = 44
Slowest flit = 62745
Fragmentation average = 0
	minimum = 0
	maximum = 0
Injected packet rate average = 0.053125
	minimum = 0.042 (at node 3)
	maximum = 0.066 (at node 8)
Accepted packet rate average = 0.0525
	minimum = 0.041 (at node 7)
	maximum = 0.067 (at node 2)
Injected flit rate average = 0.053125
	minimum = 0.042 (at node 3)
	maximum = 0.066 (at node 8)
Accepted flit rate average= 0.0525
	minimum = 0.041 (at node 7)
	maximum = 0.067 (at node 2)
Injected packet length average = 1
Accepted packet length average = 1
Total in-flight flits = 20 (0 measured)
latency change    = 0.0100124
throughput change = 0.0261905
Warmed up ...Time used is 3000 cycles
Class 0:
Packet latency average = 19.203
	minimum = 7
	maximum = 43
Network latency average = 19.203
	minimum = 7
	maximum = 43
Slowest packet = 63824
Flit latency average = 19.2617
	minimum = 7
	maximum = 43
Slowest flit = 63824
Fragmentation average = 0
	minimum = 0
	maximum = 0
Injected packet rate average = 0.05175
	minimum = 0.035 (at node 13)
	maximum = 0.068 (at node 11)
Accepted packet rate average = 0.0520625
	minimum = 0.037 (at node 7)
	maximum = 0.068 (at node 14)
Injected flit rate average = 0.05175
	minimum = 0.035 (at node 13)
	maximum = 0.068 (at node 11)
Accepted flit rate average= 0.0520625
	minimum = 0.037 (at node 7)
	maximum = 0.068 (at node 14)
Injected packet length average = 1
Accepted packet length average = 1
Total in-flight flits = 15 (15 measured)
latency change    = 0.0271858
throughput change = 0.00840336
Class 0:
Packet latency average = 19.5115
	minimum = 7
	maximum = 44
Network latency average = 19.5115
	minimum = 7
	maximum = 44
Slowest packet = 64639
Flit latency average = 19.5372
	minimum = 7
	maximum = 44
Slowest flit = 64639
Fragmentation average = 0
	minimum = 0
	maximum = 0
Injected packet rate average = 0.0520313
	minimum = 0.043 (at node 6)
	maximum = 0.065 (at node 11)
Accepted packet rate average = 0.0520625
	minimum = 0.0425 (at node 9)
	maximum = 0.065 (at node 14)
Injected flit rate average = 0.0520313
	minimum = 0.043 (at node 6)
	maximum = 0.065 (at node 11)
Accepted flit rate average= 0.0520625
	minimum = 0.0425 (at node 9)
	maximum = 0.065 (at node 14)
Injected packet length average = 1
Accepted packet length average = 1
Total in-flight flits = 19 (19 measured)
latency change    = 0.0158158
throughput change = 0
Class 0:
Packet latency average = 19.4937
	minimum = 7
	maximum = 44
Network latency average = 19.4937
	minimum = 7
	maximum = 44
Slowest packet = 64639
Flit latency average = 19.5111
	minimum = 7
	maximum = 44
Slowest flit = 64639
Fragmentation average = 0
	minimum = 0
	maximum = 0
Injected packet rate average = 0.0515417
	minimum = 0.0426667 (at node 9)
	maximum = 0.0593333 (at node 1)
Accepted packet rate average = 0.0516458
	minimum = 0.043 (at node 9)
	maximum = 0.06 (at node 4)
Injected flit rate average = 0.0515417
	minimum = 0.0426667 (at node 9)
	maximum = 0.0593333 (at node 1)
Accepted flit rate average= 0.0516458
	minimum = 0.043 (at node 9)
	maximum = 0.06 (at node 4)
Injected packet length average = 1
Accepted packet length average = 1
Total in-flight flits = 15 (15 measured)
latency change    = 0.000915502
throughput change = 0.00806777
Draining all recorded packets ...
Draining remaining packets ...
Time taken is 6058 cycles
Class 0:
Packet latency average = 18.3878
	minimum = 7
	maximum = 39
Network latency average = 18.3878
	minimum = 7
	maximum = 39
Slowest packet = 66455
Flit latency average = 18.3878
	minimum = 7
	maximum = 39
Slowest flit = 66455
Fragmentation average = 0
	minimum = 0
	maximum = 0
Injected packet rate average = 0.0501875
	minimum = 0.033 (at node 3)
	maximum = 0.077 (at node 5)
Accepted packet rate average = 0.0493125
	minimum = 0.032 (at node 12)
	maximum = 0.077 (at node 5)
Injected flit rate average = 0.0501875
	minimum = 0.033 (at node 3)
	maximum = 0.077 (at node 5)
Accepted flit rate average= 0.0493125
	minimum = 0.032 (at node 12)
	maximum = 0.077 (at node 5)
Injected packet length average = 1
Accepted packet length average = 1
Total in-flight flits = 14 (0 measured)
latency change    = 1
throughput change = 1
Class 0:
Packet latency average = 19.0383
	minimum = 7
	maximum = 41
Network latency average = 19.0383
	minimum = 7
	maximum = 41
Slowest packet = 67231
Flit latency average = 19.0383
	minimum = 7
	maximum = 41
Slowest flit = 67231
Fragmentation average = 0
	minimum = 0
	maximum = 0
Injected packet rate average = 0.0490937
	minimum = 0.04 (at node 14)
	maximum = 0.0625 (at node 5)
Accepted packet rate average = 0.0489062
	minimum = 0.0395 (at node 11)
	maximum = 0.0625 (at node 5)
Injected flit rate average = 0.0490937
	minimum = 0.04 (at node 14)
	maximum = 0.0625 (at node 5)
Accepted flit rate average= 0.0489062
	minimum = 0.0395 (at node 11)
	maximum = 0.0625 (at node 5)
Injected packet length average = 1
Accepted packet length average = 1
Total in-flight flits = 6 (0 measured)
latency change    = 0.0341682
throughput change = 0.00830671
Class 0:
Packet latency average = 19.4922
	minimum = 7
	maximum = 44
Network latency average = 19.4922
	minimum = 7
	maximum = 44
Slowest packet = 67935
Flit latency average = 19.4922
	minimum = 7
	maximum = 44
Slowest flit = 67935
Fragmentation average = 0
	minimum = 0
	maximum = 0
Injected packet rate average = 0.0490625
	minimum = 0.034 (at node 3)
	maximum = 0.065 (at node 7)
Accepted packet rate average = 0.048375
	minimum = 0.035 (at node 12)
	maximum = 0.064 (at node 13)
Injected flit rate average = 0.0490625
	minimum = 0.034 (at node 3)
	maximum = 0.065 (at node 7)
Accepted flit rate average= 0.048375
	minimum = 0.035 (at node 12)
	maximum = 0.064 (at node 13)
Injected packet length average = 1
Accepted packet length average = 1
Total in-flight flits = 17 (0 measured)
latency change    = 0.0232867
throughput change = 0.0109819
Warmed up ...Time used is 3000 cycles
Class 0:
Packet latency average = 19.3137
	minimum = 7
	maximum = 39
Network latency average = 19.3137
	minimum = 7
	maximum = 39
Slowest packet = 68377
Flit latency average = 19.4744
	minimum = 7
	maximum = 40
Slowest flit = 68290
Fragmentation average = 0
	minimum = 0
	maximum = 0
Injected packet rate average = 0.049125
	minimum = 0.045 (at node 10)
	maximum = 0.057 (at node 11)
Accepted packet rate average = 0.048875
	minimum = 0.043 (at node 12)
	maximum = 0.058 (at node 14)
Injected flit rate average = 0.049125
	minimum = 0.045 (at node 10)
	maximum = 0.057 (at node 11)
Accepted flit rate average= 0.048875
	minimum = 0.043 (at node 12)
	maximum = 0.058 (at node 14)
Injected packet length average = 1
Accepted packet length average = 1
Total in-flight flits = 21 (21 measured)
latency change    = 0.0092433
throughput change = 0.0102302
Class 0:
Packet latency average = 19.3494
	minimum = 7
	maximum = 42
Network latency average = 19.3494
	minimum = 7
	maximum = 42
Slowest packet = 69150
Flit latency average = 19.4267
	minimum = 7
	maximum = 42
Slowest flit = 69150
Fragmentation average = 0
	minimum = 0
	maximum = 0
Injected packet rate average = 0.050625
	minimum = 0.0435 (at node 8)
	maximum = 0.058 (at node 11)
Accepted packet rate average = 0.0505312
	minimum = 0.044 (at node 12)
	maximum = 0.058 (at node 14)
Injected flit rate average = 0.050625
	minimum = 0.0435 (at node 8)
	maximum = 0.058 (at node 11)
Accepted flit rate average= 0.0505312
	minimum = 0.044 (at node 12)
	maximum = 0.058 (at node 14)
Injected packet length average = 1
Accepted packet length average = 1
Total in-flight flits = 20 (20 measured)
latency change    = 0.00184241
throughput change = 0.0327767
Class 0:
Packet latency average = 19.4778
	minimum = 7
	maximum = 43
Network latency average = 19.4778
	minimum = 7
	maximum = 43
Slowest packet = 70052
Flit latency average = 19.5284
	minimum = 7
	maximum = 43
Slowest flit = 70052
Fragmentation average = 0
	minimum = 0
	maximum = 0
Injected packet rate average = 0.0505
	minimum = 0.0453333 (at node 8)
	maximum = 0.0583333 (at node 11)
Accepted packet rate average = 0.050625
	minimum = 0.0453333 (at node 2)
	maximum = 0.0586667 (at node 14)
Injected flit rate average = 0.0505
	minimum = 0.0453333 (at node 8)
	maximum = 0.0583333 (at node 11)
Accepted flit rate average= 0.050625
	minimum = 0.0453333 (at node 2)
	maximum = 0.0586667 (at node 14)
Injected packet length average = 1
Accepted packet length average = 1
Total in-flight flits = 11 (11 measured)
latency change    = 0.00659485
throughput change = 0.00185185
Draining all recorded packets ...
Draining remaining packets ...
Time taken is 6073 cycles
Class 0:
Packet latency average = 20.2516
	minimum = 7
	maximum = 42
Network latency average = 20.2516
	minimum = 7
	maximum = 42
Slowest packet = 70982
Flit latency average = 20.2516
	minimum = 7
	maximum = 42
Slowest flit = 70982
Fragmentation average = 0
	minimum = 0
	maximum = 0
Injected packet rate average = 0.0488125
	minimum = 0.039 (at node 7)
	maximum = 0.063 (at node 12)
Accepted packet rate average = 0.0481875
	minimum = 0.039 (at node 13)
	maximum = 0.061 (at node 2)
Injected flit rate average = 0.0488125
	minimum = 0.039 (at node 7)
	maximum = 0.063 (at node 12)
Accepted flit rate average= 0.0481875
	minimum = 0.039 (at node 13)
	maximum = 0.061 (at node 2)
Injected packet length average = 1
Accepted packet length average = 1
Total in-flight flits = 10 (0 measured)
latency change    = 1
throughput change = 1
Class 0:
Packet latency average = 19.6611
	minimum = 7
	maximum = 42
Network latency average = 19.6611
	minimum = 7
	maximum = 42
Slowest packet = 70982
Flit latency average = 19.6611
	minimum = 7
	maximum = 42
Slowest flit = 70982
Fragmentation average = 0
	minimum = 0
	maximum = 0
Injected packet rate average = 0.048875
	minimum = 0.0415 (at node 7)
	maximum = 0.0545 (at node 3)
Accepted packet rate average = 0.0485
	minimum = 0.0415 (at node 13)
	maximum = 0.054 (at node 7)
Injected flit rate average = 0.048875
	minimum = 0.0415 (at node 7)
	maximum = 0.0545 (at node 3)
Accepted flit rate average= 0.0485
	minimum = 0.0415 (at node 13)
	maximum = 0.054 (at node 7)
Injected packet length average = 1
Accepted packet length average = 1
Total in-flight flits = 12 (0 measured)
latency change    = 0.0300359
throughput change = 0.0064433
Class 0:
Packet latency average = 19.8037
	minimum = 7
	maximum = 46
Network latency average = 19.8037
	minimum = 7
	maximum = 46
Slowest packet = 72880
Flit latency average = 19.8037
	minimum = 7
	maximum = 46
Slowest flit = 72880
Fragmentation average = 0
	minimum = 0
	maximum = 0
Injected packet rate average = 0.0508125
	minimum = 0.042 (at node 9)
	maximum = 0.058 (at node 2)
Accepted packet rate average = 0.050625
	minimum = 0.042 (at node 6)
	maximum = 0.057 (at node 8)
Injected flit rate average = 0.0508125
	minimum = 0.042 (at node 9)
	maximum = 0.058 (at node 2)
Accepted flit rate average= 0.050625
	minimum = 0.042 (at node 6)
	maximum = 0.057 (at node 8)
Injected packet length average = 1
Accepted packet length average = 1
Total in-flight flits = 15 (0 measured)
latency change    = 0.00720175
throughput change = 0.0419753
Warmed up ...Time used is 3000 cycles
Class 0:
Packet latency average = 20.1632
	minimum = 7
	maximum = 42
Network latency average = 20.1632
	minimum = 7
	maximum = 42
Slowest packet = 73160
Flit latency average = 20.2872
	minimum = 7
	maximum = 42
Slowest flit = 73160
Fragmentation average = 0
	minimum = 0
	maximum = 0
Injected packet rate average = 0.04925
	minimum = 0.031 (at node 10)
	maximum = 0.057 (at node 2)
Accepted packet rate average = 0.0491875
	minimum = 0.031 (at node 10)
	maximum = 0.058 (at node 8)
Injected flit rate average = 0.04925
	minimum = 0.031 (at node 10)
	maximum = 0.057 (at node 2)
[...]
Accepted packet rate average = 0.046875
	minimum = 0.039 (at node 5)
	maximum = 0.065 (at node 14)
Injected flit rate average = 0.047125
	minimum = 0.039 (at node 5)
	maximum = 0.067 (at node 11)
Accepted flit rate average= 0.046875
	minimum = 0.039 (at node 5)
	maximum = 0.065 (at node 14)
Injected packet length average = 1
Accepted packet length average = 1
Total in-flight flits = 18 (0 measured)
latency change    = 0.00803699
throughput change = 0.066
Warmed up ...Time used is 3000 cycles
Class 0:
Packet latency average = 18.9611
	minimum = 7
	maximum = 41
Network latency average = 18.9611
	minimum = 7
	maximum = 41
Slowest packet = 504952
Flit latency average = 19.1636
	minimum = 7
	maximum = 41
Slowest flit = 504952
Fragmentation average = 0
	minimum = 0
	maximum = 0
Injected packet rate average = 0.047875
	minimum = 0.035 (at node 3)
	maximum = 0.063 (at node 11)
Accepted packet rate average = 0.04775
	minimum = 0.035 (at node 1)
	maximum = 0.064 (at node 14)
Injected flit rate average = 0.047875
	minimum = 0.035 (at node 3)
	maximum = 0.063 (at node 11)
Accepted flit rate average= 0.04775
	minimum = 0.035 (at node 1)
	maximum = 0.064 (at node 14)
Injected packet length average = 1
Accepted packet length average = 1
Total in-flight flits = 20 (20 measured)
latency change    = 0.0241305
throughput change = 0.0183246
Class 0:
Packet latency average = 19.4109
	minimum = 7
	maximum = 41
Network latency average = 19.4109
	minimum = 7
	maximum = 41
Slowest packet = 504952
Flit latency average = 19.5062
	minimum = 7
	maximum = 41
Slowest flit = 504952
Fragmentation average = 0
	minimum = 0
	maximum = 0
Injected packet rate average = 0.0477812
	minimum = 0.04 (at node 2)
	maximum = 0.0555 (at node 13)
Accepted packet rate average = 0.0480937
	minimum = 0.04 (at node 1)
	maximum = 0.0575 (at node 7)
Injected flit rate average = 0.0477812
	minimum = 0.04 (at node 2)
	maximum = 0.0555 (at node 13)
Accepted flit rate average= 0.0480937
	minimum = 0.04 (at node 1)
	maximum = 0.0575 (at node 7)
Injected packet length average = 1
Accepted packet length average = 1
Total in-flight flits = 8 (8 measured)
latency change    = 0.0231719
throughput change = 0.0071475
Class 0:
Packet latency average = 19.3711
	minimum = 7
	maximum = 42
Network latency average = 19.3711
	minimum = 7
	maximum = 42
Slowest packet = 506629
Flit latency average = 19.4336
	minimum = 7
	maximum = 42
Slowest flit = 506629
Fragmentation average = 0
	minimum = 0
	maximum = 0
Injected packet rate average = 0.0490208
	minimum = 0.0393333 (at node 3)
	maximum = 0.0563333 (at node 13)
Accepted packet rate average = 0.0491042
	minimum = 0.0396667 (at node 12)
	maximum = 0.0566667 (at node 7)
Injected flit rate average = 0.0490208
	minimum = 0.0393333 (at node 3)
	maximum = 0.0563333 (at node 13)
Accepted flit rate average= 0.0491042
	minimum = 0.0396667 (at node 12)
	maximum = 0.0566667 (at node 7)
Injected packet length average = 1
Accepted packet length average = 1
Total in-flight flits = 14 (14 measured)
latency change    = 0.00205539
throughput change = 0.020577
Draining all recorded packets ...
Draining remaining packets ...
Time taken is 6060 cycles
Class 0:
Packet latency average = 19.7104
	minimum = 7
	maximum = 43
Network latency average = 19.7104
	minimum = 7
	maximum = 43
Slowest packet = 507007
Flit latency average = 19.7104
	minimum = 7
	maximum = 43
Slowest flit = 507007
Fragmentation average = 0
	minimum = 0
	maximum = 0
Injected packet rate average = 0.0515625
	minimum = 0.038 (at node 11)
	maximum = 0.063 (at node 7)
Accepted packet rate average = 0.0505
	minimum = 0.038 (at node 14)
	maximum = 0.061 (at node 13)
Injected flit rate average = 0.0515625
	minimum = 0.038 (at node 11)
	maximum = 0.063 (at node 7)
Accepted flit rate average= 0.0505
	minimum = 0.038 (at node 14)
	maximum = 0.061 (at node 13)
Injected packet length average = 1
Accepted packet length average = 1
Total in-flight flits = 17 (0 measured)
latency change    = 1
throughput change = 1
Class 0:
Packet latency average = 19.6734
	minimum = 7
	maximum = 43
Network latency average = 19.6734
	minimum = 7
	maximum = 43
Slowest packet = 507007
Flit latency average = 19.6734
	minimum = 7
	maximum = 43
Slowest flit = 507007
Fragmentation average = 0
	minimum = 0
	maximum = 0
Injected packet rate average = 0.0517813
	minimum = 0.043 (at node 11)
	maximum = 0.0615 (at node 7)
Accepted packet rate average = 0.051
	minimum = 0.041 (at node 14)
	maximum = 0.06 (at node 13)
Injected flit rate average = 0.0517813
	minimum = 0.043 (at node 11)
	maximum = 0.0615 (at node 7)
Accepted flit rate average= 0.051
	minimum = 0.041 (at node 14)
	maximum = 0.06 (at node 13)
Injected packet length average = 1
Accepted packet length average = 1
Total in-flight flits = 25 (0 measured)
latency change    = 0.00188016
throughput change = 0.00980392
Class 0:
Packet latency average = 19.7334
	minimum = 7
	maximum = 46
Network latency average = 19.7334
	minimum = 7
	maximum = 46
Slowest packet = 508653
Flit latency average = 19.7334
	minimum = 7
	maximum = 46
Slowest flit = 508653
Fragmentation average = 0
	minimum = 0
	maximum = 0
Injected packet rate average = 0.0499375
	minimum = 0.035 (at node 7)
	maximum = 0.06 (at node 8)
Accepted packet rate average = 0.050875
	minimum = 0.037 (at node 13)
	maximum = 0.06 (at node 6)
Injected flit rate average = 0.0499375
	minimum = 0.035 (at node 7)
	maximum = 0.06 (at node 8)
Accepted flit rate average= 0.050875
	minimum = 0.037 (at node 13)
	maximum = 0.06 (at node 6)
Injected packet length average = 1
Accepted packet length average = 1
Total in-flight flits = 10 (0 measured)
latency change    = 0.00304095
throughput change = 0.002457
Warmed up ...Time used is 3000 cycles
Class 0:
Packet latency average = 20.1156
	minimum = 7
	maximum = 48
Network latency average = 20.1156
	minimum = 7
	maximum = 48
Slowest packet = 509596
Flit latency average = 20.1863
	minimum = 7
	maximum = 48
Slowest flit = 509596
Fragmentation average = 0
	minimum = 0
	maximum = 0
Injected packet rate average = 0.0524375
	minimum = 0.043 (at node 5)
	maximum = 0.069 (at node 3)
Accepted packet rate average = 0.052
	minimum = 0.043 (at node 5)
	maximum = 0.067 (at node 12)
Injected flit rate average = 0.0524375
	minimum = 0.043 (at node 5)
	maximum = 0.069 (at node 3)
Accepted flit rate average= 0.052
	minimum = 0.043 (at node 5)
	maximum = 0.067 (at node 12)
Injected packet length average = 1
Accepted packet length average = 1
Total in-flight flits = 17 (17 measured)
latency change    = 0.018998
throughput change = 0.0216346
Class 0:
Packet latency average = 20.0586
	minimum = 7
	maximum = 48
Network latency average = 20.0586
	minimum = 7
	maximum = 48
Slowest packet = 509596
Flit latency average = 20.0954
	minimum = 7
	maximum = 48
Slowest flit = 509596
Fragmentation average = 0
	minimum = 0
	maximum = 0
Injected packet rate average = 0.0507187
	minimum = 0.042 (at node 0)
	maximum = 0.058 (at node 3)
Accepted packet rate average = 0.0504687
	minimum = 0.042 (at node 0)
	maximum = 0.058 (at node 12)
Injected flit rate average = 0.0507187
	minimum = 0.042 (at node 0)
	maximum = 0.058 (at node 3)
Accepted flit rate average= 0.0504687
	minimum = 0.042 (at node 0)
	maximum = 0.058 (at node 12)
Injected packet length average = 1
Accepted packet length average = 1
Total in-flight flits = 18 (18 measured)
latency change    = 0.00284192
throughput change = 0.0303406
Class 0:
Packet latency average = 19.9804
	minimum = 7
	maximum = 48
Network latency average = 19.9804
	minimum = 7
	maximum = 48
Slowest packet = 509596
Flit latency average = 20.0054
	minimum = 7
	maximum = 48
Slowest flit = 509596
Fragmentation average = 0
	minimum = 0
	maximum = 0
Injected packet rate average = 0.0503958
	minimum = 0.0426667 (at node 5)
	maximum = 0.058 (at node 3)
Accepted packet rate average = 0.0501875
	minimum = 0.0426667 (at node 5)
	maximum = 0.057 (at node 12)
Injected flit rate average = 0.0503958
	minimum = 0.0426667 (at node 5)
	maximum = 0.058 (at node 3)
Accepted flit rate average= 0.0501875
	minimum = 0.0426667 (at node 5)
	maximum = 0.057 (at node 12)
Injected packet length average = 1
Accepted packet length average = 1
Total in-flight flits = 20 (20 measured)
latency change    = 0.00391176
throughput change = 0.00560399
Draining all recorded packets ...
Draining remaining packets ...
Time taken is 6063 cycles
Class 0:
Packet latency average = 19.8143
	minimum = 7
	maximum = 45
Network latency average = 19.8143
	minimum = 7
	maximum = 45
Slowest packet = 512085
Flit latency average = 19.8143
	minimum = 7
	maximum = 45
Slowest flit = 512085
Fragmentation average = 0
	minimum = 0
	maximum = 0
Injected packet rate average = 0.0516875
	minimum = 0.037 (at node 9)
	maximum = 0.061 (at node 2)
Accepted packet rate average = 0.0508125
	minimum = 0.037 (at node 6)
	maximum = 0.059 (at node 8)
Injected flit rate average = 0.0516875
	minimum = 0.037 (at node 9)
	maximum = 0.061 (at node 2)
Accepted flit rate average= 0.0508125
	minimum = 0.037 (at node 6)
	maximum = 0.059 (at node 8)
Injected packet length average = 1
Accepted packet length average = 1
Total in-flight flits = 14 (0 measured)
latency change    = 1
throughput change = 1
Class 0:
Packet latency average = 20.1639
	minimum = 7
	maximum = 45
Network latency average = 20.1639
	minimum = 7
	maximum = 45
Slowest packet = 512085
Flit latency average = 20.1639
	minimum = 7
	maximum = 45
Slowest flit = 512085
Fragmentation average = 0
	minimum = 0
	maximum = 0
Injected packet rate average = 0.0496875
	minimum = 0.0395 (at node 9)
	maximum = 0.0565 (at node 3)
Accepted packet rate average = 0.0491875
	minimum = 0.0395 (at node 6)
	maximum = 0.0555 (at node 12)
Injected flit rate average = 0.0496875
	minimum = 0.0395 (at node 9)
	maximum = 0.0565 (at node 3)
Accepted flit rate average= 0.0491875
	minimum = 0.0395 (at node 6)
	maximum = 0.0555 (at node 12)
Injected packet length average = 1
Accepted packet length average = 1
Total in-flight flits = 16 (0 measured)
latency change    = 0.0173402
throughput change = 0.0330368
Class 0:
Packet latency average = 19.5232
	minimum = 7
	maximum = 41
Network latency average = 19.5232
	minimum = 7
	maximum = 41
Slowest packet = 513489
Flit latency average = 19.5232
	minimum = 7
	maximum = 41
Slowest flit = 513489
Fragmentation average = 0
	minimum = 0
	maximum = 0
Injected packet rate average = 0.051
	minimum = 0.041 (at node 4)
	maximum = 0.064 (at node 5)
Accepted packet rate average = 0.05125
	minimum = 0.044 (at node 2)
	maximum = 0.064 (at node 5)
Injected flit rate average = 0.051
	minimum = 0.041 (at node 4)
	maximum = 0.064 (at node 5)
Accepted flit rate average= 0.05125
	minimum = 0.044 (at node 2)
	maximum = 0.064 (at node 5)
Injected packet length average = 1
Accepted packet length average = 1
Total in-flight flits = 12 (0 measured)
latency change    = 0.0328196
throughput change = 0.0402439
Warmed up ...Time used is 3000 cycles
Class 0:
Packet latency average = 19.6448
	minimum = 7
	maximum = 42
Network latency average = 19.6448
	minimum = 7
	maximum = 42
Slowest packet = 514650
Flit latency average = 19.6806
	minimum = 7
	maximum = 42
Slowest flit = 514650
Fragmentation average = 0
	minimum = 0
	maximum = 0
Injected packet rate average = 0.0493125
	minimum = 0.037 (at node 9)
	maximum = 0.057 (at node 11)
Accepted packet rate average = 0.0493125
	minimum = 0.039 (at node 6)
	maximum = 0.06 (at node 14)
Injected flit rate average = 0.0493125
	minimum = 0.037 (at node 9)
	maximum = 0.057 (at node 11)
Accepted flit rate average= 0.0493125
	minimum = 0.039 (at node 6)
	maximum = 0.06 (at node 14)
Injected packet length average = 1
Accepted packet length average = 1
Total in-flight flits = 12 (12 measured)
latency change    = 0.0061908
throughput change = 0.0392902
Class 0:
Packet latency average = 19.7489
	minimum = 7
	maximum = 46
Network latency average = 19.7489
	minimum = 7
	maximum = 46
Slowest packet = 515248
Flit latency average = 19.7656
	minimum = 7
	maximum = 46
Slowest flit = 515248
Fragmentation average = 0
	minimum = 0
	maximum = 0
Injected packet rate average = 0.0505625
	minimum = 0.043 (at node 1)
	maximum = 0.059 (at node 4)
Accepted packet rate average = 0.0505312
	minimum = 0.0425 (at node 4)
	maximum = 0.0605 (at node 14)
Injected flit rate average = 0.0505625
	minimum = 0.043 (at node 1)
	maximum = 0.059 (at node 4)
Accepted flit rate average= 0.0505312
	minimum = 0.0425 (at node 4)
	maximum = 0.0605 (at node 14)
Injected packet length average = 1
Accepted packet length average = 1
Total in-flight flits = 13 (13 measured)
latency change    = 0.00527229
throughput change = 0.0241187
Class 0:
Packet latency average = 19.7248
	minimum = 7
	maximum = 47
Network latency average = 19.7248
	minimum = 7
	maximum = 47
Slowest packet = 516090
Flit latency average = 19.7361
	minimum = 7
	maximum = 47
Slowest flit = 516090
Fragmentation average = 0
	minimum = 0
	maximum = 0
Injected packet rate average = 0.0505208
	minimum = 0.0443333 (at node 8)
	maximum = 0.0583333 (at node 2)
Accepted packet rate average = 0.0504375
	minimum = 0.0446667 (at node 2)
	maximum = 0.0583333 (at node 8)
Injected flit rate average = 0.0505208
	minimum = 0.0443333 (at node 8)
	maximum = 0.0583333 (at node 2)
Accepted flit rate average= 0.0504375
	minimum = 0.0446667 (at node 2)
	maximum = 0.0583333 (at node 8)
Injected packet length average = 1
Accepted packet length average = 1
Total in-flight flits = 16 (16 measured)
latency change    = 0.00122321
throughput change = 0.00185874
Draining all recorded packets ...
Draining remaining packets ...
Time taken is 6066 cycles
Class 0:
Packet latency average = 18.9892
	minimum = 7
	maximum = 38
Network latency average = 18.9892
	minimum = 7
	maximum = 38
Slowest packet = 516534
Flit latency average = 18.9892
	minimum = 7
	maximum = 38
Slowest flit = 516534
Fragmentation average = 0
	minimum = 0
	maximum = 0
Injected packet rate average = 0.0468125
	minimum = 0.033 (at node 12)
	maximum = 0.056 (at node 7)
Accepted packet rate average = 0.046125
	minimum = 0.031 (at node 3)
	maximum = 0.055 (at node 13)
Injected flit rate average = 0.0468125
	minimum = 0.033 (at node 12)
	maximum = 0.056 (at node 7)
Accepted flit rate average= 0.046125
	minimum = 0.031 (at node 3)
	maximum = 0.055 (at node 13)
Injected packet length average = 1
Accepted packet length average = 1
Total in-flight flits = 11 (0 measured)
latency change    = 1
throughput change = 1
Class 0:
Packet latency average = 19.2211
	minimum = 7
	maximum = 41
Network latency average = 19.2211
	minimum = 7
	maximum = 41
Slowest packet = 517710
Flit latency average = 19.2211
	minimum = 7
	maximum = 41
Slowest flit = 517710
Fragmentation average = 0
	minimum = 0
	maximum = 0
Injected packet rate average = 0.0487187
	minimum = 0.0405 (at node 12)
	maximum = 0.054 (at node 15)
Accepted packet rate average = 0.0480625
	minimum = 0.039 (at node 3)
	maximum = 0.054 (at node 15)
Injected flit rate average = 0.0487187
	minimum = 0.0405 (at node 12)
	maximum = 0.054 (at node 15)
Accepted flit rate average= 0.0480625
	minimum = 0.039 (at node 3)
	maximum = 0.054 (at node 15)
Injected packet length average = 1
Accepted packet length average = 1
Total in-flight flits = 21 (0 measured)
latency change    = 0.0120652
throughput change = 0.0403121
Class 0:
Packet latency average = 19.2336
	minimum = 7
	maximum = 41
Network latency average = 19.2336
	minimum = 7
	maximum = 41
Slowest packet = 518822
Flit latency average = 19.2336
	minimum = 7
	maximum = 41
Slowest flit = 518822
Fragmentation average = 0
	minimum = 0
	maximum = 0
Injected packet rate average = 0.0506875
	minimum = 0.035 (at node 8)
	maximum = 0.068 (at node 4)
Accepted packet rate average = 0.051375
	minimum = 0.036 (at node 2)
	maximum = 0.073 (at node 1)
Injected flit rate average = 0.0506875
	minimum = 0.035 (at node 8)
	maximum = 0.068 (at node 4)
Accepted flit rate average= 0.051375
	minimum = 0.036 (at node 2)
	maximum = 0.073 (at node 1)
Injected packet length average = 1
Accepted packet length average = 1
Total in-flight flits = 10 (0 measured)
latency change    = 0.000650442
throughput change = 0.0644769
Warmed up ...Time used is 3000 cycles
Class 0:
Packet latency average = 19.4403
	minimum = 7
	maximum = 38
Network latency average = 19.4403
	minimum = 7
	maximum = 38
Slowest packet = 519261
Flit latency average = 19.5741
	minimum = 7
	maximum = 38
Slowest flit = 519261
Fragmentation average = 0
	minimum = 0
	maximum = 0
Injected packet rate average = 0.0499375
	minimum = 0.036 (at node 1)
	maximum = 0.059 (at node 10)
Accepted packet rate average = 0.0493125
	minimum = 0.037 (at node 4)
	maximum = 0.06 (at node 12)
Injected flit rate average = 0.0499375
	minimum = 0.036 (at node 1)
	maximum = 0.059 (at node 10)
Accepted flit rate average= 0.0493125
	minimum = 0.037 (at node 4)
	maximum = 0.06 (at node 12)
Injected packet length average = 1
Accepted packet length average = 1
Total in-flight flits = 20 (20 measured)
latency change    = 0.0106342
throughput change = 0.0418251
Class 0:
Packet latency average = 19.4134
	minimum = 7
	maximum = 44
Network latency average = 19.4134
	minimum = 7
	maximum = 44
Slowest packet = 520197
Flit latency average = 19.4785
	minimum = 7
	maximum = 44
Slowest flit = 520197
Fragmentation average = 0
	minimum = 0
	maximum = 0
Injected packet rate average = 0.0511563
	minimum = 0.0435 (at node 12)
	maximum = 0.0615 (at node 0)
Accepted packet rate average = 0.0508125
	minimum = 0.0425 (at node 3)
	maximum = 0.0615 (at node 0)
Injected flit rate average = 0.0511563
	minimum = 0.0435 (at node 12)
	maximum = 0.0615 (at node 0)
Accepted flit rate average= 0.0508125
	minimum = 0.0425 (at node 3)
	maximum = 0.0615 (at node 0)
Injected packet length average = 1
Accepted packet length average = 1
Total in-flight flits = 21 (21 measured)
latency change    = 0.00138779
throughput change = 0.0295203
Class 0:
Packet latency average = 19.3679
	minimum = 7
	maximum = 44
Network latency average = 19.3679
	minimum = 7
	maximum = 44
Slowest packet = 520197
Flit latency average = 19.4116
	minimum = 7
	maximum = 44
Slowest flit = 520197
Fragmentation average = 0
	minimum = 0
	maximum = 0
Injected packet rate average = 0.0509375
	minimum = 0.045 (at node 1)
	maximum = 0.06 (at node 0)
Accepted packet rate average = 0.0507708
	minimum = 0.045 (at node 4)
	maximum = 0.0596667 (at node 0)
Injected flit rate average = 0.0509375
	minimum = 0.045 (at node 1)
	maximum = 0.06 (at node 0)
Accepted flit rate average= 0.0507708
	minimum = 0.045 (at node 4)
	maximum = 0.0596667 (at node 0)
Injected packet length average = 1
Accepted packet length average = 1
Total in-flight flits = 18 (18 measured)
latency change    = 0.00234523
throughput change = 0.000820681
Draining all recorded packets ...
Draining remaining packets ...
Time taken is 6068 cycles
====== Overall Traffic Statistics ======
====== Traffic class 0 ======
Packet latency average = 19.5691 (100 samples)
	minimum = 7 (100 samples)
	maximum = 44.71 (100 samples)
Network latency average = 19.5691 (100 samples)
	minimum = 7 (100 samples)
	maximum = 44.71 (100 samples)
Flit latency average = 19.6012 (100 samples)
	minimum = 7 (100 samples)
	maximum = 44.75 (100 samples)
Fragmentation average = 0 (100 samples)
	minimum = 0 (100 samples)
	maximum = 0 (100 samples)
Injected packet rate average = 0.0499725 (100 samples)
	minimum = 0.0432187 (100 samples)
	maximum = 0.0568145 (100 samples)
Accepted packet rate average = 0.0499852 (100 samples)
	minimum = 0.0432613 (100 samples)
	maximum = 0.056823 (100 samples)
Injected flit rate average = 0.0499725 (100 samples)
	minimum = 0.0432187 (100 samples)
	maximum = 0.0568145 (100 samples)
Accepted flit rate average = 0.0499852 (100 samples)
	minimum = 0.0432613 (100 samples)
	maximum = 0.056823 (100 samples)
Injected packet size average = 1 (100 samples)
Accepted packet size average = 1 (100 samples)
Hops average = 3.4963 (100 samples)
Total run time 7.34519
