BEGIN Configuration File: /tmp/bs_1138183_310546.cfg
topology = mesh;
k = 4;
n = 2;
routing_function = min_adapt;
num_vcs = 4;
vc_buf_size = 4;
wait_for_tail_credit = 1;
vc_allocator = islip;
sw_allocator = islip;
alloc_iters = 1;
credit_delay = 2;
routing_delay = 1;
vc_alloc_delay = 1;
sw_alloc_delay = 1;
input_speedup = 2;
output_speedup = 1;
internal_speedup = 1.0;
traffic = uniform;
packet_size = 1;
sim_type = latency;
injection_rate = 0.05;
warmup_periods = 3;
sample_period = 1000;
sim_count = 100;
seed = 1;

END Configuration File: /tmp/bs_1138183_310546.cfg
Class 0:
Packet latency average = 20.3651
	minimum = 7
	maximum = 49
Network latency average = 20.3651
	minimum = 7
	maximum = 49
Slowest packet = 440
Flit latency average = 20.3651
	minimum = 7
	maximum = 49
Slowest flit = 440
Fragmentation average = 0
	minimum = 0
	maximum = 0
Injected packet rate average = 0.0505
	minimum = 0.038 (at node 9)
	maximum = 0.073 (at node 1)
Accepted packet rate average = 0.0498125
	minimum = 0.032 (at node 6)
	maximum = 0.061 (at node 9)
Injected flit rate average = 0.0505
	minimum = 0.038 (at node 9)
	maximum = 0.073 (at node 1)
Accepted flit rate average= 0.0498125
	minimum = 0.032 (at node 6)
	maximum = 0.061 (at node 9)
Injected packet length average = 1
Accepted packet length average = 1
Total in-flight flits = 11 (0 measured)
latency change    = 1
throughput change = 1
Class 0:
Packet latency average = 20.1359
	minimum = 7
	maximum = 63
Network latency average = 20.1359
	minimum = 7
	maximum = 63
Slowest packet = 1050
Flit latency average = 20.1359
	minimum = 7
	maximum = 63
Slowest flit = 1050
Fragmentation average = 0
	minimum = 0
	maximum = 0
Injected packet rate average = 0.0509688
	minimum = 0.0425 (at node 3)
	maximum = 0.064 (at node 1)
Accepted packet rate average = 0.0505937
	minimum = 0.035 (at node 6)
	maximum = 0.0595 (at node 9)
Injected flit rate average = 0.0509688
	minimum = 0.0425 (at node 3)
	maximum = 0.064 (at node 1)
Accepted flit rate average= 0.0505937
	minimum = 0.035 (at node 6)
	maximum = 0.0595 (at node 9)
Injected packet length average = 1
Accepted packet length average = 1
Total in-flight flits = 12 (0 measured)
latency change    = 0.0113843
throughput change = 0.0154416
Class 0:
Packet latency average = 20.5679
	minimum = 7
	maximum = 56
Network latency average = 20.5679
	minimum = 7
	maximum = 56
Slowest packet = 1680
Flit latency average = 20.5679
	minimum = 7
	maximum = 56
Slowest flit = 1680
Fragmentation average = 0
	minimum = 0
	maximum = 0
Injected packet rate average = 0.0524375
	minimum = 0.042 (at node 0)
	maximum = 0.064 (at node 1)
Accepted packet rate average = 0.0525
	minimum = 0.041 (at node 12)
	maximum = 0.065 (at node 14)
Injected flit rate average = 0.0524375
	minimum = 0.042 (at node 0)
	maximum = 0.064 (at node 1)
Accepted flit rate average= 0.0525
	minimum = 0.041 (at node 12)
	maximum = 0.065 (at node 14)
Injected packet length average = 1
Accepted packet length average = 1
Total in-flight flits = 11 (0 measured)
latency change    = 0.0210022
throughput change = 0.0363095
Warmed up ...Time used is 3000 cycles
Class 0:
Packet latency average = 20.2772
	minimum = 7
	maximum = 56
Network latency average = 20.2759
	minimum = 7
	maximum = 56
Slowest packet = 2743
Flit latency average = 20.2946
	minimum = 7
	maximum = 56
Slowest flit = 2743
Fragmentation average = 0
	minimum = 0
	maximum = 0
Injected packet rate average = 0.05075
	minimum = 0.041 (at node 6)
	maximum = 0.065 (at node 5)
Accepted packet rate average = 0.0500625
	minimum = 0.041 (at node 7)
	maximum = 0.063 (at node 5)
Injected flit rate average = 0.05075
	minimum = 0.041 (at node 6)
	maximum = 0.065 (at node 5)
Accepted flit rate average= 0.0500625
	minimum = 0.041 (at node 7)
	maximum = 0.063 (at node 5)
Injected packet length average = 1
Accepted packet length average = 1
Total in-flight flits = 22 (22 measured)
latency change    = 0.0143334
throughput change = 0.0486891
Class 0:
Packet latency average = 20.4405
	minimum = 7
	maximum = 56
Network latency average = 20.4399
	minimum = 7
	maximum = 56
Slowest packet = 2743
Flit latency average = 20.4479
	minimum = 7
	maximum = 56
Slowest flit = 2743
Fragmentation average = 0
	minimum = 0
	maximum = 0
Injected packet rate average = 0.0520938
	minimum = 0.0415 (at node 6)
	maximum = 0.0615 (at node 2)
Accepted packet rate average = 0.0518438
	minimum = 0.0415 (at node 10)
	maximum = 0.062 (at node 5)
Injected flit rate average = 0.0520938
	minimum = 0.0415 (at node 6)
	maximum = 0.0615 (at node 2)
Accepted flit rate average= 0.0518438
	minimum = 0.0415 (at node 10)
	maximum = 0.062 (at node 5)
Injected packet length average = 1
Accepted packet length average = 1
Total in-flight flits = 19 (19 measured)
latency change    = 0.00798995
throughput change = 0.034358
Class 0:
Packet latency average = 20.3045
	minimum = 7
	maximum = 56
Network latency average = 20.3041
	minimum = 7
	maximum = 56
Slowest packet = 2743
Flit latency average = 20.3101
	minimum = 7
	maximum = 56
Slowest flit = 2743
Fragmentation average = 0
	minimum = 0
	maximum = 0
Injected packet rate average = 0.0512708
	minimum = 0.0443333 (at node 11)
	maximum = 0.0606667 (at node 5)
Accepted packet rate average = 0.051125
	minimum = 0.042 (at node 10)
	maximum = 0.0576667 (at node 5)
Injected flit rate average = 0.0512708
	minimum = 0.0443333 (at node 11)
	maximum = 0.0606667 (at node 5)
Accepted flit rate average= 0.051125
	minimum = 0.042 (at node 10)
	maximum = 0.0576667 (at node 5)
Injected packet length average = 1
Accepted packet length average = 1
Total in-flight flits = 18 (18 measured)
latency change    = 0.00669753
throughput change = 0.0140587
Draining all recorded packets ...
Draining remaining packets ...
Time taken is 6077 cycles
Class 0:
Packet latency average = 20.3943
	minimum = 7
	maximum = 59
Network latency average = 20.3943
	minimum = 7
	maximum = 59
Slowest packet = 5182
Flit latency average = 20.3943
	minimum = 7
	maximum = 59
Slowest flit = 5182
Fragmentation average = 0
	minimum = 0
	maximum = 0
Injected packet rate average = 0.0493125
	minimum = 0.039 (at node 14)
	maximum = 0.06 (at node 2)
Accepted packet rate average = 0.0485
	minimum = 0.04 (at node 7)
	maximum = 0.067 (at node 13)
Injected flit rate average = 0.0493125
	minimum = 0.039 (at node 14)
	maximum = 0.06 (at node 2)
Accepted flit rate average= 0.0485
	minimum = 0.04 (at node 7)
	maximum = 0.067 (at node 13)
Injected packet length average = 1
Accepted packet length average = 1
Total in-flight flits = 13 (0 measured)
latency change    = 1
throughput change = 1
Class 0:
Packet latency average = 20.569
	minimum = 7
	maximum = 60
Network latency average = 20.569
	minimum = 7
	maximum = 60
Slowest packet = 6034
Flit latency average = 20.569
	minimum = 7
	maximum = 60
Slowest flit = 6034
Fragmentation average = 0
	minimum = 0
	maximum = 0
Injected packet rate average = 0.049375
	minimum = 0.0405 (at node 15)
	maximum = 0.0565 (at node 4)
Accepted packet rate average = 0.0489375
	minimum = 0.0415 (at node 10)
	maximum = 0.0575 (at node 15)
Injected flit rate average = 0.049375
	minimum = 0.0405 (at node 15)
	maximum = 0.0565 (at node 4)
Accepted flit rate average= 0.0489375
	minimum = 0.0415 (at node 10)
	maximum = 0.0575 (at node 15)
Injected packet length average = 1
Accepted packet length average = 1
Total in-flight flits = 14 (0 measured)
latency change    = 0.00849025
throughput change = 0.00893997
Class 0:
Packet latency average = 20.7286
	minimum = 7
	maximum = 54
Network latency average = 20.7286
	minimum = 7
	maximum = 54
Slowest packet = 6982
Flit latency average = 20.7286
	minimum = 7
	maximum = 54
Slowest flit = 6982
Fragmentation average = 0
	minimum = 0
	maximum = 0
Injected packet rate average = 0.048625
	minimum = 0.04 (at node 10)
	maximum = 0.056 (at node 12)
Accepted packet rate average = 0.0488125
	minimum = 0.032 (at node 7)
	maximum = 0.065 (at node 10)
Injected flit rate average = 0.048625
	minimum = 0.04 (at node 10)
	maximum = 0.056 (at node 12)
Accepted flit rate average= 0.0488125
	minimum = 0.032 (at node 7)
	maximum = 0.065 (at node 10)
Injected packet length average = 1
Accepted packet length average = 1
Total in-flight flits = 11 (0 measured)
latency change    = 0.00769893
throughput change = 0.00256082
Warmed up ...Time used is 3000 cycles
Class 0:
Packet latency average = 20.1501
	minimum = 7
	maximum = 57
Network latency average = 20.1501
	minimum = 7
	maximum = 57
Slowest packet = 7730
Flit latency average = 20.2108
	minimum = 7
	maximum = 57
Slowest flit = 7730
Fragmentation average = 0
	minimum = 0
	maximum = 0
Injected packet rate average = 0.0504375
	minimum = 0.033 (at node 3)
	maximum = 0.07 (at node 14)
Accepted packet rate average = 0.0498125
	minimum = 0.037 (at node 14)
	maximum = 0.065 (at node 10)
Injected flit rate average = 0.0504375
	minimum = 0.033 (at node 3)
	maximum = 0.07 (at node 14)
Accepted flit rate average= 0.0498125
	minimum = 0.037 (at node 14)
	maximum = 0.065 (at node 10)
Injected packet length average = 1
Accepted packet length average = 1
Total in-flight flits = 21 (21 measured)
latency change    = 0.0287058
throughput change = 0.0200753
Class 0:
Packet latency average = 20.1494
	minimum = 7
	maximum = 57
Network latency average = 20.1494
	minimum = 7
	maximum = 57
Slowest packet = 7730
Flit latency average = 20.1803
	minimum = 7
	maximum = 57
Slowest flit = 7730
Fragmentation average = 0
	minimum = 0
	maximum = 0
Injected packet rate average = 0.0490937
	minimum = 0.0425 (at node 3)
	maximum = 0.0605 (at node 14)
Accepted packet rate average = 0.048875
	minimum = 0.043 (at node 8)
	maximum = 0.059 (at node 10)
Injected flit rate average = 0.0490937
	minimum = 0.0425 (at node 3)
	maximum = 0.0605 (at node 14)
Accepted flit rate average= 0.048875
	minimum = 0.043 (at node 8)
	maximum = 0.059 (at node 10)
Injected packet length average = 1
Accepted packet length average = 1
Total in-flight flits = 18 (18 measured)
latency change    = 3.66734e-05
throughput change = 0.0191816
Class 0:
Packet latency average = 20.2931
	minimum = 7
	maximum = 58
Network latency average = 20.2931
	minimum = 7
	maximum = 58
Slowest packet = 9486
Flit latency average = 20.313
	minimum = 7
	maximum = 58
Slowest flit = 9486
Fragmentation average = 0
	minimum = 0
	maximum = 0
Injected packet rate average = 0.049125
	minimum = 0.044 (at node 11)
	maximum = 0.0563333 (at node 9)
Accepted packet rate average = 0.0489167
	minimum = 0.0433333 (at node 4)
	maximum = 0.0546667 (at node 5)
Injected flit rate average = 0.049125
	minimum = 0.044 (at node 11)
	maximum = 0.0563333 (at node 9)
Accepted flit rate average= 0.0489167
	minimum = 0.0433333 (at node 4)
	maximum = 0.0546667 (at node 5)
Injected packet length average = 1
Accepted packet length average = 1
Total in-flight flits = 21 (21 measured)
latency change    = 0.00708233
throughput change = 0.000851789
Draining all recorded packets ...
Draining remaining packets ...
Time taken is 6062 cycles
Class 0:
Packet latency average = 20.5429
	minimum = 7
	maximum = 62
Network latency average = 20.5429
	minimum = 7
	maximum = 62
Slowest packet = 10132
Flit latency average = 20.5429
	minimum = 7
	maximum = 62
Slowest flit = 10132
Fragmentation average = 0
	minimum = 0
	maximum = 0
Injected packet rate average = 0.0486875
	minimum = 0.04 (at node 11)
	maximum = 0.063 (at node 15)
Accepted packet rate average = 0.0473125
	minimum = 0.031 (at node 15)
	maximum = 0.062 (at node 6)
Injected flit rate average = 0.0486875
	minimum = 0.04 (at node 11)
	maximum = 0.063 (at node 15)
Accepted flit rate average= 0.0473125
	minimum = 0.031 (at node 15)
	maximum = 0.062 (at node 6)
Injected packet length average = 1
Accepted packet length average = 1
Total in-flight flits = 22 (0 measured)
latency change    = 1
throughput change = 1
Class 0:
Packet latency average = 20.19
	minimum = 7
	maximum = 62
Network latency average = 20.19
	minimum = 7
	maximum = 62
Slowest packet = 10132
Flit latency average = 20.19
	minimum = 7
	maximum = 62
Slowest flit = 10132
Fragmentation average = 0
	minimum = 0
	maximum = 0
Injected packet rate average = 0.0480625
	minimum = 0.042 (at node 7)
	maximum = 0.055 (at node 12)
Accepted packet rate average = 0.0475312
	minimum = 0.037 (at node 15)
	maximum = 0.0535 (at node 0)
Injected flit rate average = 0.0480625
	minimum = 0.042 (at node 7)
	maximum = 0.055 (at node 12)
Accepted flit rate average= 0.0475312
	minimum = 0.037 (at node 15)
	maximum = 0.0535 (at node 0)
Injected packet length average = 1
Accepted packet length average = 1
Total in-flight flits = 17 (0 measured)
latency change    = 0.0174802
throughput change = 0.00460224
Class 0:
Packet latency average = 20.5707
	minimum = 7
	maximum = 57
Network latency average = 20.5707
	minimum = 7
	maximum = 57
Slowest packet = 11347
Flit latency average = 20.5707
	minimum = 7
	maximum = 57
Slowest flit = 11347
Fragmentation average = 0
	minimum = 0
	maximum = 0
Injected packet rate average = 0.0504375
	minimum = 0.035 (at node 15)
	maximum = 0.065 (at node 4)
Accepted packet rate average = 0.0508125
	minimum = 0.038 (at node 0)
	maximum = 0.063 (at node 7)
Injected flit rate average = 0.0504375
	minimum = 0.035 (at node 15)
	maximum = 0.065 (at node 4)
Accepted flit rate average= 0.0508125
	minimum = 0.038 (at node 0)
	maximum = 0.063 (at node 7)
Injected packet length average = 1
Accepted packet length average = 1
Total in-flight flits = 11 (0 measured)
latency change    = 0.0185078
throughput change = 0.0645756
Warmed up ...Time used is 3000 cycles
Class 0:
Packet latency average = 20.3055
	minimum = 7
	maximum = 58
Network latency average = 20.3055
	minimum = 7
	maximum = 58
Slowest packet = 12192
Flit latency average = 20.3506
	minimum = 7
	maximum = 58
Slowest flit = 12192
Fragmentation average = 0
	minimum = 0
	maximum = 0
Injected packet rate average = 0.051
	minimum = 0.04 (at node 9)
	maximum = 0.07 (at node 2)
Accepted packet rate average = 0.0508125
	minimum = 0.04 (at node 11)
	maximum = 0.066 (at node 4)
Injected flit rate average = 0.051
	minimum = 0.04 (at node 9)
	maximum = 0.07 (at node 2)
Accepted flit rate average= 0.0508125
	minimum = 0.04 (at node 11)
	maximum = 0.066 (at node 4)
Injected packet length average = 1
Accepted packet length average = 1
Total in-flight flits = 14 (14 measured)
latency change    = 0.0130625
throughput change = 0
Class 0:
Packet latency average = 20.5013
	minimum = 7
	maximum = 58
Network latency average = 20.5013
	minimum = 7
	maximum = 58
Slowest packet = 12192
Flit latency average = 20.523
	minimum = 7
	maximum = 58
Slowest flit = 12192
Fragmentation average = 0
	minimum = 0
	maximum = 0
Injected packet rate average = 0.0497187
	minimum = 0.044 (at node 8)
	maximum = 0.0615 (at node 15)
Accepted packet rate average = 0.0495937
	minimum = 0.04 (at node 2)
	maximum = 0.0605 (at node 10)
Injected flit rate average = 0.0497187
	minimum = 0.044 (at node 8)
	maximum = 0.0615 (at node 15)
Accepted flit rate average= 0.0495937
	minimum = 0.04 (at node 2)
	maximum = 0.0605 (at node 10)
Injected packet length average = 1
Accepted packet length average = 1
Total in-flight flits = 15 (15 measured)
latency change    = 0.00954979
throughput change = 0.0245747
Class 0:
Packet latency average = 20.4073
	minimum = 7
	maximum = 58
Network latency average = 20.4073
	minimum = 7
	maximum = 58
Slowest packet = 12192
Flit latency average = 20.4223
	minimum = 7
	maximum = 58
Slowest flit = 12192
Fragmentation average = 0
	minimum = 0
	maximum = 0
Injected packet rate average = 0.0495
	minimum = 0.0423333 (at node 8)
	maximum = 0.057 (at node 15)
Accepted packet rate average = 0.0493333
	minimum = 0.0383333 (at node 13)
	maximum = 0.0573333 (at node 4)
Injected flit rate average = 0.0495
	minimum = 0.0423333 (at node 8)
	maximum = 0.057 (at node 15)
Accepted flit rate average= 0.0493333
	minimum = 0.0383333 (at node 13)
	maximum = 0.0573333 (at node 4)
Injected packet length average = 1
Accepted packet length average = 1
Total in-flight flits = 19 (19 measured)
latency change    = 0.0046048
throughput change = 0.00527872
Draining all recorded packets ...
Draining remaining packets ...
Time taken is 6077 cycles
Class 0:
Packet latency average = 20.1291
	minimum = 7
	maximum = 56
Network latency average = 20.1291
	minimum = 7
	maximum = 56
Slowest packet = 14871
Flit latency average = 20.1291
	minimum = 7
	maximum = 56
Slowest flit = 14871
Fragmentation average = 0
	minimum = 0
	maximum = 0
Injected packet rate average = 0.050875
	minimum = 0.04 (at node 8)
	maximum = 0.058 (at node 12)
Accepted packet rate average = 0.049875
	minimum = 0.036 (at node 2)
	maximum = 0.066 (at node 4)
Injected flit rate average = 0.050875
	minimum = 0.04 (at node 8)
	maximum = 0.058 (at node 12)
Accepted flit rate average= 0.049875
	minimum = 0.036 (at node 2)
	maximum = 0.066 (at node 4)
Injected packet length average = 1
Accepted packet length average = 1
Total in-flight flits = 16 (0 measured)
latency change    = 1
throughput change = 1
Class 0:
Packet latency average = 20.4448
	minimum = 7
	maximum = 59
Network latency average = 20.4448
	minimum = 7
	maximum = 59
Slowest packet = 15304
Flit latency average = 20.4448
	minimum = 7
	maximum = 59
Slowest flit = 15304
Fragmentation average = 0
	minimum = 0
	maximum = 0
Injected packet rate average = 0.0497187
	minimum = 0.0375 (at node 8)
	maximum = 0.0585 (at node 4)
Accepted packet rate average = 0.04925
	minimum = 0.0365 (at node 2)
	maximum = 0.0615 (at node 4)
Injected flit rate average = 0.0497187
	minimum = 0.0375 (at node 8)
	maximum = 0.0585 (at node 4)
Accepted flit rate average= 0.04925
	minimum = 0.0365 (at node 2)
	maximum = 0.0615 (at node 4)
Injected packet length average = 1
Accepted packet length average = 1
Total in-flight flits = 15 (0 measured)
latency change    = 0.0154428
throughput change = 0.0126904
Class 0:
Packet latency average = 20.2225
	minimum = 7
	maximum = 58
Network latency average = 20.2225
	minimum = 7
	maximum = 58
Slowest packet = 16475
Flit latency average = 20.2225
	minimum = 7
	maximum = 58
Slowest flit = 16475
Fragmentation average = 0
	minimum = 0
	maximum = 0
Injected packet rate average = 0.0489375
	minimum = 0.037 (at node 3)
	maximum = 0.059 (at node 2)
Accepted packet rate average = 0.048875
	minimum = 0.035 (at node 0)
	maximum = 0.06 (at node 2)
Injected flit rate average = 0.0489375
	minimum = 0.037 (at node 3)
	maximum = 0.059 (at node 2)
Accepted flit rate average= 0.048875
	minimum = 0.035 (at node 0)
	maximum = 0.06 (at node 2)
Injected packet length average = 1
Accepted packet length average = 1
Total in-flight flits = 16 (0 measured)
latency change    = 0.0109922
throughput change = 0.00767263
Warmed up ...Time used is 3000 cycles
Class 0:
Packet latency average = 20.4208
	minimum = 7
	maximum = 67
Network latency average = 20.4208
	minimum = 7
	maximum = 67
Slowest packet = 17457
Flit latency average = 20.4828
	minimum = 7
	maximum = 67
Slowest flit = 17457
Fragmentation average = 0
	minimum = 0
	maximum = 0
Injected packet rate average = 0.052875
	minimum = 0.035 (at node 6)
	maximum = 0.065 (at node 15)
Accepted packet rate average = 0.0526875
	minimum = 0.041 (at node 10)
	maximum = 0.066 (at node 3)
Injected flit rate average = 0.052875
	minimum = 0.035 (at node 6)
	maximum = 0.065 (at node 15)
Accepted flit rate average= 0.0526875
	minimum = 0.041 (at node 10)
	maximum = 0.066 (at node 3)
Injected packet length average = 1
Accepted packet length average = 1
Total in-flight flits = 19 (19 measured)
latency change    = 0.00971028
throughput change = 0.0723606
Class 0:
Packet latency average = 20.4576
	minimum = 7
	maximum = 67
Network latency average = 20.4576
	minimum = 7
	maximum = 67
Slowest packet = 17457
Flit latency average = 20.4893
	minimum = 7
	maximum = 67
Slowest flit = 17457
Fragmentation average = 0
	minimum = 0
	maximum = 0
Injected packet rate average = 0.0510625
	minimum = 0.042 (at node 6)
	maximum = 0.058 (at node 9)
Accepted packet rate average = 0.0509688
	minimum = 0.0425 (at node 5)
	maximum = 0.0665 (at node 3)
Injected flit rate average = 0.0510625
	minimum = 0.042 (at node 6)
	maximum = 0.058 (at node 9)
Accepted flit rate average= 0.0509688
	minimum = 0.0425 (at node 5)
	maximum = 0.0665 (at node 3)
Injected packet length average = 1
Accepted packet length average = 1
Total in-flight flits = 19 (19 measured)
latency change    = 0.00179821
throughput change = 0.0337216
Class 0:
Packet latency average = 20.3191
	minimum = 7
	maximum = 67
Network latency average = 20.3191
	minimum = 7
	maximum = 67
Slowest packet = 17457
Flit latency average = 20.3409
	minimum = 7
	maximum = 67
Slowest flit = 17457
Fragmentation average = 0
	minimum = 0
	maximum = 0
Injected packet rate average = 0.05125
	minimum = 0.0453333 (at node 0)
	maximum = 0.0556667 (at node 4)
Accepted packet rate average = 0.0513958
	minimum = 0.0453333 (at node 5)
	maximum = 0.0613333 (at node 3)
Injected flit rate average = 0.05125
	minimum = 0.0453333 (at node 0)
	maximum = 0.0556667 (at node 4)
Accepted flit rate average= 0.0513958
	minimum = 0.0453333 (at node 5)
	maximum = 0.0613333 (at node 3)
Injected packet length average = 1
Accepted packet length average = 1
Total in-flight flits = 9 (9 measured)
latency change    = 0.00681782
throughput change = 0.00830969
Class 0:
Packet latency average = 20.3141
	minimum = 7
	maximum = 67
Network latency average = 20.3141
	minimum = 7
	maximum = 67
Slowest packet = 17457
Flit latency average = 20.3304
	minimum = 7
	maximum = 67
Slowest flit = 17457
Fragmentation average = 0
	minimum = 0
	maximum = 0
Injected packet rate average = 0.0515938
	minimum = 0.047 (at node 6)
	maximum = 0.05625 (at node 5)
Accepted packet rate average = 0.0515938
	minimum = 0.0475 (at node 13)
	maximum = 0.05825 (at node 3)
Injected flit rate average = 0.0515938
	minimum = 0.047 (at node 6)
	maximum = 0.05625 (at node 5)
Accepted flit rate average= 0.0515938
	minimum = 0.0475 (at node 13)
	maximum = 0.05825 (at node 3)
Injected packet length average = 1
Accepted packet length average = 1
Total in-flight flits = 16 (16 measured)
latency change    = 0.00024583
throughput change = 0.00383606
Draining all recorded packets ...
Draining remaining packets ...
Time taken is 7054 cycles
Class 0:
Packet latency average = 20.4125
	minimum = 7
	maximum = 50
Network latency average = 20.4125
	minimum = 7
	maximum = 50
Slowest packet = 20478
Flit latency average = 20.4125
	minimum = 7
	maximum = 50
Slowest flit = 20478
Fragmentation average = 0
	minimum = 0
	maximum = 0
Injected packet rate average = 0.04875
	minimum = 0.032 (at node 2)
	maximum = 0.073 (at node 10)
Accepted packet rate average = 0.047875
	minimum = 0.034 (at node 7)
	maximum = 0.062 (at node 5)
Injected flit rate average = 0.04875
	minimum = 0.032 (at node 2)
	maximum = 0.073 (at node 10)
Accepted flit rate average= 0.047875
	minimum = 0.034 (at node 7)
	maximum = 0.062 (at node 5)
Injected packet length average = 1
Accepted packet length average = 1
Total in-flight flits = 14 (0 measured)
latency change    = 1
throughput change = 1
Class 0:
Packet latency average = 20.4055
	minimum = 7
	maximum = 53
Network latency average = 20.4055
	minimum = 7
	maximum = 53
Slowest packet = 21244
Flit latency average = 20.4055
	minimum = 7
	maximum = 53
Slowest flit = 21244
Fragmentation average = 0
	minimum = 0
	maximum = 0
Injected packet rate average = 0.0501875
	minimum = 0.04 (at node 15)
	maximum = 0.058 (at node 10)
Accepted packet rate average = 0.049625
	minimum = 0.0425 (at node 3)
	maximum = 0.0625 (at node 4)
Injected flit rate average = 0.0501875
	minimum = 0.04 (at node 15)
	maximum = 0.058 (at node 10)
Accepted flit rate average= 0.049625
	minimum = 0.0425 (at node 3)
	maximum = 0.0625 (at node 4)
Injected packet length average = 1
Accepted packet length average = 1
Total in-flight flits = 18 (0 measured)
latency change    = 0.000342607
throughput change = 0.0352645
Class 0:
Packet latency average = 20.3153
	minimum = 7
	maximum = 59
Network latency average = 20.3153
	minimum = 7
	maximum = 59
Slowest packet = 22106
Flit latency average = 20.3153
	minimum = 7
	maximum = 59
Slowest flit = 22106
Fragmentation average = 0
	minimum = 0
	maximum = 0
Injected packet rate average = 0.0508125
	minimum = 0.04 (at node 1)
	maximum = 0.07 (at node 11)
Accepted packet rate average = 0.0509375
	minimum = 0.036 (at node 4)
	maximum = 0.06 (at node 13)
Injected flit rate average = 0.0508125
	minimum = 0.04 (at node 1)
	maximum = 0.07 (at node 11)
Accepted flit rate average= 0.0509375
	minimum = 0.036 (at node 4)
	maximum = 0.06 (at node 13)
Injected packet length average = 1
Accepted packet length average = 1
Total in-flight flits = 16 (0 measured)
latency change    = 0.0044402
throughput change = 0.0257669
Warmed up ...Time used is 3000 cycles
Class 0:
Packet latency average = 20.2163
	minimum = 7
	maximum = 52
Network latency average = 20.2163
	minimum = 7
	maximum = 52
Slowest packet = 22654
Flit latency average = 20.2284
	minimum = 7
	maximum = 52
Slowest flit = 22654
Fragmentation average = 0
	minimum = 0
	maximum = 0
Injected packet rate average = 0.049375
	minimum = 0.039 (at node 5)
	maximum = 0.06 (at node 14)
Accepted packet rate average = 0.04925
	minimum = 0.033 (at node 5)
	maximum = 0.065 (at node 3)
Injected flit rate average = 0.049375
	minimum = 0.039 (at node 5)
	maximum = 0.06 (at node 14)
Accepted flit rate average= 0.04925
	minimum = 0.033 (at node 5)
	maximum = 0.065 (at node 3)
Injected packet length average = 1
Accepted packet length average = 1
Total in-flight flits = 18 (18 measured)
latency change    = 0.00489783
throughput change = 0.034264
Class 0:
Packet latency average = 20.5274
	minimum = 7
	maximum = 59
Network latency average = 20.5274
	minimum = 7
	maximum = 59
Slowest packet = 24033
Flit latency average = 20.5302
	minimum = 7
	maximum = 59
Slowest flit = 24033
Fragmentation average = 0
	minimum = 0
	maximum = 0
Injected packet rate average = 0.0518438
	minimum = 0.043 (at node 5)
	maximum = 0.063 (at node 14)
Accepted packet rate average = 0.0518125
	minimum = 0.0415 (at node 5)
	maximum = 0.063 (at node 6)
Injected flit rate average = 0.0518438
	minimum = 0.043 (at node 5)
	maximum = 0.063 (at node 14)
Accepted flit rate average= 0.0518125
	minimum = 0.0415 (at node 5)
	maximum = 0.063 (at node 6)
Injected packet length average = 1
Accepted packet length average = 1
Total in-flight flits = 17 (17 measured)
latency change    = 0.0151546
throughput change = 0.0494572
Class 0:
Packet latency average = 20.3973
	minimum = 7
	maximum = 59
Network latency average = 20.3973
	minimum = 7
	maximum = 59
Slowest packet = 24033
Flit latency average = 20.3999
	minimum = 7
	maximum = 59
Slowest flit = 24033
Fragmentation average = 0
	minimum = 0
	maximum = 0
Injected packet rate average = 0.0525417
	minimum = 0.0426667 (at node 5)
	maximum = 0.062 (at node 14)
Accepted packet rate average = 0.0524583
	minimum = 0.044 (at node 13)
	maximum = 0.0606667 (at node 6)
Injected flit rate average = 0.0525417
	minimum = 0.0426667 (at node 5)
	maximum = 0.062 (at node 14)
Accepted flit rate average= 0.0524583
	minimum = 0.044 (at node 13)
	maximum = 0.0606667 (at node 6)
Injected packet length average = 1
Accepted packet length average = 1
Total in-flight flits = 20 (20 measured)
latency change    = 0.00637945
throughput change = 0.0123114
Draining all recorded packets ...
Draining remaining packets ...
Time taken is 6057 cycles
Class 0:
Packet latency average = 20.6637
	minimum = 7
	maximum = 57
Network latency average = 20.6637
	minimum = 7
	maximum = 57
Slowest packet = 25847
Flit latency average = 20.6637
	minimum = 7
	maximum = 57
Slowest flit = 25847
Fragmentation average = 0
	minimum = 0
	maximum = 0
Injected packet rate average = 0.05
	minimum = 0.041 (at node 5)
	maximum = 0.075 (at node 13)
Accepted packet rate average = 0.04925
	minimum = 0.043 (at node 0)
	maximum = 0.056 (at node 2)
Injected flit rate average = 0.05
	minimum = 0.041 (at node 5)
	maximum = 0.075 (at node 13)
Accepted flit rate average= 0.04925
	minimum = 0.043 (at node 0)
	maximum = 0.056 (at node 2)
Injected packet length average = 1
Accepted packet length average = 1
Total in-flight flits = 12 (0 measured)
latency change    = 1
throughput change = 1
Class 0:
Packet latency average = 20.4516
	minimum = 7
	maximum = 57
Network latency average = 20.4516
	minimum = 7
	maximum = 57
Slowest packet = 25847
Flit latency average = 20.4516
	minimum = 7
	maximum = 57
Slowest flit = 25847
Fragmentation average = 0
	minimum = 0
	maximum = 0
Injected packet rate average = 0.0497812
	minimum = 0.042 (at node 5)
	maximum = 0.061 (at node 13)
Accepted packet rate average = 0.0493437
	minimum = 0.0405 (at node 0)
	maximum = 0.057 (at node 13)
Injected flit rate average = 0.0497812
	minimum = 0.042 (at node 5)
	maximum = 0.061 (at node 13)
Accepted flit rate average= 0.0493437
	minimum = 0.0405 (at node 0)
	maximum = 0.057 (at node 13)
Injected packet length average = 1
Accepted packet length average = 1
Total in-flight flits = 14 (0 measured)
latency change    = 0.0103735
throughput change = 0.00189994
Class 0:
Packet latency average = 20.6849
	minimum = 7
	maximum = 59
Network latency average = 20.6849
	minimum = 7
	maximum = 59
Slowest packet = 27112
Flit latency average = 20.6849
	minimum = 7
	maximum = 59
Slowest flit = 27112
Fragmentation average = 0
	minimum = 0
	maximum = 0
Injected packet rate average = 0.0514375
	minimum = 0.039 (at node 13)
	maximum = 0.066 (at node 15)
Accepted packet rate average = 0.051375
	minimum = 0.041 (at node 2)
	maximum = 0.065 (at node 5)
Injected flit rate average = 0.0514375
	minimum = 0.039 (at node 13)
	maximum = 0.066 (at node 15)
Accepted flit rate average= 0.051375
	minimum = 0.041 (at node 2)
	maximum = 0.065 (at node 5)
Injected packet length average = 1
Accepted packet length average = 1
Total in-flight flits = 15 (0 measured)
latency change    = 0.0112818
throughput change = 0.0395377
Warmed up ...Time used is 3000 cycles
Class 0:
Packet latency average = 20.3674
	minimum = 7
	maximum = 71
Network latency average = 20.3674
	minimum = 7
	maximum = 71
Slowest packet = 28119
Flit latency average = 20.4238
	minimum = 7
	maximum = 71
Slowest flit = 28119
Fragmentation average = 0
	minimum = 0
	maximum = 0
Injected packet rate average = 0.0505
	minimum = 0.037 (at node 9)
	maximum = 0.067 (at node 11)
Accepted packet rate average = 0.0504375
	minimum = 0.041 (at node 6)
	maximum = 0.058 (at node 13)
Injected flit rate average = 0.0505
	minimum = 0.037 (at node 9)
	maximum = 0.067 (at node 11)
Accepted flit rate average= 0.0504375
	minimum = 0.041 (at node 6)
	maximum = 0.058 (at node 13)
Injected packet length average = 1
Accepted packet length average = 1
Total in-flight flits = 16 (16 measured)
latency change    = 0.0155882
throughput change = 0.0185874
Class 0:
Packet latency average = 20.4401
	minimum = 7
	maximum = 71
Network latency average = 20.4401
	minimum = 7
	maximum = 71
Slowest packet = 28119
Flit latency average = 20.4676
	minimum = 7
	maximum = 71
Slowest flit = 28119
Fragmentation average = 0
	minimum = 0
	maximum = 0
Injected packet rate average = 0.0504062
	minimum = 0.043 (at node 1)
	maximum = 0.0615 (at node 8)
Accepted packet rate average = 0.0505937
	minimum = 0.0425 (at node 14)
	maximum = 0.061 (at node 9)
Injected flit rate average = 0.0504062
	minimum = 0.043 (at node 1)
	maximum = 0.0615 (at node 8)
Accepted flit rate average= 0.0505937
	minimum = 0.0425 (at node 14)
	maximum = 0.061 (at node 9)
Injected packet length average = 1
Accepted packet length average = 1
Total in-flight flits = 9 (9 measured)
latency change    = 0.00355797
throughput change = 0.00308833
Class 0:
Packet latency average = 20.4672
	minimum = 7
	maximum = 71
Network latency average = 20.4668
	minimum = 7
	maximum = 71
Slowest packet = 28119
Flit latency average = 20.4853
	minimum = 7
	maximum = 71
Slowest flit = 28119
Fragmentation average = 0
	minimum = 0
	maximum = 0
Injected packet rate average = 0.0495625
	minimum = 0.044 (at node 6)
	maximum = 0.057 (at node 8)
Accepted packet rate average = 0.0495417
	minimum = 0.0426667 (at node 6)
	maximum = 0.0576667 (at node 9)
Injected flit rate average = 0.0495625
	minimum = 0.044 (at node 6)
	maximum = 0.057 (at node 8)
Accepted flit rate average= 0.0495417
	minimum = 0.0426667 (at node 6)
	maximum = 0.0576667 (at node 9)
Injected packet length average = 1
Accepted packet length average = 1
Total in-flight flits = 16 (16 measured)
latency change    = 0.00132178
throughput change = 0.0212363
Draining all recorded packets ...
Draining remaining packets ...
Time taken is 6070 cycles
Class 0:
Packet latency average = 20.4896
	minimum = 7
	maximum = 57
Network latency average = 20.4896
	minimum = 7
	maximum = 57
Slowest packet = 30599
Flit latency average = 20.4896
	minimum = 7
	maximum = 57
Slowest flit = 30599
Fragmentation average = 0
	minimum = 0
	maximum = 0
Injected packet rate average = 0.049375
	minimum = 0.04 (at node 7)
	maximum = 0.058 (at node 8)
Accepted packet rate average = 0.04825
	minimum = 0.036 (at node 5)
	maximum = 0.064 (at node 15)
Injected flit rate average = 0.049375
	minimum = 0.04 (at node 7)
	maximum = 0.058 (at node 8)
Accepted flit rate average= 0.04825
	minimum = 0.036 (at node 5)
	maximum = 0.064 (at node 15)
Injected packet length average = 1
Accepted packet length average = 1
Total in-flight flits = 18 (0 measured)
latency change    = 1
throughput change = 1
Class 0:
Packet latency average = 20.2696
	minimum = 7
	maximum = 66
Network latency average = 20.2696
	minimum = 7
	maximum = 66
Slowest packet = 31105
Flit latency average = 20.2696
	minimum = 7
	maximum = 66
Slowest flit = 31105
Fragmentation average = 0
	minimum = 0
	maximum = 0
Injected packet rate average = 0.0494687
	minimum = 0.039 (at node 2)
	maximum = 0.0595 (at node 11)
Accepted packet rate average = 0.0490312
	minimum = 0.04 (at node 9)
	maximum = 0.062 (at node 15)
Injected flit rate average = 0.0494687
	minimum = 0.039 (at node 2)
	maximum = 0.0595 (at node 11)
Accepted flit rate average= 0.0490312
	minimum = 0.04 (at node 9)
	maximum = 0.062 (at node 15)
Injected packet length average = 1
Accepted packet length average = 1
Total in-flight flits = 14 (0 measured)
latency change    = 0.0108556
throughput change = 0.0159337
Class 0:
Packet latency average = 20.9686
	minimum = 7
	maximum = 55
Network latency average = 20.9686
	minimum = 7
	maximum = 55
Slowest packet = 31687
Flit latency average = 20.9686
	minimum = 7
	maximum = 55
Slowest flit = 31687
Fragmentation average = 0
	minimum = 0
	maximum = 0
Injected packet rate average = 0.046125
	minimum = 0.033 (at node 12)
	maximum = 0.055 (at node 8)
Accepted packet rate average = 0.0458125
	minimum = 0.031 (at node 4)
	maximum = 0.069 (at node 12)
Injected flit rate average = 0.046125
	minimum = 0.033 (at node 12)
	maximum = 0.055 (at node 8)
Accepted flit rate average= 0.0458125
	minimum = 0.031 (at node 4)
	maximum = 0.069 (at node 12)
Injected packet length average = 1
Accepted packet length average = 1
Total in-flight flits = 19 (0 measured)
latency change    = 0.0333367
throughput change = 0.0702592
Warmed up ...Time used is 3000 cycles
Class 0:
Packet latency average = 20.3363
	minimum = 7
	maximum = 50
Network latency average = 20.3363
	minimum = 7
	maximum = 50
Slowest packet = 32360
Flit latency average = 20.3697
	minimum = 7
	maximum = 50
Slowest flit = 32360
Fragmentation average = 0
	minimum = 0
	maximum = 0
Injected packet rate average = 0.0499375
	minimum = 0.035 (at node 6)
	maximum = 0.058 (at node 2)
Accepted packet rate average = 0.049875
	minimum = 0.034 (at node 11)
	maximum = 0.077 (at node 1)
Injected flit rate average = 0.0499375
	minimum = 0.035 (at node 6)
	maximum = 0.058 (at node 2)
Accepted flit rate average= 0.049875
	minimum = 0.034 (at node 11)
	maximum = 0.077 (at node 1)
Injected packet length average = 1
Accepted packet length average = 1
Total in-flight flits = 20 (20 measured)
latency change    = 0.0310918
throughput change = 0.0814536
Class 0:
Packet latency average = 20.4862
	minimum = 7
	maximum = 50
Network latency average = 20.4862
	minimum = 7
	maximum = 50
Slowest packet = 32360
Flit latency average = 20.5009
	minimum = 7
	maximum = 50
Slowest flit = 32360
Fragmentation average = 0
	minimum = 0
	maximum = 0
Injected packet rate average = 0.050375
	minimum = 0.0375 (at node 6)
	maximum = 0.0595 (at node 4)
Accepted packet rate average = 0.0505937
	minimum = 0.04 (at node 4)
	maximum = 0.0615 (at node 1)
Injected flit rate average = 0.050375
	minimum = 0.0375 (at node 6)
	maximum = 0.0595 (at node 4)
Accepted flit rate average= 0.0505937
	minimum = 0.04 (at node 4)
	maximum = 0.0615 (at node 1)
Injected packet length average = 1
Accepted packet length average = 1
Total in-flight flits = 12 (12 measured)
latency change    = 0.00731815
throughput change = 0.0142063
Class 0:
Packet latency average = 20.6181
	minimum = 7
	maximum = 60
Network latency average = 20.6181
	minimum = 7
	maximum = 60
Slowest packet = 34382
Flit latency average = 20.627
	minimum = 7
	maximum = 60
Slowest flit = 34382
Fragmentation average = 0
	minimum = 0
	maximum = 0
Injected packet rate average = 0.0495833
	minimum = 0.0413333 (at node 6)
	maximum = 0.056 (at node 4)
Accepted packet rate average = 0.0496042
	minimum = 0.041 (at node 2)
	maximum = 0.0566667 (at node 9)
Injected flit rate average = 0.0495833
	minimum = 0.0413333 (at node 6)
	maximum = 0.056 (at node 4)
Accepted flit rate average= 0.0496042
	minimum = 0.041 (at node 2)
	maximum = 0.0566667 (at node 9)
Injected packet length average = 1
Accepted packet length average = 1
Total in-flight flits = 18 (18 measured)
latency change    = 0.00639584
throughput change = 0.0199496
Class 0:
Packet latency average = 20.5932
	minimum = 7
	maximum = 60
Network latency average = 20.5932
	minimum = 7
	maximum = 60
Slowest packet = 34382
Flit latency average = 20.6
	minimum = 7
	maximum = 60
Slowest flit = 34382
Fragmentation average = 0
	minimum = 0
	maximum = 0
Injected packet rate average = 0.0501094
	minimum = 0.04275 (at node 6)
	maximum = 0.0555 (at node 4)
Accepted packet rate average = 0.0501562
	minimum = 0.04175 (at node 2)
	maximum = 0.05675 (at node 1)
Injected flit rate average = 0.0501094
	minimum = 0.04275 (at node 6)
	maximum = 0.0555 (at node 4)
Accepted flit rate average= 0.0501562
	minimum = 0.04175 (at node 2)
	maximum = 0.05675 (at node 1)
Injected packet length average = 1
Accepted packet length average = 1
Total in-flight flits = 16 (16 measured)
latency change    = 0.00120861
throughput change = 0.0110073
Draining all recorded packets ...
Draining remaining packets ...
Time taken is 7061 cycles
Class 0:
Packet latency average = 20.211
	minimum = 7
	maximum = 56
Network latency average = 20.211
	minimum = 7
	maximum = 56
Slowest packet = 35560
Flit latency average = 20.211
	minimum = 7
	maximum = 56
Slowest flit = 35560
Fragmentation average = 0
	minimum = 0
	maximum = 0
Injected packet rate average = 0.050875
	minimum = 0.04 (at node 13)
	maximum = 0.06 (at node 12)
Accepted packet rate average = 0.0500625
	minimum = 0.039 (at node 4)
	maximum = 0.067 (at node 5)
Injected flit rate average = 0.050875
	minimum = 0.04 (at node 13)
	maximum = 0.06 (at node 12)
Accepted flit rate average= 0.0500625
	minimum = 0.039 (at node 4)
	maximum = 0.067 (at node 5)
Injected packet length average = 1
Accepted packet length average = 1
Total in-flight flits = 13 (0 measured)
latency change    = 1
throughput change = 1
Class 0:
Packet latency average = 20.3907
	minimum = 7
	maximum = 56
Network latency average = 20.3907
	minimum = 7
	maximum = 56
Slowest packet = 35560
Flit latency average = 20.3907
	minimum = 7
	maximum = 56
Slowest flit = 35560
Fragmentation average = 0
	minimum = 0
	maximum = 0
Injected packet rate average = 0.050125
	minimum = 0.0435 (at node 15)
	maximum = 0.0565 (at node 3)
Accepted packet rate average = 0.0495937
	minimum = 0.038 (at node 12)
	maximum = 0.0655 (at node 5)
Injected flit rate average = 0.050125
	minimum = 0.0435 (at node 15)
	maximum = 0.0565 (at node 3)
Accepted flit rate average= 0.0495937
	minimum = 0.038 (at node 12)
	maximum = 0.0655 (at node 5)
Injected packet length average = 1
Accepted packet length average = 1
Total in-flight flits = 17 (0 measured)
latency change    = 0.00881226
throughput change = 0.0094518
Class 0:
Packet latency average = 20.2979
	minimum = 7
	maximum = 65
Network latency average = 20.2979
	minimum = 7
	maximum = 65
Slowest packet = 37679
Flit latency average = 20.2979
	minimum = 7
	maximum = 65
Slowest flit = 37679
Fragmentation average = 0
	minimum = 0
	maximum = 0
Injected packet rate average = 0.05
	minimum = 0.038 (at node 4)
	maximum = 0.063 (at node 12)
Accepted packet rate average = 0.0499375
	minimum = 0.04 (at node 14)
	maximum = 0.066 (at node 3)
Injected flit rate average = 0.05
	minimum = 0.038 (at node 4)
	maximum = 0.063 (at node 12)
Accepted flit rate average= 0.0499375
	minimum = 0.04 (at node 14)
	maximum = 0.066 (at node 3)
Injected packet length average = 1
Accepted packet length average = 1
Total in-flight flits = 18 (0 measured)
latency change    = 0.004572
throughput change = 0.0068836
Warmed up ...Time used is 3000 cycles
Class 0:
Packet latency average = 20.6262
	minimum = 7
	maximum = 54
Network latency average = 20.6262
	minimum = 7
	maximum = 54
Slowest packet = 38510
Flit latency average = 20.7164
	minimum = 7
	maximum = 54
Slowest flit = 38510
Fragmentation average = 0
	minimum = 0
	maximum = 0
Injected packet rate average = 0.05075
	minimum = 0.043 (at node 6)
	maximum = 0.06 (at node 3)
Accepted packet rate average = 0.051125
	minimum = 0.038 (at node 12)
	maximum = 0.064 (at node 3)
Injected flit rate average = 0.05075
	minimum = 0.043 (at node 6)
	maximum = 0.06 (at node 3)
Accepted flit rate average= 0.051125
	minimum = 0.038 (at node 12)
	maximum = 0.064 (at node 3)
Injected packet length average = 1
Accepted packet length average = 1
Total in-flight flits = 12 (12 measured)
latency change    = 0.0159204
throughput change = 0.0232274
Class 0:
Packet latency average = 20.5444
	minimum = 7
	maximum = 54
Network latency average = 20.5444
	minimum = 7
	maximum = 54
Slowest packet = 38510
Flit latency average = 20.5919
	minimum = 7
	maximum = 54
Slowest flit = 38510
Fragmentation average = 0
	minimum = 0
	maximum = 0
Injected packet rate average = 0.0492812
	minimum = 0.0425 (at node 10)
	maximum = 0.058 (at node 5)
Accepted packet rate average = 0.0494687
	minimum = 0.0405 (at node 7)
	maximum = 0.057 (at node 3)
Injected flit rate average = 0.0492812
	minimum = 0.0425 (at node 10)
	maximum = 0.058 (at node 5)
Accepted flit rate average= 0.0494687
	minimum = 0.0405 (at node 7)
	maximum = 0.057 (at node 3)
Injected packet length average = 1
Accepted packet length average = 1
Total in-flight flits = 12 (12 measured)
latency change    = 0.00398362
throughput change = 0.0334807
Class 0:
Packet latency average = 20.6672
	minimum = 7
	maximum = 54
Network latency average = 20.6672
	minimum = 7
	maximum = 54
Slowest packet = 38510
Flit latency average = 20.6972
	minimum = 7
	maximum = 54
Slowest flit = 38510
Fragmentation average = 0
	minimum = 0
	maximum = 0
Injected packet rate average = 0.0508542
	minimum = 0.0426667 (at node 13)
	maximum = 0.0583333 (at node 5)
Accepted packet rate average = 0.0506458
	minimum = 0.04 (at node 7)
	maximum = 0.0596667 (at node 3)
Injected flit rate average = 0.0508542
	minimum = 0.0426667 (at node 13)
	maximum = 0.0583333 (at node 5)
Accepted flit rate average= 0.0506458
	minimum = 0.04 (at node 7)
	maximum = 0.0596667 (at node 3)
Injected packet length average = 1
Accepted packet length average = 1
Total in-flight flits = 28 (28 measured)
latency change    = 0.00594227
throughput change = 0.0232415
Draining all recorded packets ...
Draining remaining packets ...
Time taken is 6065 cycles
Class 0:
Packet latency average = 20.405
	minimum = 7
	maximum = 61
Network latency average = 20.405
	minimum = 7
	maximum = 61
Slowest packet = 40499
Flit latency average = 20.405
	minimum = 7
	maximum = 61
Slowest flit = 40499
Fragmentation average = 0
	minimum = 0
	maximum = 0
Injected packet rate average = 0.051125
	minimum = 0.037 (at node 12)
	maximum = 0.065 (at node 4)
Accepted packet rate average = 0.0503125
	minimum = 0.039 (at node 12)
	maximum = 0.06 (at node 13)
Injected flit rate average = 0.051125
	minimum = 0.037 (at node 12)
	maximum = 0.065 (at node 4)
Accepted flit rate average= 0.0503125
	minimum = 0.039 (at node 12)
	maximum = 0.06 (at node 13)
Injected packet length average = 1
Accepted packet length average = 1
Total in-flight flits = 13 (0 measured)
latency change    = 1
throughput change = 1
Class 0:
Packet latency average = 20.6075
	minimum = 7
	maximum = 62
Network latency average = 20.6075
	minimum = 7
	maximum = 62
Slowest packet = 41667
Flit latency average = 20.6075
	minimum = 7
	maximum = 62
Slowest flit = 41667
Fragmentation average = 0
	minimum = 0
	maximum = 0
Injected packet rate average = 0.0503437
	minimum = 0.0415 (at node 12)
	maximum = 0.056 (at node 6)
Accepted packet rate average = 0.05
	minimum = 0.0435 (at node 14)
	maximum = 0.058 (at node 13)
Injected flit rate average = 0.0503437
	minimum = 0.0415 (at node 12)
	maximum = 0.056 (at node 6)
Accepted flit rate average= 0.05
	minimum = 0.0435 (at node 14)
	maximum = 0.058 (at node 13)
Injected packet length average = 1
Accepted packet length average = 1
Total in-flight flits = 11 (0 measured)
latency change    = 0.00982803
throughput change = 0.00625
Class 0:
Packet latency average = 21.1047
	minimum = 7
	maximum = 57
Network latency average = 21.1047
	minimum = 7
	maximum = 57
Slowest packet = 42275
Flit latency average = 21.1047
	minimum = 7
	maximum = 57
Slowest flit = 42275
Fragmentation average = 0
	minimum = 0
	maximum = 0
Injected packet rate average = 0.049
	minimum = 0.04 (at node 3)
	maximum = 0.063 (at node 13)
Accepted packet rate average = 0.0489375
	minimum = 0.037 (at node 10)
	maximum = 0.064 (at node 5)
Injected flit rate average = 0.049
	minimum = 0.04 (at node 3)
	maximum = 0.063 (at node 13)
Accepted flit rate average= 0.0489375
	minimum = 0.037 (at node 10)
	maximum = 0.064 (at node 5)
Injected packet length average = 1
Accepted packet length average = 1
Total in-flight flits = 12 (0 measured)
latency change    = 0.0235599
throughput change = 0.0217114
Warmed up ...Time used is 3000 cycles
Class 0:
Packet latency average = 19.8923
	minimum = 7
	maximum = 64
Network latency average = 19.8923
	minimum = 7
	maximum = 64
Slowest packet = 43371
Flit latency average = 19.9369
	minimum = 7
	maximum = 64
Slowest flit = 43371
Fragmentation average = 0
	minimum = 0
	maximum = 0
Injected packet rate average = 0.0499375
	minimum = 0.035 (at node 10)
	maximum = 0.06 (at node 9)
Accepted packet rate average = 0.0495
	minimum = 0.038 (at node 7)
	maximum = 0.061 (at node 10)
Injected flit rate average = 0.0499375
	minimum = 0.035 (at node 10)
	maximum = 0.06 (at node 9)
Accepted flit rate average= 0.0495
	minimum = 0.038 (at node 7)
	maximum = 0.061 (at node 10)
Injected packet length average = 1
Accepted packet length average = 1
Total in-flight flits = 19 (19 measured)
latency change    = 0.0609491
throughput change = 0.0113636
Class 0:
Packet latency average = 20.0995
	minimum = 7
	maximum = 64
Network latency average = 20.0995
	minimum = 7
	maximum = 64
Slowest packet = 43371
Flit latency average = 20.12
	minimum = 7
	maximum = 64
Slowest flit = 43371
Fragmentation average = 0
	minimum = 0
	maximum = 0
Injected packet rate average = 0.050125
	minimum = 0.0405 (at node 10)
	maximum = 0.0595 (at node 15)
Accepted packet rate average = 0.05
	minimum = 0.043 (at node 2)
	maximum = 0.06 (at node 9)
Injected flit rate average = 0.050125
	minimum = 0.0405 (at node 10)
	maximum = 0.0595 (at node 15)
Accepted flit rate average= 0.05
	minimum = 0.043 (at node 2)
	maximum = 0.06 (at node 9)
Injected packet length average = 1
Accepted packet length average = 1
Total in-flight flits = 16 (16 measured)
latency change    = 0.0103081
throughput change = 0.01
Class 0:
Packet latency average = 20.4799
	minimum = 7
	maximum = 64
Network latency average = 20.4799
	minimum = 7
	maximum = 64
Slowest packet = 43371
Flit latency average = 20.4915
	minimum = 7
	maximum = 64
Slowest flit = 43371
Fragmentation average = 0
	minimum = 0
	maximum = 0
Injected packet rate average = 0.0504167
	minimum = 0.0456667 (at node 3)
	maximum = 0.056 (at node 13)
Accepted packet rate average = 0.0503958
	minimum = 0.0426667 (at node 13)
	maximum = 0.0566667 (at node 15)
Injected flit rate average = 0.0504167
	minimum = 0.0456667 (at node 3)
	maximum = 0.056 (at node 13)
Accepted flit rate average= 0.0503958
	minimum = 0.0426667 (at node 13)
	maximum = 0.0566667 (at node 15)
Injected packet length average = 1
Accepted packet length average = 1
Total in-flight flits = 13 (13 measured)
latency change    = 0.0185721
throughput change = 0.00785449
Class 0:
Packet latency average = 20.4569
	minimum = 7
	maximum = 65
Network latency average = 20.4569
	minimum = 7
	maximum = 65
Slowest packet = 45704
Flit latency average = 20.4657
	minimum = 7
	maximum = 65
Slowest flit = 45704
Fragmentation average = 0
	minimum = 0
	maximum = 0
Injected packet rate average = 0.0508906
	minimum = 0.04725 (at node 12)
	maximum = 0.0575 (at node 13)
Accepted packet rate average = 0.0507969
	minimum = 0.0445 (at node 13)
	maximum = 0.0585 (at node 15)
Injected flit rate average = 0.0508906
	minimum = 0.04725 (at node 12)
	maximum = 0.0575 (at node 13)
Accepted flit rate average= 0.0507969
	minimum = 0.0445 (at node 13)
	maximum = 0.0585 (at node 15)
Injected packet length average = 1
Accepted packet length average = 1
Total in-flight flits = 18 (18 measured)
latency change    = 0.00112037
throughput change = 0.00789501
Draining all recorded packets ...
Draining remaining packets ...
Time taken is 7045 cycles
Class 0:
Packet latency average = 20.6521
	minimum = 7
	maximum = 57
Network latency average = 20.6521
	minimum = 7
	maximum = 57
Slowest packet = 46389
Flit latency average = 20.6521
	minimum = 7
	maximum = 57
Slowest flit = 46389
Fragmentation average = 0
	minimum = 0
	maximum = 0
Injected packet rate average = 0.04825
	minimum = 0.035 (at node 1)
	maximum = 0.058 (at node 3)
Accepted packet rate average = 0.0470625
	minimum = 0.038 (at node 3)
	maximum = 0.069 (at node 10)
Injected flit rate average = 0.04825
	minimum = 0.035 (at node 1)
	maximum = 0.058 (at node 3)
Accepted flit rate average= 0.0470625
	minimum = 0.038 (at node 3)
	maximum = 0.069 (at node 10)
Injected packet length average = 1
Accepted packet length average = 1
Total in-flight flits = 19 (0 measured)
latency change    = 1
throughput change = 1
Class 0:
Packet latency average = 20.5359
	minimum = 7
	maximum = 57
Network latency average = 20.5359
	minimum = 7
	maximum = 57
Slowest packet = 46389
Flit latency average = 20.5359
	minimum = 7
	maximum = 57
Slowest flit = 46389
Fragmentation average = 0
	minimum = 0
	maximum = 0
Injected packet rate average = 0.0485
	minimum = 0.04 (at node 11)
	maximum = 0.057 (at node 3)
Accepted packet rate average = 0.0478125
	minimum = 0.0415 (at node 0)
	maximum = 0.058 (at node 10)
Injected flit rate average = 0.0485
	minimum = 0.04 (at node 11)
	maximum = 0.057 (at node 3)
Accepted flit rate average= 0.0478125
	minimum = 0.0415 (at node 0)
	maximum = 0.058 (at node 10)
Injected packet length average = 1
Accepted packet length average = 1
Total in-flight flits = 22 (0 measured)
latency change    = 0.00565402
throughput change = 0.0156863
Class 0:
Packet latency average = 20.784
	minimum = 7
	maximum = 55
Network latency average = 20.784
	minimum = 7
	maximum = 55
Slowest packet = 48073
Flit latency average = 20.784
	minimum = 7
	maximum = 55
Slowest flit = 48073
Fragmentation average = 0
	minimum = 0
	maximum = 0
Injected packet rate average = 0.0466875
	minimum = 0.035 (at node 10)
	maximum = 0.063 (at node 9)
Accepted packet rate average = 0.046875
	minimum = 0.032 (at node 11)
	maximum = 0.057 (at node 2)
Injected flit rate average = 0.0466875
	minimum = 0.035 (at node 10)
	maximum = 0.063 (at node 9)
Accepted flit rate average= 0.046875
	minimum = 0.032 (at node 11)
	maximum = 0.057 (at node 2)
Injected packet length average = 1
Accepted packet length average = 1
Total in-flight flits = 19 (0 measured)
latency change    = 0.0119348
throughput change = 0.02
Warmed up ...Time used is 3000 cycles
Class 0:
Packet latency average = 20.5068
	minimum = 7
	maximum = 56
Network latency average = 20.5068
	minimum = 7
	maximum = 56
Slowest packet = 49040
Flit latency average = 20.5993
	minimum = 7
	maximum = 56
Slowest flit = 49040
Fragmentation average = 0
	minimum = 0
	maximum = 0
Injected packet rate average = 0.051125
	minimum = 0.036 (at node 13)
	maximum = 0.067 (at node 10)
Accepted packet rate average = 0.051625
	minimum = 0.039 (at node 6)
	maximum = 0.073 (at node 4)
Injected flit rate average = 0.051125
	minimum = 0.036 (at node 13)
	maximum = 0.067 (at node 10)
Accepted flit rate average= 0.051625
	minimum = 0.039 (at node 6)
	maximum = 0.073 (at node 4)
Injected packet length average = 1
Accepted packet length average = 1
Total in-flight flits = 11 (11 measured)
latency change    = 0.0135167
throughput change = 0.0920097
Class 0:
Packet latency average = 20.6955
	minimum = 7
	maximum = 58
Network latency average = 20.6955
	minimum = 7
	maximum = 58
Slowest packet = 49499
Flit latency average = 20.7407
	minimum = 7
	maximum = 58
Slowest flit = 49499
Fragmentation average = 0
	minimum = 0
	maximum = 0
Injected packet rate average = 0.0504687
	minimum = 0.0375 (at node 13)
	maximum = 0.0605 (at node 2)
Accepted packet rate average = 0.050375
	minimum = 0.04 (at node 14)
	maximum = 0.061 (at node 4)
Injected flit rate average = 0.0504687
	minimum = 0.0375 (at node 13)
	maximum = 0.0605 (at node 2)
Accepted flit rate average= 0.050375
	minimum = 0.04 (at node 14)
	maximum = 0.061 (at node 4)
Injected packet length average = 1
Accepted packet length average = 1
Total in-flight flits = 22 (22 measured)
latency change    = 0.00911924
throughput change = 0.0248139
Class 0:
Packet latency average = 20.7046
	minimum = 7
	maximum = 58
Network latency average = 20.7046
	minimum = 7
	maximum = 58
Slowest packet = 49499
Flit latency average = 20.7345
	minimum = 7
	maximum = 58
Slowest flit = 49499
Fragmentation average = 0
	minimum = 0
	maximum = 0
Injected packet rate average = 0.0506458
	minimum = 0.0436667 (at node 13)
	maximum = 0.064 (at node 2)
Accepted packet rate average = 0.0506875
	minimum = 0.043 (at node 14)
	maximum = 0.059 (at node 4)
Injected flit rate average = 0.0506458
	minimum = 0.0436667 (at node 13)
	maximum = 0.064 (at node 2)
Accepted flit rate average= 0.0506875
	minimum = 0.043 (at node 14)
	maximum = 0.059 (at node 4)
Injected packet length average = 1
Accepted packet length average = 1
Total in-flight flits = 17 (17 measured)
latency change    = 0.000439351
throughput change = 0.00616523
Class 0:
Packet latency average = 20.7462
	minimum = 7
	maximum = 60
Network latency average = 20.7462
	minimum = 7
	maximum = 60
Slowest packet = 51426
Flit latency average = 20.7684
	minimum = 7
	maximum = 60
Slowest flit = 51426
Fragmentation average = 0
	minimum = 0
	maximum = 0
Injected packet rate average = 0.050625
	minimum = 0.04225 (at node 13)
	maximum = 0.05975 (at node 2)
Accepted packet rate average = 0.0506562
	minimum = 0.04575 (at node 13)
	maximum = 0.05625 (at node 4)
Injected flit rate average = 0.050625
	minimum = 0.04225 (at node 13)
	maximum = 0.05975 (at node 2)
Accepted flit rate average= 0.0506562
	minimum = 0.04575 (at node 13)
	maximum = 0.05625 (at node 4)
Injected packet length average = 1
Accepted packet length average = 1
Total in-flight flits = 17 (17 measured)
latency change    = 0.00200324
throughput change = 0.000616903
Draining all recorded packets ...
Draining remaining packets ...
Time taken is 7072 cycles
Class 0:
Packet latency average = 20.1949
	minimum = 7
	maximum = 52
Network latency average = 20.1936
	minimum = 7
	maximum = 52
Slowest packet = 51794
Flit latency average = 20.1936
	minimum = 7
	maximum = 52
Slowest flit = 51794
Fragmentation average = 0
	minimum = 0
	maximum = 0
Injected packet rate average = 0.0503125
	minimum = 0.036 (at node 2)
	maximum = 0.058 (at node 6)
Accepted packet rate average = 0.0490625
	minimum = 0.038 (at node 12)
	maximum = 0.059 (at node 0)
Injected flit rate average = 0.0503125
	minimum = 0.036 (at node 2)
	maximum = 0.058 (at node 6)
Accepted flit rate average= 0.0490625
	minimum = 0.038 (at node 12)
	maximum = 0.059 (at node 0)
Injected packet length average = 1
Accepted packet length average = 1
Total in-flight flits = 20 (0 measured)
latency change    = 1
throughput change = 1
Class 0:
Packet latency average = 20.5022
	minimum = 7
	maximum = 53
Network latency average = 20.5015
	minimum = 7
	maximum = 53
Slowest packet = 52960
Flit latency average = 20.5015
	minimum = 7
	maximum = 53
Slowest flit = 52960
Fragmentation average = 0
	minimum = 0
	maximum = 0
Injected packet rate average = 0.05125
	minimum = 0.0365 (at node 5)
	maximum = 0.06 (at node 9)
Accepted packet rate average = 0.0507187
	minimum = 0.0405 (at node 3)
	maximum = 0.0595 (at node 1)
Injected flit rate average = 0.05125
	minimum = 0.0365 (at node 5)
	maximum = 0.06 (at node 9)
Accepted flit rate average= 0.0507187
	minimum = 0.0405 (at node 3)
	maximum = 0.0595 (at node 1)
Injected packet length average = 1
Accepted packet length average = 1
Total in-flight flits = 17 (0 measured)
latency change    = 0.0149863
throughput change = 0.0326556
Class 0:
Packet latency average = 20.4975
	minimum = 7
	maximum = 54
Network latency average = 20.4975
	minimum = 7
	maximum = 54
Slowest packet = 53443
Flit latency average = 20.4975
	minimum = 7
	maximum = 54
Slowest flit = 53443
Fragmentation average = 0
	minimum = 0
	maximum = 0
Injected packet rate average = 0.049875
	minimum = 0.034 (at node 1)
	maximum = 0.062 (at node 14)
Accepted packet rate average = 0.050125
	minimum = 0.036 (at node 8)
	maximum = 0.064 (at node 7)
Injected flit rate average = 0.049875
	minimum = 0.034 (at node 1)
	maximum = 0.062 (at node 14)
Accepted flit rate average= 0.050125
	minimum = 0.036 (at node 8)
	maximum = 0.064 (at node 7)
Injected packet length average = 1
Accepted packet length average = 1
Total in-flight flits = 13 (0 measured)
latency change    = 0.00022687
throughput change = 0.0118454
Warmed up ...Time used is 3000 cycles
Class 0:
Packet latency average = 20.451
	minimum = 7
	maximum = 53
Network latency average = 20.451
	minimum = 7
	maximum = 53
Slowest packet = 54498
Flit latency average = 20.4398
	minimum = 7
	maximum = 53
Slowest flit = 54498
Fragmentation average = 0
	minimum = 0
	maximum = 0
Injected packet rate average = 0.0499375
	minimum = 0.039 (at node 13)
	maximum = 0.062 (at node 8)
Accepted packet rate average = 0.049875
	minimum = 0.034 (at node 12)
	maximum = 0.065 (at node 9)
Injected flit rate average = 0.0499375
	minimum = 0.039 (at node 13)
	maximum = 0.062 (at node 8)
Accepted flit rate average= 0.049875
	minimum = 0.034 (at node 12)
	maximum = 0.065 (at node 9)
Injected packet length average = 1
Accepted packet length average = 1
Total in-flight flits = 14 (14 measured)
latency change    = 0.00227622
throughput change = 0.00501253
Class 0:
Packet latency average = 20.4622
	minimum = 7
	maximum = 55
Network latency average = 20.4622
	minimum = 7
	maximum = 55
Slowest packet = 55546
Flit latency average = 20.4566
	minimum = 7
	maximum = 55
Slowest flit = 55546
Fragmentation average = 0
	minimum = 0
	maximum = 0
Injected packet rate average = 0.05
	minimum = 0.037 (at node 13)
	maximum = 0.0565 (at node 4)
Accepted packet rate average = 0.0500312
	minimum = 0.041 (at node 3)
	maximum = 0.057 (at node 4)
Injected flit rate average = 0.05
	minimum = 0.037 (at node 13)
	maximum = 0.0565 (at node 4)
Accepted flit rate average= 0.0500312
	minimum = 0.041 (at node 3)
	maximum = 0.057 (at node 4)
Injected packet length average = 1
Accepted packet length average = 1
Total in-flight flits = 12 (12 measured)
latency change    = 0.000550342
throughput change = 0.00312305
Class 0:
Packet latency average = 20.695
	minimum = 7
	maximum = 55
Network latency average = 20.695
	minimum = 7
	maximum = 55
Slowest packet = 55546
Flit latency average = 20.6899
	minimum = 7
	maximum = 55
Slowest flit = 55546
Fragmentation average = 0
	minimum = 0
	maximum = 0
Injected packet rate average = 0.0498542
	minimum = 0.0396667 (at node 13)
	maximum = 0.0586667 (at node 4)
Accepted packet rate average = 0.0498542
	minimum = 0.0413333 (at node 3)
	maximum = 0.0583333 (at node 4)
Injected flit rate average = 0.0498542
	minimum = 0.0396667 (at node 13)
	maximum = 0.0586667 (at node 4)
Accepted flit rate average= 0.0498542
	minimum = 0.0413333 (at node 3)
	maximum = 0.0583333 (at node 4)
Injected packet length average = 1
Accepted packet length average = 1
Total in-flight flits = 13 (13 measured)
latency change    = 0.0112463
throughput change = 0.00355203
Draining all recorded packets ...
Draining remaining packets ...
Time taken is 6046 cycles
Class 0:
Packet latency average = 20.8051
	minimum = 7
	maximum = 60
Network latency average = 20.8051
	minimum = 7
	maximum = 60
Slowest packet = 56846
Flit latency average = 20.8051
	minimum = 7
	maximum = 60
Slowest flit = 56846
Fragmentation average = 0
	minimum = 0
	maximum = 0
Injected packet rate average = 0.0498125
	minimum = 0.036 (at node 13)
	maximum = 0.059 (at node 9)
Accepted packet rate average = 0.04875
	minimum = 0.034 (at node 13)
	maximum = 0.062 (at node 4)
Injected flit rate average = 0.0498125
	minimum = 0.036 (at node 13)
	maximum = 0.059 (at node 9)
Accepted flit rate average= 0.04875
	minimum = 0.034 (at node 13)
	maximum = 0.062 (at node 4)
Injected packet length average = 1
Accepted packet length average = 1
Total in-flight flits = 17 (0 measured)
latency change    = 1
throughput change = 1
Class 0:
Packet latency average = 20.6336
	minimum = 7
	maximum = 60
Network latency average = 20.6336
	minimum = 7
	maximum = 60
Slowest packet = 56846
Flit latency average = 20.6336
	minimum = 7
	maximum = 60
Slowest flit = 56846
Fragmentation average = 0
	minimum = 0
	maximum = 0
Injected packet rate average = 0.0505625
	minimum = 0.0395 (at node 13)
	maximum = 0.063 (at node 15)
Accepted packet rate average = 0.0500625
	minimum = 0.037 (at node 13)
	maximum = 0.065 (at node 4)
Injected flit rate average = 0.0505625
	minimum = 0.0395 (at node 13)
	maximum = 0.063 (at node 15)
Accepted flit rate average= 0.0500625
	minimum = 0.037 (at node 13)
	maximum = 0.065 (at node 4)
Injected packet length average = 1
Accepted packet length average = 1
Total in-flight flits = 16 (0 measured)
latency change    = 0.00831388
throughput change = 0.0262172
Class 0:
Packet latency average = 20.6771
	minimum = 7
	maximum = 48
Network latency average = 20.6771
	minimum = 7
	maximum = 48
Slowest packet = 58616
Flit latency average = 20.6771
	minimum = 7
	maximum = 48
Slowest flit = 58616
Fragmentation average = 0
	minimum = 0
	maximum = 0
Injected packet rate average = 0.04825
	minimum = 0.041 (at node 12)
	maximum = 0.062 (at node 15)
Accepted packet rate average = 0.048
	minimum = 0.038 (at node 10)
	maximum = 0.057 (at node 1)
Injected flit rate average = 0.04825
	minimum = 0.041 (at node 12)
	maximum = 0.062 (at node 15)
Accepted flit rate average= 0.048
	minimum = 0.038 (at node 10)
	maximum = 0.057 (at node 1)
Injected packet length average = 1
Accepted packet length average = 1
Total in-flight flits = 20 (0 measured)
latency change    = 0.00210379
throughput change = 0.0429688
Warmed up ...Time used is 3000 cycles
Class 0:
Packet latency average = 20.7198
	minimum = 7
	maximum = 81
Network latency average = 20.7198
	minimum = 7
	maximum = 81
Slowest packet = 58943
Flit latency average = 20.935
	minimum = 7
	maximum = 81
Slowest flit = 58943
Fragmentation average = 0
	minimum = 0
	maximum = 0
Injected packet rate average = 0.0508125
	minimum = 0.038 (at node 4)
	maximum = 0.06 (at node 11)
Accepted packet rate average = 0.051
	minimum = 0.035 (at node 12)
	maximum = 0.079 (at node 6)
Injected flit rate average = 0.0508125
	minimum = 0.038 (at node 4)
	maximum = 0.06 (at node 11)
Accepted flit rate average= 0.051
	minimum = 0.035 (at node 12)
	maximum = 0.079 (at node 6)
Injected packet length average = 1
Accepted packet length average = 1
Total in-flight flits = 17 (17 measured)
latency change    = 0.00206401
throughput change = 0.0588235
Class 0:
Packet latency average = 21.011
	minimum = 7
	maximum = 81
Network latency average = 21.011
	minimum = 7
	maximum = 81
Slowest packet = 58943
Flit latency average = 21.1139
	minimum = 7
	maximum = 81
Slowest flit = 58943
Fragmentation average = 0
	minimum = 0
	maximum = 0
Injected packet rate average = 0.0515938
	minimum = 0.0445 (at node 2)
	maximum = 0.0635 (at node 12)
Accepted packet rate average = 0.0515938
	minimum = 0.0395 (at node 5)
	maximum = 0.073 (at node 6)
Injected flit rate average = 0.0515938
	minimum = 0.0445 (at node 2)
	maximum = 0.0635 (at node 12)
Accepted flit rate average= 0.0515938
	minimum = 0.0395 (at node 5)
	maximum = 0.073 (at node 6)
Injected packet length average = 1
Accepted packet length average = 1
Total in-flight flits = 20 (20 measured)
latency change    = 0.0138588
throughput change = 0.0115082
Class 0:
Packet latency average = 20.9004
	minimum = 7
	maximum = 81
Network latency average = 20.9004
	minimum = 7
	maximum = 81
Slowest packet = 58943
Flit latency average = 20.9703
	minimum = 7
	maximum = 81
Slowest flit = 58943
Fragmentation average = 0
	minimum = 0
	maximum = 0
Injected packet rate average = 0.0511458
	minimum = 0.0446667 (at node 10)
	maximum = 0.0593333 (at node 12)
Accepted packet rate average = 0.0512292
	minimum = 0.0413333 (at node 5)
	maximum = 0.0623333 (at node 6)
Injected flit rate average = 0.0511458
	minimum = 0.0446667 (at node 10)
	maximum = 0.0593333 (at node 12)
Accepted flit rate average= 0.0512292
	minimum = 0.0413333 (at node 5)
	maximum = 0.0623333 (at node 6)
Injected packet length average = 1
Accepted packet length average = 1
Total in-flight flits = 16 (16 measured)
latency change    = 0.00529499
throughput change = 0.00711671
Class 0:
Packet latency average = 20.7152
	minimum = 7
	maximum = 81
Network latency average = 20.7152
	minimum = 7
	maximum = 81
Slowest packet = 58943
Flit latency average = 20.769
	minimum = 7
	maximum = 81
Slowest flit = 58943
Fragmentation average = 0
	minimum = 0
	maximum = 0
Injected packet rate average = 0.0509844
	minimum = 0.04625 (at node 4)
	maximum = 0.05625 (at node 12)
Accepted packet rate average = 0.0510625
	minimum = 0.04375 (at node 5)
	maximum = 0.0605 (at node 6)
Injected flit rate average = 0.0509844
	minimum = 0.04625 (at node 4)
	maximum = 0.05625 (at node 12)
Accepted flit rate average= 0.0510625
	minimum = 0.04375 (at node 5)
	maximum = 0.0605 (at node 6)
Injected packet length average = 1
Accepted packet length average = 1
Total in-flight flits = 15 (15 measured)
latency change    = 0.00893834
throughput change = 0.00326397
Draining all recorded packets ...
Draining remaining packets ...
Time taken is 7063 cycles
Class 0:
Packet latency average = 20.3183
	minimum = 7
	maximum = 51
Network latency average = 20.3183
	minimum = 7
	maximum = 51
Slowest packet = 62129
Flit latency average = 20.3183
	minimum = 7
	maximum = 51
Slowest flit = 62129
Fragmentation average = 0
	minimum = 0
	maximum = 0
Injected packet rate average = 0.0509375
	minimum = 0.044 (at node 10)
	maximum = 0.065 (at node 1)
Accepted packet rate average = 0.049875
	minimum = 0.036 (at node 12)
	maximum = 0.065 (at node 7)
Injected flit rate average = 0.0509375
	minimum = 0.044 (at node 10)
	maximum = 0.065 (at node 1)
Accepted flit rate average= 0.049875
	minimum = 0.036 (at node 12)
	maximum = 0.065 (at node 7)
Injected packet length average = 1
Accepted packet length average = 1
Total in-flight flits = 17 (0 measured)
latency change    = 1
throughput change = 1
Class 0:
Packet latency average = 20.6826
	minimum = 7
	maximum = 62
Network latency average = 20.6826
	minimum = 7
	maximum = 62
Slowest packet = 63244
Flit latency average = 20.6826
	minimum = 7
	maximum = 62
Slowest flit = 63244
Fragmentation average = 0
	minimum = 0
	maximum = 0
Injected packet rate average = 0.0493125
	minimum = 0.0435 (at node 7)
	maximum = 0.058 (at node 12)
Accepted packet rate average = 0.0489375
	minimum = 0.038 (at node 12)
	maximum = 0.061 (at node 11)
Injected flit rate average = 0.0493125
	minimum = 0.0435 (at node 7)
	maximum = 0.058 (at node 12)
Accepted flit rate average= 0.0489375
	minimum = 0.038 (at node 12)
	maximum = 0.061 (at node 11)
Injected packet length average = 1
Accepted packet length average = 1
Total in-flight flits = 12 (0 measured)
latency change    = 0.0176155
throughput change = 0.0191571
Class 0:
Packet latency average = 20.6812
	minimum = 7
	maximum = 58
Network latency average = 20.6812
	minimum = 7
	maximum = 58
Slowest packet = 64054
Flit latency average = 20.6812
	minimum = 7
	maximum = 58
Slowest flit = 64054
Fragmentation average = 0
	minimum = 0
	maximum = 0
Injected packet rate average = 0.049
	minimum = 0.031 (at node 4)
	maximum = 0.06 (at node 12)
Accepted packet rate average = 0.048625
	minimum = 0.038 (at node 9)
	maximum = 0.059 (at node 3)
Injected flit rate average = 0.049
	minimum = 0.031 (at node 4)
	maximum = 0.06 (at node 12)
Accepted flit rate average= 0.048625
	minimum = 0.038 (at node 9)
	maximum = 0.059 (at node 3)
Injected packet length average = 1
Accepted packet length average = 1
Total in-flight flits = 18 (0 measured)
latency change    = 6.75479e-05
throughput change = 0.00642674
Warmed up ...Time used is 3000 cycles
Class 0:
Packet latency average = 20.2063
	minimum = 7
	maximum = 56
Network latency average = 20.2063
	minimum = 7
	maximum = 56
Slowest packet = 64540
Flit latency average = 20.3863
	minimum = 7
	maximum = 56
Slowest flit = 64540
Fragmentation average = 0
	minimum = 0
	maximum = 0
Injected packet rate average = 0.051
	minimum = 0.037 (at node 5)
	maximum = 0.064 (at node 12)
Accepted packet rate average = 0.051125
	minimum = 0.039 (at node 10)
	maximum = 0.063 (at node 1)
Injected flit rate average = 0.051
	minimum = 0.037 (at node 5)
	maximum = 0.064 (at node 12)
Accepted flit rate average= 0.051125
	minimum = 0.039 (at node 10)
	maximum = 0.063 (at node 1)
Injected packet length average = 1
Accepted packet length average = 1
Total in-flight flits = 16 (16 measured)
latency change    = 0.0235068
throughput change = 0.0488998
Class 0:
Packet latency average = 20.2658
	minimum = 7
	maximum = 56
Network latency average = 20.2658
	minimum = 7
	maximum = 56
Slowest packet = 64540
Flit latency average = 20.3546
	minimum = 7
	maximum = 56
Slowest flit = 64540
Fragmentation average = 0
	minimum = 0
	maximum = 0
Injected packet rate average = 0.051375
	minimum = 0.042 (at node 10)
	maximum = 0.059 (at node 1)
Accepted packet rate average = 0.0514688
	minimum = 0.0445 (at node 6)
	maximum = 0.064 (at node 1)
Injected flit rate average = 0.051375
	minimum = 0.042 (at node 10)
	maximum = 0.059 (at node 1)
Accepted flit rate average= 0.0514688
	minimum = 0.0445 (at node 6)
	maximum = 0.064 (at node 1)
Injected packet length average = 1
Accepted packet length average = 1
Total in-flight flits = 15 (15 measured)
latency change    = 0.0029388
throughput change = 0.00667881
Class 0:
Packet latency average = 20.1755
	minimum = 7
	maximum = 65
Network latency average = 20.1755
	minimum = 7
	maximum = 65
Slowest packet = 66562
Flit latency average = 20.2358
	minimum = 7
	maximum = 65
Slowest flit = 66562
Fragmentation average = 0
	minimum = 0
	maximum = 0
Injected packet rate average = 0.0510417
	minimum = 0.045 (at node 10)
	maximum = 0.0576667 (at node 1)
Accepted packet rate average = 0.0510625
	minimum = 0.045 (at node 9)
	maximum = 0.058 (at node 7)
Injected flit rate average = 0.0510417
	minimum = 0.045 (at node 10)
	maximum = 0.0576667 (at node 1)
Accepted flit rate average= 0.0510625
	minimum = 0.045 (at node 9)
	maximum = 0.058 (at node 7)
Injected packet length average = 1
Accepted packet length average = 1
Total in-flight flits = 17 (17 measured)
latency change    = 0.00447591
throughput change = 0.00795594
Draining all recorded packets ...
Draining remaining packets ...
Time taken is 6074 cycles
Class 0:
Packet latency average = 20.6295
	minimum = 7
	maximum = 57
Network latency average = 20.6295
	minimum = 7
	maximum = 57
Slowest packet = 67015
Flit latency average = 20.6295
	minimum = 7
	maximum = 57
Slowest flit = 67015
Fragmentation average = 0
	minimum = 0
	maximum = 0
Injected packet rate average = 0.0516875
	minimum = 0.039 (at node 12)
	maximum = 0.063 (at node 2)
Accepted packet rate average = 0.0504375
	minimum = 0.04 (at node 4)
	maximum = 0.066 (at node 5)
Injected flit rate average = 0.0516875
	minimum = 0.039 (at node 12)
	maximum = 0.063 (at node 2)
Accepted flit rate average= 0.0504375
	minimum = 0.04 (at node 4)
	maximum = 0.066 (at node 5)
Injected packet length average = 1
Accepted packet length average = 1
Total in-flight flits = 20 (0 measured)
latency change    = 1
throughput change = 1
Class 0:
Packet latency average = 20.6424
	minimum = 7
	maximum = 57
Network latency average = 20.6424
	minimum = 7
	maximum = 57
Slowest packet = 67015
Flit latency average = 20.6424
	minimum = 7
	maximum = 57
Slowest flit = 67015
Fragmentation average = 0
	minimum = 0
	maximum = 0
Injected packet rate average = 0.0524688
	minimum = 0.0425 (at node 12)
	maximum = 0.0585 (at node 2)
Accepted packet rate average = 0.0519063
	minimum = 0.0455 (at node 13)
	maximum = 0.064 (at node 5)
Injected flit rate average = 0.0524688
	minimum = 0.0425 (at node 12)
	maximum = 0.0585 (at node 2)
Accepted flit rate average= 0.0519063
	minimum = 0.0455 (at node 13)
	maximum = 0.064 (at node 5)
Injected packet length average = 1
Accepted packet length average = 1
Total in-flight flits = 18 (0 measured)
latency change    = 0.000624548
throughput change = 0.0282962
Class 0:
Packet latency average = 20.5845
	minimum = 7
	maximum = 61
Network latency average = 20.5845
	minimum = 7
	maximum = 61
Slowest packet = 68900
Flit latency average = 20.5845
	minimum = 7
	maximum = 61
Slowest flit = 68900
Fragmentation average = 0
	minimum = 0
	maximum = 0
Injected packet rate average = 0.049
	minimum = 0.04 (at node 1)
	maximum = 0.062 (at node 3)
Accepted packet rate average = 0.0491875
	minimum = 0.039 (at node 8)
	maximum = 0.06 (at node 11)
Injected flit rate average = 0.049
	minimum = 0.04 (at node 1)
	maximum = 0.062 (at node 3)
Accepted flit rate average= 0.0491875
	minimum = 0.039 (at node 8)
	maximum = 0.06 (at node 11)
Injected packet length average = 1
Accepted packet length average = 1
Total in-flight flits = 15 (0 measured)
latency change    = 0.00281212
throughput change = 0.0552732
Warmed up ...Time used is 3000 cycles
Class 0:
Packet latency average = 20.8273
	minimum = 7
	maximum = 55
Network latency average = 20.8273
	minimum = 7
	maximum = 55
Slowest packet = 69559
Flit latency average = 20.9045
	minimum = 7
	maximum = 55
Slowest flit = 69559
Fragmentation average = 0
	minimum = 0
	maximum = 0
Injected packet rate average = 0.04925
	minimum = 0.035 (at node 2)
	maximum = 0.06 (at node 14)
Accepted packet rate average = 0.0490625
	minimum = 0.033 (at node 4)
	maximum = 0.075 (at node 12)
Injected flit rate average = 0.04925
	minimum = 0.035 (at node 2)
	maximum = 0.06 (at node 14)
Accepted flit rate average= 0.0490625
	minimum = 0.033 (at node 4)
	maximum = 0.075 (at node 12)
Injected packet length average = 1
Accepted packet length average = 1
Total in-flight flits = 18 (18 measured)
latency change    = 0.0116566
throughput change = 0.00254777
Class 0:
Packet latency average = 20.8362
	minimum = 7
	maximum = 57
Network latency average = 20.8362
	minimum = 7
	maximum = 57
Slowest packet = 70276
Flit latency average = 20.8745
	minimum = 7
	maximum = 57
Slowest flit = 70276
Fragmentation average = 0
	minimum = 0
	maximum = 0
Injected packet rate average = 0.0491875
	minimum = 0.0405 (at node 2)
	maximum = 0.0615 (at node 1)
Accepted packet rate average = 0.0493125
	minimum = 0.04 (at node 4)
	maximum = 0.062 (at node 12)
Injected flit rate average = 0.0491875
	minimum = 0.0405 (at node 2)
	maximum = 0.0615 (at node 1)
Accepted flit rate average= 0.0493125
	minimum = 0.04 (at node 4)
	maximum = 0.062 (at node 12)
Injected packet length average = 1
Accepted packet length average = 1
Total in-flight flits = 11 (11 measured)
latency change    = 0.000429046
throughput change = 0.00506971
Class 0:
Packet latency average = 20.739
	minimum = 7
	maximum = 61
Network latency average = 20.739
	minimum = 7
	maximum = 61
Slowest packet = 71023
Flit latency average = 20.765
	minimum = 7
	maximum = 61
Slowest flit = 71023
Fragmentation average = 0
	minimum = 0
	maximum = 0
Injected packet rate average = 0.0497708
	minimum = 0.0443333 (at node 8)
	maximum = 0.0586667 (at node 1)
Accepted packet rate average = 0.0497292
	minimum = 0.0436667 (at node 4)
	maximum = 0.0596667 (at node 12)
Injected flit rate average = 0.0497708
	minimum = 0.0443333 (at node 8)
	maximum = 0.0586667 (at node 1)
Accepted flit rate average= 0.0497292
	minimum = 0.0436667 (at node 4)
	maximum = 0.0596667 (at node 12)
Injected packet length average = 1
Accepted packet length average = 1
Total in-flight flits = 17 (17 measured)
latency change    = 0.00468554
throughput change = 0.00837872
Draining all recorded packets ...
Draining remaining packets ...
Time taken is 6059 cycles
Class 0:
Packet latency average = 20.6061
	minimum = 7
	maximum = 53
Network latency average = 20.6061
	minimum = 7
	maximum = 53
Slowest packet = 71962
Flit latency average = 20.6061
	minimum = 7
	maximum = 53
Slowest flit = 71962
Fragmentation average = 0
	minimum = 0
	maximum = 0
Injected packet rate average = 0.05025
	minimum = 0.041 (at node 7)
	maximum = 0.062 (at node 15)
Accepted packet rate average = 0.0491875
	minimum = 0.04 (at node 7)
	maximum = 0.068 (at node 5)
Injected flit rate average = 0.05025
	minimum = 0.041 (at node 7)
	maximum = 0.062 (at node 15)
Accepted flit rate average= 0.0491875
	minimum = 0.04 (at node 7)
	maximum = 0.068 (at node 5)
Injected packet length average = 1
Accepted packet length average = 1
Total in-flight flits = 17 (0 measured)
latency change    = 1
throughput change = 1
Class 0:
Packet latency average = 20.6537
	minimum = 7
	maximum = 58
Network latency average = 20.6537
	minimum = 7
	maximum = 58
Slowest packet = 72864
Flit latency average = 20.6537
	minimum = 7
	maximum = 58
Slowest flit = 72864
Fragmentation average = 0
	minimum = 0
	maximum = 0
Injected packet rate average = 0.0486875
	minimum = 0.041 (at node 14)
	maximum = 0.057 (at node 15)
Accepted packet rate average = 0.048375
	minimum = 0.043 (at node 4)
	maximum = 0.0585 (at node 5)
Injected flit rate average = 0.0486875
	minimum = 0.041 (at node 14)
	maximum = 0.057 (at node 15)
Accepted flit rate average= 0.048375
	minimum = 0.043 (at node 4)
	maximum = 0.0585 (at node 5)
Injected packet length average = 1
Accepted packet length average = 1
Total in-flight flits = 10 (0 measured)
latency change    = 0.00230697
throughput change = 0.0167959
Class 0:
Packet latency average = 20.8382
	minimum = 7
	maximum = 56
Network latency average = 20.8382
	minimum = 7
	maximum = 56
Slowest packet = 73974
Flit latency average = 20.8382
	minimum = 7
	maximum = 56
Slowest flit = 73974
Fragmentation average = 0
	minimum = 0
	maximum = 0
Injected packet rate average = 0.05175
	minimum = 0.044 (at node 8)
	maximum = 0.058 (at node 12)
Accepted packet rate average = 0.05175
	minimum = 0.04 (at node 4)
	maximum = 0.061 (at node 3)
Injected flit rate average = 0.05175
[...]
	maximum = 0.063 (at node 11)
Accepted packet rate average = 0.049625
	minimum = 0.039 (at node 9)
	maximum = 0.066 (at node 15)
Injected flit rate average = 0.05
	minimum = 0.04 (at node 0)
	maximum = 0.063 (at node 11)
Accepted flit rate average= 0.049625
	minimum = 0.039 (at node 9)
	maximum = 0.066 (at node 15)
Injected packet length average = 1
Accepted packet length average = 1
Total in-flight flits = 14 (0 measured)
latency change    = 0.0204615
throughput change = 0.00881612
Warmed up ...Time used is 3000 cycles
Class 0:
Packet latency average = 20.3447
	minimum = 7
	maximum = 75
Network latency average = 20.3447
	minimum = 7
	maximum = 75
Slowest packet = 495936
Flit latency average = 20.3869
	minimum = 7
	maximum = 75
Slowest flit = 495936
Fragmentation average = 0
	minimum = 0
	maximum = 0
Injected packet rate average = 0.050875
	minimum = 0.04 (at node 15)
	maximum = 0.058 (at node 7)
Accepted packet rate average = 0.0505625
	minimum = 0.038 (at node 10)
	maximum = 0.073 (at node 5)
Injected flit rate average = 0.050875
	minimum = 0.04 (at node 15)
	maximum = 0.058 (at node 7)
Accepted flit rate average= 0.0505625
	minimum = 0.038 (at node 10)
	maximum = 0.073 (at node 5)
Injected packet length average = 1
Accepted packet length average = 1
Total in-flight flits = 19 (19 measured)
latency change    = 0.0260216
throughput change = 0.0185414
Class 0:
Packet latency average = 20.4332
	minimum = 7
	maximum = 75
Network latency average = 20.4332
	minimum = 7
	maximum = 75
Slowest packet = 495936
Flit latency average = 20.4542
	minimum = 7
	maximum = 75
Slowest flit = 495936
Fragmentation average = 0
	minimum = 0
	maximum = 0
Injected packet rate average = 0.049125
	minimum = 0.042 (at node 10)
	maximum = 0.057 (at node 12)
Accepted packet rate average = 0.049125
	minimum = 0.042 (at node 1)
	maximum = 0.0655 (at node 5)
Injected flit rate average = 0.049125
	minimum = 0.042 (at node 10)
	maximum = 0.057 (at node 12)
Accepted flit rate average= 0.049125
	minimum = 0.042 (at node 1)
	maximum = 0.0655 (at node 5)
Injected packet length average = 1
Accepted packet length average = 1
Total in-flight flits = 14 (14 measured)
latency change    = 0.00433576
throughput change = 0.0292621
Class 0:
Packet latency average = 20.4077
	minimum = 7
	maximum = 75
Network latency average = 20.4077
	minimum = 7
	maximum = 75
Slowest packet = 495936
Flit latency average = 20.4215
	minimum = 7
	maximum = 75
Slowest flit = 495936
Fragmentation average = 0
	minimum = 0
	maximum = 0
Injected packet rate average = 0.0505417
	minimum = 0.0423333 (at node 10)
	maximum = 0.0606667 (at node 12)
Accepted packet rate average = 0.0503125
	minimum = 0.0446667 (at node 8)
	maximum = 0.0583333 (at node 5)
Injected flit rate average = 0.0505417
	minimum = 0.0423333 (at node 10)
	maximum = 0.0606667 (at node 12)
Accepted flit rate average= 0.0503125
	minimum = 0.0446667 (at node 8)
	maximum = 0.0583333 (at node 5)
Injected packet length average = 1
Accepted packet length average = 1
Total in-flight flits = 25 (25 measured)
latency change    = 0.00124957
throughput change = 0.0236025
Draining all recorded packets ...
Draining remaining packets ...
Time taken is 6053 cycles
Class 0:
Packet latency average = 20.3679
	minimum = 7
	maximum = 59
Network latency average = 20.3679
	minimum = 7
	maximum = 59
Slowest packet = 497998
Flit latency average = 20.3679
	minimum = 7
	maximum = 59
Slowest flit = 497998
Fragmentation average = 0
	minimum = 0
	maximum = 0
Injected packet rate average = 0.0494375
	minimum = 0.04 (at node 4)
	maximum = 0.06 (at node 6)
Accepted packet rate average = 0.04875
	minimum = 0.036 (at node 5)
	maximum = 0.06 (at node 13)
Injected flit rate average = 0.0494375
	minimum = 0.04 (at node 4)
	maximum = 0.06 (at node 6)
Accepted flit rate average= 0.04875
	minimum = 0.036 (at node 5)
	maximum = 0.06 (at node 13)
Injected packet length average = 1
Accepted packet length average = 1
Total in-flight flits = 11 (0 measured)
latency change    = 1
throughput change = 1
Class 0:
Packet latency average = 20.7481
	minimum = 7
	maximum = 59
Network latency average = 20.7481
	minimum = 7
	maximum = 59
Slowest packet = 497998
Flit latency average = 20.7481
	minimum = 7
	maximum = 59
Slowest flit = 497998
Fragmentation average = 0
	minimum = 0
	maximum = 0
Injected packet rate average = 0.0490937
	minimum = 0.0435 (at node 12)
	maximum = 0.0585 (at node 7)
Accepted packet rate average = 0.048375
	minimum = 0.041 (at node 3)
	maximum = 0.057 (at node 13)
Injected flit rate average = 0.0490937
	minimum = 0.0435 (at node 12)
	maximum = 0.0585 (at node 7)
Accepted flit rate average= 0.048375
	minimum = 0.041 (at node 3)
	maximum = 0.057 (at node 13)
Injected packet length average = 1
Accepted packet length average = 1
Total in-flight flits = 23 (0 measured)
latency change    = 0.0183204
throughput change = 0.00775194
Class 0:
Packet latency average = 20.1751
	minimum = 7
	maximum = 54
Network latency average = 20.1751
	minimum = 7
	maximum = 54
Slowest packet = 499584
Flit latency average = 20.1751
	minimum = 7
	maximum = 54
Slowest flit = 499584
Fragmentation average = 0
	minimum = 0
	maximum = 0
Injected packet rate average = 0.0500625
	minimum = 0.035 (at node 15)
	maximum = 0.066 (at node 6)
Accepted packet rate average = 0.0506875
	minimum = 0.038 (at node 7)
	maximum = 0.061 (at node 2)
Injected flit rate average = 0.0500625
	minimum = 0.035 (at node 15)
	maximum = 0.066 (at node 6)
Accepted flit rate average= 0.0506875
	minimum = 0.038 (at node 7)
	maximum = 0.061 (at node 2)
Injected packet length average = 1
Accepted packet length average = 1
Total in-flight flits = 13 (0 measured)
latency change    = 0.0283998
throughput change = 0.0456227
Warmed up ...Time used is 3000 cycles
Class 0:
Packet latency average = 20.7092
	minimum = 7
	maximum = 57
Network latency average = 20.7092
	minimum = 7
	maximum = 57
Slowest packet = 500402
Flit latency average = 20.7308
	minimum = 7
	maximum = 57
Slowest flit = 500402
Fragmentation average = 0
	minimum = 0
	maximum = 0
Injected packet rate average = 0.0515625
	minimum = 0.044 (at node 12)
	maximum = 0.061 (at node 1)
Accepted packet rate average = 0.0513125
	minimum = 0.039 (at node 1)
	maximum = 0.07 (at node 2)
Injected flit rate average = 0.0515625
	minimum = 0.044 (at node 12)
	maximum = 0.061 (at node 1)
Accepted flit rate average= 0.0513125
	minimum = 0.039 (at node 1)
	maximum = 0.07 (at node 2)
Injected packet length average = 1
Accepted packet length average = 1
Total in-flight flits = 17 (17 measured)
latency change    = 0.0257889
throughput change = 0.0121803
Class 0:
Packet latency average = 20.5683
	minimum = 7
	maximum = 57
Network latency average = 20.5683
	minimum = 7
	maximum = 57
Slowest packet = 500402
Flit latency average = 20.5806
	minimum = 7
	maximum = 57
Slowest flit = 500402
Fragmentation average = 0
	minimum = 0
	maximum = 0
Injected packet rate average = 0.0496875
	minimum = 0.043 (at node 11)
	maximum = 0.0555 (at node 3)
Accepted packet rate average = 0.049625
	minimum = 0.0425 (at node 7)
	maximum = 0.0645 (at node 2)
Injected flit rate average = 0.0496875
	minimum = 0.043 (at node 11)
	maximum = 0.0555 (at node 3)
Accepted flit rate average= 0.049625
	minimum = 0.0425 (at node 7)
	maximum = 0.0645 (at node 2)
Injected packet length average = 1
Accepted packet length average = 1
Total in-flight flits = 15 (15 measured)
latency change    = 0.00685058
throughput change = 0.034005
Class 0:
Packet latency average = 20.5711
	minimum = 7
	maximum = 57
Network latency average = 20.5707
	minimum = 7
	maximum = 57
Slowest packet = 500402
Flit latency average = 20.5789
	minimum = 7
	maximum = 57
Slowest flit = 500402
Fragmentation average = 0
	minimum = 0
	maximum = 0
Injected packet rate average = 0.05
	minimum = 0.0443333 (at node 11)
	maximum = 0.056 (at node 0)
Accepted packet rate average = 0.0499167
	minimum = 0.0426667 (at node 7)
	maximum = 0.0623333 (at node 2)
Injected flit rate average = 0.05
	minimum = 0.0443333 (at node 11)
	maximum = 0.056 (at node 0)
Accepted flit rate average= 0.0499167
	minimum = 0.0426667 (at node 7)
	maximum = 0.0623333 (at node 2)
Injected packet length average = 1
Accepted packet length average = 1
Total in-flight flits = 17 (17 measured)
latency change    = 0.000139752
throughput change = 0.00584307
Draining all recorded packets ...
Draining remaining packets ...
Time taken is 6052 cycles
Class 0:
Packet latency average = 19.9496
	minimum = 7
	maximum = 53
Network latency average = 19.9496
	minimum = 7
	maximum = 53
Slowest packet = 503236
Flit latency average = 19.9496
	minimum = 7
	maximum = 53
Slowest flit = 503236
Fragmentation average = 0
	minimum = 0
	maximum = 0
Injected packet rate average = 0.0485
	minimum = 0.039 (at node 15)
	maximum = 0.061 (at node 1)
Accepted packet rate average = 0.047125
	minimum = 0.038 (at node 5)
	maximum = 0.06 (at node 14)
Injected flit rate average = 0.0485
	minimum = 0.039 (at node 15)
	maximum = 0.061 (at node 1)
Accepted flit rate average= 0.047125
	minimum = 0.038 (at node 5)
	maximum = 0.06 (at node 14)
Injected packet length average = 1
Accepted packet length average = 1
Total in-flight flits = 22 (0 measured)
latency change    = 1
throughput change = 1
Class 0:
Packet latency average = 20.4324
	minimum = 7
	maximum = 60
Network latency average = 20.4324
	minimum = 7
	maximum = 60
Slowest packet = 504068
Flit latency average = 20.4324
	minimum = 7
	maximum = 60
Slowest flit = 504068
Fragmentation average = 0
	minimum = 0
	maximum = 0
Injected packet rate average = 0.0485312
	minimum = 0.0415 (at node 6)
	maximum = 0.059 (at node 3)
Accepted packet rate average = 0.0478437
	minimum = 0.042 (at node 15)
	maximum = 0.054 (at node 14)
Injected flit rate average = 0.0485312
	minimum = 0.0415 (at node 6)
	maximum = 0.059 (at node 3)
Accepted flit rate average= 0.0478437
	minimum = 0.042 (at node 15)
	maximum = 0.054 (at node 14)
Injected packet length average = 1
Accepted packet length average = 1
Total in-flight flits = 22 (0 measured)
latency change    = 0.0236289
throughput change = 0.0150229
Class 0:
Packet latency average = 20.8865
	minimum = 7
	maximum = 51
Network latency average = 20.8865
	minimum = 7
	maximum = 51
Slowest packet = 504205
Flit latency average = 20.8865
	minimum = 7
	maximum = 51
Slowest flit = 504205
Fragmentation average = 0
	minimum = 0
	maximum = 0
Injected packet rate average = 0.048
	minimum = 0.037 (at node 7)
	maximum = 0.06 (at node 15)
Accepted packet rate average = 0.0484375
	minimum = 0.039 (at node 10)
	maximum = 0.064 (at node 5)
Injected flit rate average = 0.048
	minimum = 0.037 (at node 7)
	maximum = 0.06 (at node 15)
Accepted flit rate average= 0.0484375
	minimum = 0.039 (at node 10)
	maximum = 0.064 (at node 5)
Injected packet length average = 1
Accepted packet length average = 1
Total in-flight flits = 15 (0 measured)
latency change    = 0.0217392
throughput change = 0.0122581
Warmed up ...Time used is 3000 cycles
Class 0:
Packet latency average = 20.3969
	minimum = 7
	maximum = 51
Network latency average = 20.3969
	minimum = 7
	maximum = 51
Slowest packet = 504933
Flit latency average = 20.5119
	minimum = 7
	maximum = 51
Slowest flit = 504933
Fragmentation average = 0
	minimum = 0
	maximum = 0
Injected packet rate average = 0.05025
	minimum = 0.037 (at node 13)
	maximum = 0.061 (at node 8)
Accepted packet rate average = 0.0500625
	minimum = 0.041 (at node 3)
	maximum = 0.061 (at node 0)
Injected flit rate average = 0.05025
	minimum = 0.037 (at node 13)
	maximum = 0.061 (at node 8)
Accepted flit rate average= 0.0500625
	minimum = 0.041 (at node 3)
	maximum = 0.061 (at node 0)
Injected packet length average = 1
Accepted packet length average = 1
Total in-flight flits = 18 (18 measured)
latency change    = 0.0239989
throughput change = 0.0324594
Class 0:
Packet latency average = 20.6208
	minimum = 7
	maximum = 71
Network latency average = 20.6208
	minimum = 7
	maximum = 71
Slowest packet = 506100
Flit latency average = 20.6753
	minimum = 7
	maximum = 71
Slowest flit = 506100
Fragmentation average = 0
	minimum = 0
	maximum = 0
Injected packet rate average = 0.0508125
	minimum = 0.039 (at node 13)
	maximum = 0.0595 (at node 5)
Accepted packet rate average = 0.0509063
	minimum = 0.044 (at node 1)
	maximum = 0.057 (at node 5)
Injected flit rate average = 0.0508125
	minimum = 0.039 (at node 13)
	maximum = 0.0595 (at node 5)
Accepted flit rate average= 0.0509063
	minimum = 0.044 (at node 1)
	maximum = 0.057 (at node 5)
Injected packet length average = 1
Accepted packet length average = 1
Total in-flight flits = 12 (12 measured)
latency change    = 0.0108566
throughput change = 0.0165746
Class 0:
Packet latency average = 20.6356
	minimum = 7
	maximum = 71
Network latency average = 20.6356
	minimum = 7
	maximum = 71
Slowest packet = 506100
Flit latency average = 20.672
	minimum = 7
	maximum = 71
Slowest flit = 506100
Fragmentation average = 0
	minimum = 0
	maximum = 0
Injected packet rate average = 0.0507083
	minimum = 0.04 (at node 13)
	maximum = 0.06 (at node 5)
Accepted packet rate average = 0.0506875
	minimum = 0.045 (at node 1)
	maximum = 0.056 (at node 12)
Injected flit rate average = 0.0507083
	minimum = 0.04 (at node 13)
	maximum = 0.06 (at node 5)
Accepted flit rate average= 0.0506875
	minimum = 0.045 (at node 1)
	maximum = 0.056 (at node 12)
Injected packet length average = 1
Accepted packet length average = 1
Total in-flight flits = 16 (16 measured)
latency change    = 0.00071873
throughput change = 0.00431566
Draining all recorded packets ...
Draining remaining packets ...
Time taken is 6052 cycles
Class 0:
Packet latency average = 20.0735
	minimum = 7
	maximum = 54
Network latency average = 20.0735
	minimum = 7
	maximum = 54
Slowest packet = 507913
Flit latency average = 20.0735
	minimum = 7
	maximum = 54
Slowest flit = 507913
Fragmentation average = 0
	minimum = 0
	maximum = 0
Injected packet rate average = 0.049625
	minimum = 0.039 (at node 9)
	maximum = 0.067 (at node 13)
Accepted packet rate average = 0.0485
	minimum = 0.038 (at node 1)
	maximum = 0.059 (at node 14)
Injected flit rate average = 0.049625
	minimum = 0.039 (at node 9)
	maximum = 0.067 (at node 13)
Accepted flit rate average= 0.0485
	minimum = 0.038 (at node 1)
	maximum = 0.059 (at node 14)
Injected packet length average = 1
Accepted packet length average = 1
Total in-flight flits = 18 (0 measured)
latency change    = 1
throughput change = 1
Class 0:
Packet latency average = 20.3023
	minimum = 7
	maximum = 64
Network latency average = 20.3023
	minimum = 7
	maximum = 64
Slowest packet = 508292
Flit latency average = 20.3023
	minimum = 7
	maximum = 64
Slowest flit = 508292
Fragmentation average = 0
	minimum = 0
	maximum = 0
Injected packet rate average = 0.0514063
	minimum = 0.044 (at node 15)
	maximum = 0.0615 (at node 11)
Accepted packet rate average = 0.0506562
	minimum = 0.0425 (at node 4)
	maximum = 0.057 (at node 9)
Injected flit rate average = 0.0514063
	minimum = 0.044 (at node 15)
	maximum = 0.0615 (at node 11)
Accepted flit rate average= 0.0506562
	minimum = 0.0425 (at node 4)
	maximum = 0.057 (at node 9)
Injected packet length average = 1
Accepted packet length average = 1
Total in-flight flits = 24 (0 measured)
latency change    = 0.0112711
throughput change = 0.0425663
Class 0:
Packet latency average = 20.0921
	minimum = 7
	maximum = 49
Network latency average = 20.0921
	minimum = 7
	maximum = 49
Slowest packet = 509721
Flit latency average = 20.0921
	minimum = 7
	maximum = 49
Slowest flit = 509721
Fragmentation average = 0
	minimum = 0
	maximum = 0
Injected packet rate average = 0.0493125
	minimum = 0.037 (at node 13)
	maximum = 0.058 (at node 1)
Accepted packet rate average = 0.0495625
	minimum = 0.033 (at node 14)
	maximum = 0.061 (at node 15)
Injected flit rate average = 0.0493125
	minimum = 0.037 (at node 13)
	maximum = 0.058 (at node 1)
Accepted flit rate average= 0.0495625
	minimum = 0.033 (at node 14)
	maximum = 0.061 (at node 15)
Injected packet length average = 1
Accepted packet length average = 1
Total in-flight flits = 20 (0 measured)
latency change    = 0.0104632
throughput change = 0.0220681
Warmed up ...Time used is 3000 cycles
Class 0:
Packet latency average = 20.1133
	minimum = 7
	maximum = 58
Network latency average = 20.1133
	minimum = 7
	maximum = 58
Slowest packet = 510147
Flit latency average = 20.13
	minimum = 7
	maximum = 58
Slowest flit = 510147
Fragmentation average = 0
	minimum = 0
	maximum = 0
Injected packet rate average = 0.0514375
	minimum = 0.037 (at node 11)
	maximum = 0.062 (at node 7)
Accepted packet rate average = 0.0514375
	minimum = 0.039 (at node 3)
	maximum = 0.066 (at node 4)
Injected flit rate average = 0.0514375
	minimum = 0.037 (at node 11)
	maximum = 0.062 (at node 7)
Accepted flit rate average= 0.0514375
	minimum = 0.039 (at node 3)
	maximum = 0.066 (at node 4)
Injected packet length average = 1
Accepted packet length average = 1
Total in-flight flits = 20 (20 measured)
latency change    = 0.00105749
throughput change = 0.036452
Class 0:
Packet latency average = 20.4322
	minimum = 7
	maximum = 61
Network latency average = 20.4322
	minimum = 7
	maximum = 61
Slowest packet = 510997
Flit latency average = 20.4367
	minimum = 7
	maximum = 61
Slowest flit = 510997
Fragmentation average = 0
	minimum = 0
	maximum = 0
Injected packet rate average = 0.0506562
	minimum = 0.0425 (at node 5)
	maximum = 0.0605 (at node 7)
Accepted packet rate average = 0.050875
	minimum = 0.041 (at node 3)
	maximum = 0.059 (at node 11)
Injected flit rate average = 0.0506562
	minimum = 0.0425 (at node 5)
	maximum = 0.0605 (at node 7)
Accepted flit rate average= 0.050875
	minimum = 0.041 (at node 3)
	maximum = 0.059 (at node 11)
Injected packet length average = 1
Accepted packet length average = 1
Total in-flight flits = 13 (13 measured)
latency change    = 0.0156072
throughput change = 0.0110565
Class 0:
Packet latency average = 20.5116
	minimum = 7
	maximum = 69
Network latency average = 20.5116
	minimum = 7
	maximum = 69
Slowest packet = 511768
Flit latency average = 20.5139
	minimum = 7
	maximum = 69
Slowest flit = 511768
Fragmentation average = 0
	minimum = 0
	maximum = 0
Injected packet rate average = 0.0509167
	minimum = 0.0453333 (at node 5)
	maximum = 0.0573333 (at node 3)
Accepted packet rate average = 0.0509167
	minimum = 0.0423333 (at node 3)
	maximum = 0.0566667 (at node 11)
Injected flit rate average = 0.0509167
	minimum = 0.0453333 (at node 5)
	maximum = 0.0573333 (at node 3)
Accepted flit rate average= 0.0509167
	minimum = 0.0423333 (at node 3)
	maximum = 0.0566667 (at node 11)
Injected packet length average = 1
Accepted packet length average = 1
Total in-flight flits = 20 (20 measured)
latency change    = 0.00386793
throughput change = 0.000818331
Draining all recorded packets ...
Draining remaining packets ...
Time taken is 6060 cycles
====== Overall Traffic Statistics ======
====== Traffic class 0 ======
Packet latency average = 20.5109 (100 samples)
	minimum = 7 (100 samples)
	maximum = 63.98 (100 samples)
Network latency average = 20.5108 (100 samples)
	minimum = 7 (100 samples)
	maximum = 63.98 (100 samples)
Flit latency average = 20.5281 (100 samples)
	minimum = 7 (100 samples)
	maximum = 64.04 (100 samples)
Fragmentation average = 0 (100 samples)
	minimum = 0 (100 samples)
	maximum = 0 (100 samples)
Injected packet rate average = 0.0501825 (100 samples)
	minimum = 0.043373 (100 samples)
	maximum = 0.0568033 (100 samples)
Accepted packet rate average = 0.0501645 (100 samples)
	minimum = 0.0432433 (100 samples)
	maximum = 0.057477 (100 samples)
Injected flit rate average = 0.0501825 (100 samples)
	minimum = 0.043373 (100 samples)
	maximum = 0.0568033 (100 samples)
Accepted flit rate average = 0.0501645 (100 samples)
	minimum = 0.0432433 (100 samples)
	maximum = 0.057477 (100 samples)
Injected packet size average = 1 (100 samples)
Accepted packet size average = 1 (100 samples)
Hops average = 3.49886 (100 samples)
Total run time 7.57493
