BEGIN Configuration File: /tmp/bs_1138183_814385.cfg
topology = mesh;
k = 4;
n = 2;
routing_function = valiant;
num_vcs = 4;
vc_buf_size = 4;
wait_for_tail_credit = 1;
vc_allocator = islip;
sw_allocator = islip;
alloc_iters = 1;
credit_delay = 2;
routing_delay = 1;
vc_alloc_delay = 1;
sw_alloc_delay = 1;
input_speedup = 2;
output_speedup = 1;
internal_speedup = 1.0;
traffic = uniform;
packet_size = 1;
sim_type = latency;
injection_rate = 0.01;
warmup_periods = 3;
sample_period = 1000;
sim_count = 100;
seed = 4;

END Configuration File: /tmp/bs_1138183_814385.cfg
Class 0:
Packet latency average = 32.0429
	minimum = 12
	maximum = 63
Network latency average = 32.0429
	minimum = 12
	maximum = 63
Slowest packet = 7
Flit latency average = 32.0429
	minimum = 12
	maximum = 63
Slowest flit = 7
Fragmentation average = 0
	minimum = 0
	maximum = 0
Injected packet rate average = 0.0103125
	minimum = 0.005 (at node 0)
	maximum = 0.015 (at node 10)
Accepted packet rate average = 0.0101875
	minimum = 0.005 (at node 2)
	maximum = 0.017 (at node 15)
Injected flit rate average = 0.0103125
	minimum = 0.005 (at node 0)
	maximum = 0.015 (at node 10)
Accepted flit rate average= 0.0101875
	minimum = 0.005 (at node 2)
	maximum = 0.017 (at node 15)
Injected packet length average = 1
Accepted packet length average = 1
Total in-flight flits = 2 (0 measured)
latency change    = 1
throughput change = 1
Class 0:
Packet latency average = 32.0541
	minimum = 12
	maximum = 63
Network latency average = 32.0541
	minimum = 12
	maximum = 63
Slowest packet = 7
Flit latency average = 32.0541
	minimum = 12
	maximum = 63
Slowest flit = 7
Fragmentation average = 0
	minimum = 0
	maximum = 0
Injected packet rate average = 0.0099375
	minimum = 0.0055 (at node 11)
	maximum = 0.015 (at node 4)
Accepted packet rate average = 0.0098125
	minimum = 0.0045 (at node 2)
	maximum = 0.0155 (at node 14)
Injected flit rate average = 0.0099375
	minimum = 0.0055 (at node 11)
	maximum = 0.015 (at node 4)
Accepted flit rate average= 0.0098125
	minimum = 0.0045 (at node 2)
	maximum = 0.0155 (at node 14)
Injected packet length average = 1
Accepted packet length average = 1
Total in-flight flits = 4 (0 measured)
latency change    = 0.000349264
throughput change = 0.0382166
Class 0:
Packet latency average = 32.2
	minimum = 12
	maximum = 57
Network latency average = 32.2
	minimum = 12
	maximum = 57
Slowest packet = 398
Flit latency average = 32.2
	minimum = 12
	maximum = 57
Slowest flit = 398
Fragmentation average = 0
	minimum = 0
	maximum = 0
Injected packet rate average = 0.0085625
	minimum = 0.004 (at node 6)
	maximum = 0.015 (at node 7)
Accepted packet rate average = 0.0084375
	minimum = 0.004 (at node 0)
	maximum = 0.011 (at node 1)
Injected flit rate average = 0.0085625
	minimum = 0.004 (at node 6)
	maximum = 0.015 (at node 7)
Accepted flit rate average= 0.0084375
	minimum = 0.004 (at node 0)
	maximum = 0.011 (at node 1)
Injected packet length average = 1
Accepted packet length average = 1
Total in-flight flits = 6 (0 measured)
latency change    = 0.00452981
throughput change = 0.162963
Warmed up ...Time used is 3000 cycles
Class 0:
Packet latency average = 33.5157
	minimum = 12
	maximum = 67
Network latency average = 33.5157
	minimum = 12
	maximum = 67
Slowest packet = 570
Flit latency average = 33.6424
	minimum = 12
	maximum = 67
Slowest flit = 570
Fragmentation average = 0
	minimum = 0
	maximum = 0
Injected packet rate average = 0.0104375
	minimum = 0.004 (at node 12)
	maximum = 0.018 (at node 6)
Accepted packet rate average = 0.0103125
	minimum = 0.004 (at node 9)
	maximum = 0.016 (at node 3)
Injected flit rate average = 0.0104375
	minimum = 0.004 (at node 12)
	maximum = 0.018 (at node 6)
Accepted flit rate average= 0.0103125
	minimum = 0.004 (at node 9)
	maximum = 0.016 (at node 3)
Injected packet length average = 1
Accepted packet length average = 1
Total in-flight flits = 8 (8 measured)
latency change    = 0.0392569
throughput change = 0.181818
Class 0:
Packet latency average = 32.4793
	minimum = 7
	maximum = 67
Network latency average = 32.4793
	minimum = 7
	maximum = 67
Slowest packet = 570
Flit latency average = 32.5581
	minimum = 7
	maximum = 67
Slowest flit = 570
Fragmentation average = 0
	minimum = 0
	maximum = 0
Injected packet rate average = 0.0108125
	minimum = 0.0055 (at node 4)
	maximum = 0.0155 (at node 6)
Accepted packet rate average = 0.01075
	minimum = 0.0065 (at node 0)
	maximum = 0.016 (at node 1)
Injected flit rate average = 0.0108125
	minimum = 0.0055 (at node 4)
	maximum = 0.0155 (at node 6)
Accepted flit rate average= 0.01075
	minimum = 0.0065 (at node 0)
	maximum = 0.016 (at node 1)
Injected packet length average = 1
Accepted packet length average = 1
Total in-flight flits = 8 (8 measured)
latency change    = 0.0319106
throughput change = 0.0406977
Class 0:
Packet latency average = 32.3266
	minimum = 7
	maximum = 67
Network latency average = 32.3266
	minimum = 7
	maximum = 67
Slowest packet = 570
Flit latency average = 32.3825
	minimum = 7
	maximum = 67
Slowest flit = 570
Fragmentation average = 0
	minimum = 0
	maximum = 0
Injected packet rate average = 0.0104792
	minimum = 0.00633333 (at node 4)
	maximum = 0.0143333 (at node 14)
Accepted packet rate average = 0.0104583
	minimum = 0.00766667 (at node 4)
	maximum = 0.0133333 (at node 1)
Injected flit rate average = 0.0104792
	minimum = 0.00633333 (at node 4)
	maximum = 0.0143333 (at node 14)
Accepted flit rate average= 0.0104583
	minimum = 0.00766667 (at node 4)
	maximum = 0.0133333 (at node 1)
Injected packet length average = 1
Accepted packet length average = 1
Total in-flight flits = 7 (7 measured)
latency change    = 0.00472295
throughput change = 0.0278884
Class 0:
Packet latency average = 32.0475
	minimum = 7
	maximum = 67
Network latency average = 32.0475
	minimum = 7
	maximum = 67
Slowest packet = 570
Flit latency average = 32.0913
	minimum = 7
	maximum = 67
Slowest flit = 570
Fragmentation average = 0
	minimum = 0
	maximum = 0
Injected packet rate average = 0.0106094
	minimum = 0.0075 (at node 4)
	maximum = 0.01375 (at node 10)
Accepted packet rate average = 0.0106094
	minimum = 0.008 (at node 9)
	maximum = 0.01225 (at node 5)
Injected flit rate average = 0.0106094
	minimum = 0.0075 (at node 4)
	maximum = 0.01375 (at node 10)
Accepted flit rate average= 0.0106094
	minimum = 0.008 (at node 9)
	maximum = 0.01225 (at node 5)
Injected packet length average = 1
Accepted packet length average = 1
Total in-flight flits = 6 (6 measured)
latency change    = 0.00870783
throughput change = 0.0142366
Draining all recorded packets ...
Draining remaining packets ...
Time taken is 7081 cycles
Class 0:
Packet latency average = 32.8294
	minimum = 12
	maximum = 58
Network latency average = 32.8294
	minimum = 12
	maximum = 58
Slowest packet = 1281
Flit latency average = 32.8294
	minimum = 12
	maximum = 58
Slowest flit = 1281
Fragmentation average = 0
	minimum = 0
	maximum = 0
Injected packet rate average = 0.0108125
	minimum = 0.006 (at node 2)
	maximum = 0.015 (at node 7)
Accepted packet rate average = 0.010625
	minimum = 0.004 (at node 8)
	maximum = 0.017 (at node 9)
Injected flit rate average = 0.0108125
	minimum = 0.006 (at node 2)
	maximum = 0.015 (at node 7)
Accepted flit rate average= 0.010625
	minimum = 0.004 (at node 8)
	maximum = 0.017 (at node 9)
Injected packet length average = 1
Accepted packet length average = 1
Total in-flight flits = 3 (0 measured)
latency change    = 1
throughput change = 1
Class 0:
Packet latency average = 31.6697
	minimum = 12
	maximum = 62
Network latency average = 31.6697
	minimum = 12
	maximum = 62
Slowest packet = 1407
Flit latency average = 31.6697
	minimum = 12
	maximum = 62
Slowest flit = 1407
Fragmentation average = 0
	minimum = 0
	maximum = 0
Injected packet rate average = 0.010375
	minimum = 0.0065 (at node 15)
	maximum = 0.013 (at node 10)
Accepted packet rate average = 0.0102188
	minimum = 0.0035 (at node 8)
	maximum = 0.016 (at node 15)
Injected flit rate average = 0.010375
	minimum = 0.0065 (at node 15)
	maximum = 0.013 (at node 10)
Accepted flit rate average= 0.0102188
	minimum = 0.0035 (at node 8)
	maximum = 0.016 (at node 15)
Injected packet length average = 1
Accepted packet length average = 1
Total in-flight flits = 5 (0 measured)
latency change    = 0.0366182
throughput change = 0.0397554
Class 0:
Packet latency average = 31.9346
	minimum = 7
	maximum = 62
Network latency average = 31.9346
	minimum = 7
	maximum = 62
Slowest packet = 1519
Flit latency average = 31.9346
	minimum = 7
	maximum = 62
Slowest flit = 1519
Fragmentation average = 0
	minimum = 0
	maximum = 0
Injected packet rate average = 0.009375
	minimum = 0.005 (at node 0)
	maximum = 0.015 (at node 15)
Accepted packet rate average = 0.0095625
	minimum = 0.004 (at node 11)
	maximum = 0.014 (at node 7)
Injected flit rate average = 0.009375
	minimum = 0.005 (at node 0)
	maximum = 0.015 (at node 15)
Accepted flit rate average= 0.0095625
	minimum = 0.004 (at node 11)
	maximum = 0.014 (at node 7)
Injected packet length average = 1
Accepted packet length average = 1
Total in-flight flits = 2 (0 measured)
latency change    = 0.00829556
throughput change = 0.0686275
Warmed up ...Time used is 3000 cycles
Class 0:
Packet latency average = 32.1579
	minimum = 12
	maximum = 57
Network latency average = 32.1579
	minimum = 12
	maximum = 57
Slowest packet = 1677
Flit latency average = 32.2532
	minimum = 12
	maximum = 57
Slowest flit = 1677
Fragmentation average = 0
	minimum = 0
	maximum = 0
Injected packet rate average = 0.009625
	minimum = 0.005 (at node 12)
	maximum = 0.014 (at node 10)
Accepted packet rate average = 0.009625
	minimum = 0.004 (at node 5)
	maximum = 0.015 (at node 9)
Injected flit rate average = 0.009625
	minimum = 0.005 (at node 12)
	maximum = 0.014 (at node 10)
Accepted flit rate average= 0.009625
	minimum = 0.004 (at node 5)
	maximum = 0.015 (at node 9)
Injected packet length average = 1
Accepted packet length average = 1
Total in-flight flits = 2 (2 measured)
latency change    = 0.00694244
throughput change = 0.00649351
Class 0:
Packet latency average = 31.6667
	minimum = 7
	maximum = 62
Network latency average = 31.6667
	minimum = 7
	maximum = 62
Slowest packet = 1802
Flit latency average = 31.7207
	minimum = 7
	maximum = 62
Slowest flit = 1802
Fragmentation average = 0
	minimum = 0
	maximum = 0
Injected packet rate average = 0.0093125
	minimum = 0.0065 (at node 12)
	maximum = 0.013 (at node 5)
Accepted packet rate average = 0.0090625
	minimum = 0.005 (at node 5)
	maximum = 0.011 (at node 0)
Injected flit rate average = 0.0093125
	minimum = 0.0065 (at node 12)
	maximum = 0.013 (at node 5)
Accepted flit rate average= 0.0090625
	minimum = 0.005 (at node 5)
	maximum = 0.011 (at node 0)
Injected packet length average = 1
Accepted packet length average = 1
Total in-flight flits = 10 (10 measured)
latency change    = 0.0155125
throughput change = 0.062069
Class 0:
Packet latency average = 31.1867
	minimum = 7
	maximum = 62
Network latency average = 31.1867
	minimum = 7
	maximum = 62
Slowest packet = 1802
Flit latency average = 31.2235
	minimum = 7
	maximum = 62
Slowest flit = 1802
Fragmentation average = 0
	minimum = 0
	maximum = 0
Injected packet rate average = 0.0094375
	minimum = 0.00633333 (at node 7)
	maximum = 0.0136667 (at node 5)
Accepted packet rate average = 0.00941667
	minimum = 0.00733333 (at node 11)
	maximum = 0.011 (at node 10)
Injected flit rate average = 0.0094375
	minimum = 0.00633333 (at node 7)
	maximum = 0.0136667 (at node 5)
Accepted flit rate average= 0.00941667
	minimum = 0.00733333 (at node 11)
	maximum = 0.011 (at node 10)
Injected packet length average = 1
Accepted packet length average = 1
Total in-flight flits = 3 (3 measured)
latency change    = 0.0153912
throughput change = 0.0376106
Class 0:
Packet latency average = 31.3699
	minimum = 7
	maximum = 67
Network latency average = 31.3699
	minimum = 7
	maximum = 67
Slowest packet = 2078
Flit latency average = 31.3964
	minimum = 7
	maximum = 67
Slowest flit = 2078
Fragmentation average = 0
	minimum = 0
	maximum = 0
Injected packet rate average = 0.0096875
	minimum = 0.007 (at node 12)
	maximum = 0.013 (at node 5)
Accepted packet rate average = 0.00957812
	minimum = 0.00575 (at node 11)
	maximum = 0.01175 (at node 4)
Injected flit rate average = 0.0096875
	minimum = 0.007 (at node 12)
	maximum = 0.013 (at node 5)
Accepted flit rate average= 0.00957812
	minimum = 0.00575 (at node 11)
	maximum = 0.01175 (at node 4)
Injected packet length average = 1
Accepted packet length average = 1
Total in-flight flits = 9 (9 measured)
latency change    = 0.00584059
throughput change = 0.016857
Class 0:
Packet latency average = 31.8506
	minimum = 7
	maximum = 67
Network latency average = 31.8506
	minimum = 7
	maximum = 67
Slowest packet = 2078
Flit latency average = 31.8711
	minimum = 7
	maximum = 67
Slowest flit = 2078
Fragmentation average = 0
	minimum = 0
	maximum = 0
Injected packet rate average = 0.00935
	minimum = 0.0064 (at node 12)
	maximum = 0.0116 (at node 8)
Accepted packet rate average = 0.0093125
	minimum = 0.0066 (at node 11)
	maximum = 0.0114 (at node 8)
Injected flit rate average = 0.00935
	minimum = 0.0064 (at node 12)
	maximum = 0.0116 (at node 8)
Accepted flit rate average= 0.0093125
	minimum = 0.0066 (at node 11)
	maximum = 0.0114 (at node 8)
Injected packet length average = 1
Accepted packet length average = 1
Total in-flight flits = 5 (5 measured)
latency change    = 0.015093
throughput change = 0.0285235
Draining all recorded packets ...
Draining remaining packets ...
Time taken is 8072 cycles
Class 0:
Packet latency average = 31.3476
	minimum = 7
	maximum = 62
Network latency average = 31.3476
	minimum = 7
	maximum = 62
Slowest packet = 2404
Flit latency average = 31.3476
	minimum = 7
	maximum = 62
Slowest flit = 2404
Fragmentation average = 0
	minimum = 0
	maximum = 0
Injected packet rate average = 0.01075
	minimum = 0.007 (at node 4)
	maximum = 0.015 (at node 12)
Accepted packet rate average = 0.01025
	minimum = 0.004 (at node 1)
	maximum = 0.017 (at node 5)
Injected flit rate average = 0.01075
	minimum = 0.007 (at node 4)
	maximum = 0.015 (at node 12)
Accepted flit rate average= 0.01025
	minimum = 0.004 (at node 1)
	maximum = 0.017 (at node 5)
Injected packet length average = 1
Accepted packet length average = 1
Total in-flight flits = 8 (0 measured)
latency change    = 1
throughput change = 1
Class 0:
Packet latency average = 32.4375
	minimum = 7
	maximum = 62
Network latency average = 32.4375
	minimum = 7
	maximum = 62
Slowest packet = 2404
Flit latency average = 32.4375
	minimum = 7
	maximum = 62
Slowest flit = 2404
Fragmentation average = 0
	minimum = 0
	maximum = 0
Injected packet rate average = 0.0106875
	minimum = 0.008 (at node 6)
	maximum = 0.015 (at node 12)
Accepted packet rate average = 0.0105
	minimum = 0.0055 (at node 11)
	maximum = 0.0145 (at node 0)
Injected flit rate average = 0.0106875
	minimum = 0.008 (at node 6)
	maximum = 0.015 (at node 12)
Accepted flit rate average= 0.0105
	minimum = 0.0055 (at node 11)
	maximum = 0.0145 (at node 0)
Injected packet length average = 1
Accepted packet length average = 1
Total in-flight flits = 6 (0 measured)
latency change    = 0.0336012
throughput change = 0.0238095
Class 0:
Packet latency average = 30.454
	minimum = 12
	maximum = 57
Network latency average = 30.454
	minimum = 12
	maximum = 57
Slowest packet = 2788
Flit latency average = 30.454
	minimum = 12
	maximum = 57
Slowest flit = 2788
Fragmentation average = 0
	minimum = 0
	maximum = 0
Injected packet rate average = 0.010375
	minimum = 0.003 (at node 2)
	maximum = 0.018 (at node 15)
Accepted packet rate average = 0.0101875
	minimum = 0.003 (at node 0)
	maximum = 0.015 (at node 10)
Injected flit rate average = 0.010375
	minimum = 0.003 (at node 2)
	maximum = 0.018 (at node 15)
Accepted flit rate average= 0.0101875
	minimum = 0.003 (at node 0)
	maximum = 0.015 (at node 10)
Injected packet length average = 1
Accepted packet length average = 1
Total in-flight flits = 9 (0 measured)
latency change    = 0.0651314
throughput change = 0.0306748
Warmed up ...Time used is 3000 cycles
Class 0:
Packet latency average = 32.5091
	minimum = 12
	maximum = 57
Network latency average = 32.5091
	minimum = 12
	maximum = 57
Slowest packet = 2906
Flit latency average = 32.9195
	minimum = 12
	maximum = 57
Slowest flit = 2878
Fragmentation average = 0
	minimum = 0
	maximum = 0
Injected packet rate average = 0.0105625
	minimum = 0.003 (at node 14)
	maximum = 0.018 (at node 7)
Accepted packet rate average = 0.010875
	minimum = 0.004 (at node 15)
	maximum = 0.016 (at node 7)
Injected flit rate average = 0.0105625
	minimum = 0.003 (at node 14)
	maximum = 0.018 (at node 7)
Accepted flit rate average= 0.010875
	minimum = 0.004 (at node 15)
	maximum = 0.016 (at node 7)
Injected packet length average = 1
Accepted packet length average = 1
Total in-flight flits = 4 (4 measured)
latency change    = 0.0632163
throughput change = 0.0632184
Class 0:
Packet latency average = 32.4114
	minimum = 7
	maximum = 57
Network latency average = 32.4114
	minimum = 7
	maximum = 57
Slowest packet = 2906
Flit latency average = 32.6228
	minimum = 7
	maximum = 57
Slowest flit = 2878
Fragmentation average = 0
	minimum = 0
	maximum = 0
Injected packet rate average = 0.0105
	minimum = 0.007 (at node 5)
	maximum = 0.015 (at node 10)
Accepted packet rate average = 0.0106875
	minimum = 0.0075 (at node 10)
	maximum = 0.0155 (at node 9)
Injected flit rate average = 0.0105
	minimum = 0.007 (at node 5)
	maximum = 0.015 (at node 10)
Accepted flit rate average= 0.0106875
	minimum = 0.0075 (at node 10)
	maximum = 0.0155 (at node 9)
Injected packet length average = 1
Accepted packet length average = 1
Total in-flight flits = 3 (3 measured)
latency change    = 0.00301374
throughput change = 0.0175439
Class 0:
Packet latency average = 32.1717
	minimum = 7
	maximum = 67
Network latency average = 32.1717
	minimum = 7
	maximum = 67
Slowest packet = 3246
Flit latency average = 32.3176
	minimum = 7
	maximum = 67
Slowest flit = 3246
Fragmentation average = 0
	minimum = 0
	maximum = 0
Injected packet rate average = 0.0104792
	minimum = 0.007 (at node 5)
	maximum = 0.0146667 (at node 10)
Accepted packet rate average = 0.010625
	minimum = 0.00833333 (at node 10)
	maximum = 0.0143333 (at node 9)
Injected flit rate average = 0.0104792
	minimum = 0.007 (at node 5)
	maximum = 0.0146667 (at node 10)
Accepted flit rate average= 0.010625
	minimum = 0.00833333 (at node 10)
	maximum = 0.0143333 (at node 9)
Injected packet length average = 1
Accepted packet length average = 1
Total in-flight flits = 2 (2 measured)
latency change    = 0.00745236
throughput change = 0.00588235
Class 0:
Packet latency average = 31.7917
	minimum = 7
	maximum = 67
Network latency average = 31.7917
	minimum = 7
	maximum = 67
Slowest packet = 3246
Flit latency average = 31.906
	minimum = 7
	maximum = 67
Slowest flit = 3246
Fragmentation average = 0
	minimum = 0
	maximum = 0
Injected packet rate average = 0.0105625
	minimum = 0.00775 (at node 5)
	maximum = 0.01475 (at node 4)
Accepted packet rate average = 0.0106406
	minimum = 0.00825 (at node 10)
	maximum = 0.01375 (at node 9)
Injected flit rate average = 0.0105625
	minimum = 0.00775 (at node 5)
	maximum = 0.01475 (at node 4)
Accepted flit rate average= 0.0106406
	minimum = 0.00825 (at node 10)
	maximum = 0.01375 (at node 9)
Injected packet length average = 1
Accepted packet length average = 1
Total in-flight flits = 4 (4 measured)
latency change    = 0.0119525
throughput change = 0.00146843
Draining all recorded packets ...
Draining remaining packets ...
Time taken is 7068 cycles
Class 0:
Packet latency average = 32.1825
	minimum = 7
	maximum = 62
Network latency average = 32.1825
	minimum = 7
	maximum = 62
Slowest packet = 3661
Flit latency average = 32.1825
	minimum = 7
	maximum = 62
Slowest flit = 3661
Fragmentation average = 0
	minimum = 0
	maximum = 0
Injected packet rate average = 0.0088125
	minimum = 0.004 (at node 6)
	maximum = 0.016 (at node 15)
Accepted packet rate average = 0.0085625
	minimum = 0.003 (at node 1)
	maximum = 0.013 (at node 12)
Injected flit rate average = 0.0088125
	minimum = 0.004 (at node 6)
	maximum = 0.016 (at node 15)
Accepted flit rate average= 0.0085625
	minimum = 0.003 (at node 1)
	maximum = 0.013 (at node 12)
Injected packet length average = 1
Accepted packet length average = 1
Total in-flight flits = 4 (0 measured)
latency change    = 1
throughput change = 1
Class 0:
Packet latency average = 31.5267
	minimum = 7
	maximum = 62
Network latency average = 31.5267
	minimum = 7
	maximum = 62
Slowest packet = 3661
Flit latency average = 31.5267
	minimum = 7
	maximum = 62
Slowest flit = 3661
Fragmentation average = 0
	minimum = 0
	maximum = 0
Injected packet rate average = 0.00946875
	minimum = 0.0045 (at node 7)
	maximum = 0.0135 (at node 15)
Accepted packet rate average = 0.009375
	minimum = 0.0045 (at node 1)
	maximum = 0.013 (at node 12)
Injected flit rate average = 0.00946875
	minimum = 0.0045 (at node 7)
	maximum = 0.0135 (at node 15)
Accepted flit rate average= 0.009375
	minimum = 0.0045 (at node 1)
	maximum = 0.013 (at node 12)
Injected packet length average = 1
Accepted packet length average = 1
Total in-flight flits = 3 (0 measured)
latency change    = 0.0208019
throughput change = 0.0866667
Class 0:
Packet latency average = 34.0549
	minimum = 7
	maximum = 57
Network latency average = 34.0549
	minimum = 7
	maximum = 57
Slowest packet = 3927
Flit latency average = 34.0549
	minimum = 7
	maximum = 57
Slowest flit = 3927
Fragmentation average = 0
	minimum = 0
	maximum = 0
Injected packet rate average = 0.0103125
	minimum = 0.005 (at node 9)
	maximum = 0.016 (at node 8)
Accepted packet rate average = 0.01025
	minimum = 0.005 (at node 5)
	maximum = 0.016 (at node 3)
Injected flit rate average = 0.0103125
	minimum = 0.005 (at node 9)
	maximum = 0.016 (at node 8)
Accepted flit rate average= 0.01025
	minimum = 0.005 (at node 5)
	maximum = 0.016 (at node 3)
Injected packet length average = 1
Accepted packet length average = 1
Total in-flight flits = 4 (0 measured)
latency change    = 0.0742393
throughput change = 0.0853659
Warmed up ...Time used is 3000 cycles
Class 0:
Packet latency average = 32.3878
	minimum = 12
	maximum = 57
Network latency average = 32.3878
	minimum = 12
	maximum = 57
Slowest packet = 4038
Flit latency average = 32.4437
	minimum = 12
	maximum = 57
Slowest flit = 4038
Fragmentation average = 0
	minimum = 0
	maximum = 0
Injected packet rate average = 0.00975
	minimum = 0.006 (at node 2)
	maximum = 0.014 (at node 13)
Accepted packet rate average = 0.0094375
	minimum = 0.003 (at node 6)
	maximum = 0.014 (at node 3)
Injected flit rate average = 0.00975
	minimum = 0.006 (at node 2)
	maximum = 0.014 (at node 13)
Accepted flit rate average= 0.0094375
	minimum = 0.003 (at node 6)
	maximum = 0.014 (at node 3)
Injected packet length average = 1
Accepted packet length average = 1
Total in-flight flits = 9 (9 measured)
latency change    = 0.0514739
throughput change = 0.0860927
Class 0:
Packet latency average = 31.3344
	minimum = 12
	maximum = 57
Network latency average = 31.3344
	minimum = 12
	maximum = 57
Slowest packet = 4038
Flit latency average = 31.375
	minimum = 12
	maximum = 57
Slowest flit = 4038
Fragmentation average = 0
	minimum = 0
	maximum = 0
Injected packet rate average = 0.00971875
	minimum = 0.0075 (at node 3)
	maximum = 0.013 (at node 14)
Accepted packet rate average = 0.00975
	minimum = 0.007 (at node 1)
	maximum = 0.014 (at node 8)
Injected flit rate average = 0.00971875
	minimum = 0.0075 (at node 3)
	maximum = 0.013 (at node 14)
Accepted flit rate average= 0.00975
	minimum = 0.007 (at node 1)
	maximum = 0.014 (at node 8)
Injected packet length average = 1
Accepted packet length average = 1
Total in-flight flits = 3 (3 measured)
latency change    = 0.0336161
throughput change = 0.0320513
Class 0:
Packet latency average = 31.4091
	minimum = 7
	maximum = 57
Network latency average = 31.4091
	minimum = 7
	maximum = 57
Slowest packet = 4038
Flit latency average = 31.4344
	minimum = 7
	maximum = 57
Slowest flit = 4038
Fragmentation average = 0
	minimum = 0
	maximum = 0
Injected packet rate average = 0.0101042
	minimum = 0.00766667 (at node 12)
	maximum = 0.012 (at node 7)
Accepted packet rate average = 0.0101667
	minimum = 0.008 (at node 14)
	maximum = 0.0143333 (at node 8)
Injected flit rate average = 0.0101042
	minimum = 0.00766667 (at node 12)
	maximum = 0.012 (at node 7)
Accepted flit rate average= 0.0101667
	minimum = 0.008 (at node 14)
	maximum = 0.0143333 (at node 8)
Injected packet length average = 1
Accepted packet length average = 1
Total in-flight flits = 1 (1 measured)
latency change    = 0.00237751
throughput change = 0.0409836
Class 0:
Packet latency average = 31.6449
	minimum = 7
	maximum = 57
Network latency average = 31.6449
	minimum = 7
	maximum = 57
Slowest packet = 4038
Flit latency average = 31.6625
	minimum = 7
	maximum = 57
Slowest flit = 4038
Fragmentation average = 0
	minimum = 0
	maximum = 0
Injected packet rate average = 0.0101094
	minimum = 0.008 (at node 3)
	maximum = 0.012 (at node 7)
Accepted packet rate average = 0.0100938
	minimum = 0.00725 (at node 14)
	maximum = 0.01325 (at node 8)
Injected flit rate average = 0.0101094
	minimum = 0.008 (at node 3)
	maximum = 0.012 (at node 7)
Accepted flit rate average= 0.0100938
	minimum = 0.00725 (at node 14)
	maximum = 0.01325 (at node 8)
Injected packet length average = 1
Accepted packet length average = 1
Total in-flight flits = 5 (5 measured)
latency change    = 0.00745046
throughput change = 0.00722394
Draining all recorded packets ...
Draining remaining packets ...
Time taken is 7068 cycles
Class 0:
Packet latency average = 33
	minimum = 12
	maximum = 64
Network latency average = 33
	minimum = 12
	maximum = 64
Slowest packet = 4722
Flit latency average = 33
	minimum = 12
	maximum = 64
Slowest flit = 4722
Fragmentation average = 0
	minimum = 0
	maximum = 0
Injected packet rate average = 0.0101875
	minimum = 0.007 (at node 0)
	maximum = 0.016 (at node 6)
Accepted packet rate average = 0.010125
	minimum = 0.003 (at node 9)
	maximum = 0.016 (at node 7)
Injected flit rate average = 0.0101875
	minimum = 0.007 (at node 0)
	maximum = 0.016 (at node 6)
Accepted flit rate average= 0.010125
	minimum = 0.003 (at node 9)
	maximum = 0.016 (at node 7)
Injected packet length average = 1
Accepted packet length average = 1
Total in-flight flits = 1 (0 measured)
latency change    = 1
throughput change = 1
Class 0:
Packet latency average = 32.8498
	minimum = 7
	maximum = 64
Network latency average = 32.8498
	minimum = 7
	maximum = 64
Slowest packet = 4722
Flit latency average = 32.8498
	minimum = 7
	maximum = 64
Slowest flit = 4722
Fragmentation average = 0
	minimum = 0
	maximum = 0
Injected packet rate average = 0.0105313
	minimum = 0.0065 (at node 13)
	maximum = 0.017 (at node 6)
Accepted packet rate average = 0.0104063
	minimum = 0.0055 (at node 9)
	maximum = 0.016 (at node 7)
Injected flit rate average = 0.0105313
	minimum = 0.0065 (at node 13)
	maximum = 0.017 (at node 6)
Accepted flit rate average= 0.0104063
	minimum = 0.0055 (at node 9)
	maximum = 0.016 (at node 7)
Injected packet length average = 1
Accepted packet length average = 1
Total in-flight flits = 4 (0 measured)
latency change    = 0.0045708
throughput change = 0.027027
Class 0:
Packet latency average = 32.5274
	minimum = 12
	maximum = 67
Network latency average = 32.5274
	minimum = 12
	maximum = 67
Slowest packet = 5086
Flit latency average = 32.5274
	minimum = 12
	maximum = 67
Slowest flit = 5086
Fragmentation average = 0
	minimum = 0
	maximum = 0
Injected packet rate average = 0.0091875
	minimum = 0.002 (at node 4)
	maximum = 0.016 (at node 2)
Accepted packet rate average = 0.009125
	minimum = 0.005 (at node 9)
	maximum = 0.015 (at node 3)
Injected flit rate average = 0.0091875
	minimum = 0.002 (at node 4)
	maximum = 0.016 (at node 2)
Accepted flit rate average= 0.009125
	minimum = 0.005 (at node 9)
	maximum = 0.015 (at node 3)
Injected packet length average = 1
Accepted packet length average = 1
Total in-flight flits = 5 (0 measured)
latency change    = 0.00991326
throughput change = 0.140411
Warmed up ...Time used is 3000 cycles
Class 0:
Packet latency average = 32.0171
	minimum = 12
	maximum = 67
Network latency average = 32.0171
	minimum = 12
	maximum = 67
Slowest packet = 5250
Flit latency average = 32.0722
	minimum = 12
	maximum = 67
Slowest flit = 5250
Fragmentation average = 0
	minimum = 0
	maximum = 0
Injected packet rate average = 0.01125
	minimum = 0.005 (at node 3)
	maximum = 0.015 (at node 6)
Accepted packet rate average = 0.01125
	minimum = 0.006 (at node 10)
	maximum = 0.017 (at node 2)
Injected flit rate average = 0.01125
	minimum = 0.005 (at node 3)
	maximum = 0.015 (at node 6)
Accepted flit rate average= 0.01125
	minimum = 0.006 (at node 10)
	maximum = 0.017 (at node 2)
Injected packet length average = 1
Accepted packet length average = 1
Total in-flight flits = 5 (5 measured)
latency change    = 0.0159369
throughput change = 0.188889
Class 0:
Packet latency average = 31.826
	minimum = 12
	maximum = 67
Network latency average = 31.826
	minimum = 12
	maximum = 67
Slowest packet = 5250
Flit latency average = 31.8576
	minimum = 12
	maximum = 67
Slowest flit = 5250
Fragmentation average = 0
	minimum = 0
	maximum = 0
Injected packet rate average = 0.010875
	minimum = 0.006 (at node 8)
	maximum = 0.015 (at node 14)
Accepted packet rate average = 0.01075
	minimum = 0.0075 (at node 10)
	maximum = 0.0175 (at node 6)
Injected flit rate average = 0.010875
	minimum = 0.006 (at node 8)
	maximum = 0.015 (at node 14)
Accepted flit rate average= 0.01075
	minimum = 0.0075 (at node 10)
	maximum = 0.0175 (at node 6)
Injected packet length average = 1
Accepted packet length average = 1
Total in-flight flits = 9 (9 measured)
latency change    = 0.00600718
throughput change = 0.0465116
Class 0:
Packet latency average = 32.0097
	minimum = 7
	maximum = 67
Network latency average = 32.0097
	minimum = 7
	maximum = 67
Slowest packet = 5250
Flit latency average = 32.0287
	minimum = 7
	maximum = 67
Slowest flit = 5250
Fragmentation average = 0
	minimum = 0
	maximum = 0
Injected packet rate average = 0.010875
	minimum = 0.008 (at node 5)
	maximum = 0.0146667 (at node 11)
Accepted packet rate average = 0.0108958
	minimum = 0.00766667 (at node 10)
	maximum = 0.0163333 (at node 6)
Injected flit rate average = 0.010875
	minimum = 0.008 (at node 5)
	maximum = 0.0146667 (at node 11)
Accepted flit rate average= 0.0108958
	minimum = 0.00766667 (at node 10)
	maximum = 0.0163333 (at node 6)
Injected packet length average = 1
Accepted packet length average = 1
Total in-flight flits = 4 (4 measured)
latency change    = 0.0057387
throughput change = 0.0133843
Class 0:
Packet latency average = 31.8852
	minimum = 7
	maximum = 67
Network latency average = 31.8852
	minimum = 7
	maximum = 67
Slowest packet = 5250
Flit latency average = 31.9004
	minimum = 7
	maximum = 67
Slowest flit = 5250
Fragmentation average = 0
	minimum = 0
	maximum = 0
Injected packet rate average = 0.0108281
	minimum = 0.00875 (at node 2)
	maximum = 0.0145 (at node 13)
Accepted packet rate average = 0.0108281
	minimum = 0.0085 (at node 3)
	maximum = 0.0145 (at node 6)
Injected flit rate average = 0.0108281
	minimum = 0.00875 (at node 2)
	maximum = 0.0145 (at node 13)
Accepted flit rate average= 0.0108281
	minimum = 0.0085 (at node 3)
	maximum = 0.0145 (at node 6)
Injected packet length average = 1
Accepted packet length average = 1
Total in-flight flits = 5 (5 measured)
latency change    = 0.00390395
throughput change = 0.00625301
Draining all recorded packets ...
Draining remaining packets ...
Time taken is 7071 cycles
Class 0:
Packet latency average = 31.4882
	minimum = 12
	maximum = 69
Network latency average = 31.4882
	minimum = 12
	maximum = 69
Slowest packet = 5943
Flit latency average = 31.4882
	minimum = 12
	maximum = 69
Slowest flit = 5943
Fragmentation average = 0
	minimum = 0
	maximum = 0
Injected packet rate average = 0.0110625
	minimum = 0.004 (at node 0)
	maximum = 0.018 (at node 15)
Accepted packet rate average = 0.010625
	minimum = 0.007 (at node 13)
	maximum = 0.015 (at node 14)
Injected flit rate average = 0.0110625
	minimum = 0.004 (at node 0)
	maximum = 0.018 (at node 15)
Accepted flit rate average= 0.010625
	minimum = 0.007 (at node 13)
	maximum = 0.015 (at node 14)
Injected packet length average = 1
Accepted packet length average = 1
Total in-flight flits = 7 (0 measured)
latency change    = 1
throughput change = 1
Class 0:
Packet latency average = 32.1394
	minimum = 7
	maximum = 69
Network latency average = 32.1394
	minimum = 7
	maximum = 69
Slowest packet = 5943
Flit latency average = 32.1394
	minimum = 7
	maximum = 69
Slowest flit = 5943
Fragmentation average = 0
	minimum = 0
	maximum = 0
Injected packet rate average = 0.0104063
	minimum = 0.0065 (at node 4)
	maximum = 0.015 (at node 15)
Accepted packet rate average = 0.0103125
	minimum = 0.007 (at node 13)
	maximum = 0.0155 (at node 14)
Injected flit rate average = 0.0104063
	minimum = 0.0065 (at node 4)
	maximum = 0.015 (at node 15)
Accepted flit rate average= 0.0103125
	minimum = 0.007 (at node 13)
	maximum = 0.0155 (at node 14)
Injected packet length average = 1
Accepted packet length average = 1
Total in-flight flits = 3 (0 measured)
latency change    = 0.0202605
throughput change = 0.030303
Class 0:
Packet latency average = 32.1589
	minimum = 12
	maximum = 62
Network latency average = 32.1589
	minimum = 12
	maximum = 62
Slowest packet = 6284
Flit latency average = 32.1589
	minimum = 12
	maximum = 62
Slowest flit = 6284
Fragmentation average = 0
	minimum = 0
	maximum = 0
Injected packet rate average = 0.009625
	minimum = 0.003 (at node 5)
	maximum = 0.016 (at node 14)
Accepted packet rate average = 0.0094375
	minimum = 0.005 (at node 0)
	maximum = 0.016 (at node 8)
Injected flit rate average = 0.009625
	minimum = 0.003 (at node 5)
	maximum = 0.016 (at node 14)
Accepted flit rate average= 0.0094375
	minimum = 0.005 (at node 0)
	maximum = 0.016 (at node 8)
Injected packet length average = 1
Accepted packet length average = 1
Total in-flight flits = 6 (0 measured)
latency change    = 0.000607808
throughput change = 0.0927152
Warmed up ...Time used is 3000 cycles
Class 0:
Packet latency average = 33.0065
	minimum = 12
	maximum = 57
Network latency average = 33.0065
	minimum = 12
	maximum = 57
Slowest packet = 6376
Flit latency average = 33.0688
	minimum = 12
	maximum = 58
Slowest flit = 6349
Fragmentation average = 0
	minimum = 0
	maximum = 0
Injected packet rate average = 0.0099375
	minimum = 0.005 (at node 14)
	maximum = 0.017 (at node 7)
Accepted packet rate average = 0.01
	minimum = 0.005 (at node 11)
	maximum = 0.015 (at node 7)
Injected flit rate average = 0.0099375
	minimum = 0.005 (at node 14)
	maximum = 0.017 (at node 7)
Accepted flit rate average= 0.01
	minimum = 0.005 (at node 11)
	maximum = 0.015 (at node 7)
Injected packet length average = 1
Accepted packet length average = 1
Total in-flight flits = 5 (5 measured)
latency change    = 0.0256784
throughput change = 0.05625
Class 0:
Packet latency average = 32.5901
	minimum = 12
	maximum = 62
Network latency average = 32.5901
	minimum = 12
	maximum = 62
Slowest packet = 6523
Flit latency average = 32.628
	minimum = 12
	maximum = 62
Slowest flit = 6523
Fragmentation average = 0
	minimum = 0
	maximum = 0
Injected packet rate average = 0.01025
	minimum = 0.005 (at node 15)
	maximum = 0.015 (at node 0)
Accepted packet rate average = 0.01025
	minimum = 0.007 (at node 2)
	maximum = 0.0135 (at node 4)
Injected flit rate average = 0.01025
	minimum = 0.005 (at node 15)
	maximum = 0.015 (at node 0)
Accepted flit rate average= 0.01025
	minimum = 0.007 (at node 2)
	maximum = 0.0135 (at node 4)
Injected packet length average = 1
Accepted packet length average = 1
Total in-flight flits = 6 (6 measured)
latency change    = 0.0127779
throughput change = 0.0243902
Class 0:
Packet latency average = 32.7863
	minimum = 12
	maximum = 67
Network latency average = 32.7863
	minimum = 12
	maximum = 67
Slowest packet = 6680
Flit latency average = 32.8075
	minimum = 12
	maximum = 67
Slowest flit = 6680
Fragmentation average = 0
	minimum = 0
	maximum = 0
Injected packet rate average = 0.011
	minimum = 0.008 (at node 15)
	maximum = 0.0153333 (at node 0)
Accepted packet rate average = 0.0110417
	minimum = 0.007 (at node 12)
	maximum = 0.0156667 (at node 4)
Injected flit rate average = 0.011
	minimum = 0.008 (at node 15)
	maximum = 0.0153333 (at node 0)
Accepted flit rate average= 0.0110417
	minimum = 0.007 (at node 12)
	maximum = 0.0156667 (at node 4)
Injected packet length average = 1
Accepted packet length average = 1
Total in-flight flits = 4 (4 measured)
latency change    = 0.00598414
throughput change = 0.0716981
Class 0:
Packet latency average = 32.623
	minimum = 7
	maximum = 67
Network latency average = 32.623
	minimum = 7
	maximum = 67
Slowest packet = 6680
Flit latency average = 32.6409
	minimum = 7
	maximum = 67
Slowest flit = 6680
Fragmentation average = 0
	minimum = 0
	maximum = 0
Injected packet rate average = 0.0107188
	minimum = 0.0075 (at node 12)
	maximum = 0.015 (at node 7)
Accepted packet rate average = 0.0107031
	minimum = 0.008 (at node 12)
	maximum = 0.01425 (at node 4)
Injected flit rate average = 0.0107188
	minimum = 0.0075 (at node 12)
	maximum = 0.015 (at node 7)
Accepted flit rate average= 0.0107031
	minimum = 0.008 (at node 12)
	maximum = 0.01425 (at node 4)
Injected packet length average = 1
Accepted packet length average = 1
Total in-flight flits = 7 (7 measured)
latency change    = 0.0050052
throughput change = 0.0316302
Class 0:
Packet latency average = 32.4663
	minimum = 7
	maximum = 67
Network latency average = 32.4663
	minimum = 7
	maximum = 67
Slowest packet = 6680
Flit latency average = 32.4818
	minimum = 7
	maximum = 67
Slowest flit = 6680
Fragmentation average = 0
	minimum = 0
	maximum = 0
Injected packet rate average = 0.0106625
	minimum = 0.008 (at node 12)
	maximum = 0.0136 (at node 7)
Accepted packet rate average = 0.0106375
	minimum = 0.0078 (at node 12)
	maximum = 0.014 (at node 6)
Injected flit rate average = 0.0106625
	minimum = 0.008 (at node 12)
	maximum = 0.0136 (at node 7)
Accepted flit rate average= 0.0106375
	minimum = 0.0078 (at node 12)
	maximum = 0.014 (at node 6)
Injected packet length average = 1
Accepted packet length average = 1
Total in-flight flits = 8 (8 measured)
latency change    = 0.00482663
throughput change = 0.00616921
Class 0:
Packet latency average = 32.26
	minimum = 7
	maximum = 67
Network latency average = 32.26
	minimum = 7
	maximum = 67
Slowest packet = 6680
Flit latency average = 32.2745
	minimum = 7
	maximum = 67
Slowest flit = 6680
Fragmentation average = 0
	minimum = 0
	maximum = 0
Injected packet rate average = 0.0103958
	minimum = 0.0085 (at node 12)
	maximum = 0.0135 (at node 7)
Accepted packet rate average = 0.0104375
	minimum = 0.0075 (at node 12)
	maximum = 0.0136667 (at node 6)
Injected flit rate average = 0.0103958
	minimum = 0.0085 (at node 12)
	maximum = 0.0135 (at node 7)
Accepted flit rate average= 0.0104375
	minimum = 0.0075 (at node 12)
	maximum = 0.0136667 (at node 6)
Injected packet length average = 1
Accepted packet length average = 1
Total in-flight flits = 2 (2 measured)
latency change    = 0.0063928
throughput change = 0.0191617
Draining all recorded packets ...
Draining remaining packets ...
Time taken is 9028 cycles
Class 0:
Packet latency average = 31.1667
	minimum = 12
	maximum = 57
Network latency average = 31.1667
	minimum = 12
	maximum = 57
Slowest packet = 7422
Flit latency average = 31.1667
	minimum = 12
	maximum = 57
Slowest flit = 7422
Fragmentation average = 0
	minimum = 0
	maximum = 0
Injected packet rate average = 0.010625
	minimum = 0.007 (at node 0)
	maximum = 0.016 (at node 13)
Accepted packet rate average = 0.010125
	minimum = 0.002 (at node 15)
	maximum = 0.017 (at node 4)
Injected flit rate average = 0.010625
	minimum = 0.007 (at node 0)
	maximum = 0.016 (at node 13)
Accepted flit rate average= 0.010125
	minimum = 0.002 (at node 15)
	maximum = 0.017 (at node 4)
Injected packet length average = 1
Accepted packet length average = 1
Total in-flight flits = 8 (0 measured)
latency change    = 1
throughput change = 1
Class 0:
Packet latency average = 31.4841
	minimum = 7
	maximum = 62
Network latency average = 31.4841
	minimum = 7
	maximum = 62
Slowest packet = 7628
Flit latency average = 31.4841
	minimum = 7
	maximum = 62
Slowest flit = 7628
Fragmentation average = 0
	minimum = 0
	maximum = 0
Injected packet rate average = 0.0099375
	minimum = 0.0075 (at node 0)
	maximum = 0.013 (at node 11)
Accepted packet rate average = 0.0098125
	minimum = 0.006 (at node 9)
	maximum = 0.0135 (at node 1)
Injected flit rate average = 0.0099375
	minimum = 0.0075 (at node 0)
	maximum = 0.013 (at node 11)
Accepted flit rate average= 0.0098125
	minimum = 0.006 (at node 9)
	maximum = 0.0135 (at node 1)
Injected packet length average = 1
Accepted packet length average = 1
Total in-flight flits = 4 (0 measured)
latency change    = 0.0100816
throughput change = 0.0318471
Class 0:
Packet latency average = 30.8551
	minimum = 12
	maximum = 57
Network latency average = 30.8551
	minimum = 12
	maximum = 57
Slowest packet = 7725
Flit latency average = 30.8551
	minimum = 12
	maximum = 57
Slowest flit = 7725
Fragmentation average = 0
	minimum = 0
	maximum = 0
Injected packet rate average = 0.0085
	minimum = 0.004 (at node 3)
	maximum = 0.014 (at node 12)
Accepted packet rate average = 0.008625
	minimum = 0.006 (at node 2)
	maximum = 0.017 (at node 14)
Injected flit rate average = 0.0085
	minimum = 0.004 (at node 3)
	maximum = 0.014 (at node 12)
Accepted flit rate average= 0.008625
	minimum = 0.006 (at node 2)
	maximum = 0.017 (at node 14)
Injected packet length average = 1
Accepted packet length average = 1
Total in-flight flits = 2 (0 measured)
latency change    = 0.0203858
throughput change = 0.137681
Warmed up ...Time used is 3000 cycles
Class 0:
Packet latency average = 33.2177
	minimum = 7
	maximum = 57
Network latency average = 33.2177
	minimum = 7
	maximum = 57
Slowest packet = 7847
Flit latency average = 33.5034
	minimum = 7
	maximum = 67
Slowest flit = 7804
Fragmentation average = 0
	minimum = 0
	maximum = 0
Injected packet rate average = 0.009375
	minimum = 0.003 (at node 8)
	maximum = 0.015 (at node 12)
Accepted packet rate average = 0.0093125
	minimum = 0.005 (at node 6)
	maximum = 0.014 (at node 0)
Injected flit rate average = 0.009375
	minimum = 0.003 (at node 8)
	maximum = 0.015 (at node 12)
Accepted flit rate average= 0.0093125
	minimum = 0.005 (at node 6)
	maximum = 0.014 (at node 0)
Injected packet length average = 1
Accepted packet length average = 1
Total in-flight flits = 3 (3 measured)
latency change    = 0.0711252
throughput change = 0.0738255
Class 0:
Packet latency average = 32.5414
	minimum = 7
	maximum = 57
Network latency average = 32.5414
	minimum = 7
	maximum = 57
Slowest packet = 7847
Flit latency average = 32.6918
	minimum = 7
	maximum = 67
Slowest flit = 7804
Fragmentation average = 0
	minimum = 0
	maximum = 0
Injected packet rate average = 0.0091875
	minimum = 0.004 (at node 8)
	maximum = 0.013 (at node 6)
Accepted packet rate average = 0.009125
	minimum = 0.007 (at node 2)
	maximum = 0.0125 (at node 10)
Injected flit rate average = 0.0091875
	minimum = 0.004 (at node 8)
	maximum = 0.013 (at node 6)
Accepted flit rate average= 0.009125
	minimum = 0.007 (at node 2)
	maximum = 0.0125 (at node 10)
Injected packet length average = 1
Accepted packet length average = 1
Total in-flight flits = 4 (4 measured)
latency change    = 0.020783
throughput change = 0.0205479
Class 0:
Packet latency average = 32.5328
	minimum = 7
	maximum = 63
Network latency average = 32.5328
	minimum = 7
	maximum = 63
Slowest packet = 8124
Flit latency average = 32.6253
	minimum = 7
	maximum = 67
Slowest flit = 7804
Fragmentation average = 0
	minimum = 0
	maximum = 0
Injected packet rate average = 0.00991667
	minimum = 0.00633333 (at node 9)
	maximum = 0.0123333 (at node 13)
Accepted packet rate average = 0.00989583
	minimum = 0.00633333 (at node 6)
	maximum = 0.0136667 (at node 1)
Injected flit rate average = 0.00991667
	minimum = 0.00633333 (at node 9)
	maximum = 0.0123333 (at node 13)
Accepted flit rate average= 0.00989583
	minimum = 0.00633333 (at node 6)
	maximum = 0.0136667 (at node 1)
Injected packet length average = 1
Accepted packet length average = 1
Total in-flight flits = 3 (3 measured)
latency change    = 0.000264649
throughput change = 0.0778947
Class 0:
Packet latency average = 32.6137
	minimum = 7
	maximum = 63
Network latency average = 32.6137
	minimum = 7
	maximum = 63
Slowest packet = 8124
Flit latency average = 32.6817
	minimum = 7
	maximum = 67
Slowest flit = 7804
Fragmentation average = 0
	minimum = 0
	maximum = 0
Injected packet rate average = 0.010125
	minimum = 0.00625 (at node 9)
	maximum = 0.014 (at node 3)
Accepted packet rate average = 0.0100625
	minimum = 0.0075 (at node 12)
	maximum = 0.01425 (at node 8)
Injected flit rate average = 0.010125
	minimum = 0.00625 (at node 9)
	maximum = 0.014 (at node 3)
Accepted flit rate average= 0.0100625
	minimum = 0.0075 (at node 12)
	maximum = 0.01425 (at node 8)
Injected packet length average = 1
Accepted packet length average = 1
Total in-flight flits = 6 (6 measured)
latency change    = 0.00248171
throughput change = 0.0165631
Class 0:
Packet latency average = 32.4915
	minimum = 7
	maximum = 63
Network latency average = 32.4915
	minimum = 7
	maximum = 63
Slowest packet = 8124
Flit latency average = 32.5486
	minimum = 7
	maximum = 67
Slowest flit = 7804
Fragmentation average = 0
	minimum = 0
	maximum = 0
Injected packet rate average = 0.009675
	minimum = 0.0062 (at node 8)
	maximum = 0.0136 (at node 3)
Accepted packet rate average = 0.0096375
	minimum = 0.0076 (at node 4)
	maximum = 0.0132 (at node 8)
Injected flit rate average = 0.009675
	minimum = 0.0062 (at node 8)
	maximum = 0.0136 (at node 3)
Accepted flit rate average= 0.0096375
	minimum = 0.0076 (at node 4)
	maximum = 0.0132 (at node 8)
Injected packet length average = 1
Accepted packet length average = 1
Total in-flight flits = 5 (5 measured)
latency change    = 0.00375974
throughput change = 0.0440986
Class 0:
Packet latency average = 32.2905
	minimum = 7
	maximum = 67
Network latency average = 32.2905
	minimum = 7
	maximum = 67
Slowest packet = 8659
Flit latency average = 32.338
	minimum = 7
	maximum = 67
Slowest flit = 7804
Fragmentation average = 0
	minimum = 0
	maximum = 0
Injected packet rate average = 0.00980208
	minimum = 0.007 (at node 8)
	maximum = 0.0135 (at node 3)
Accepted packet rate average = 0.00973958
	minimum = 0.00766667 (at node 13)
	maximum = 0.0126667 (at node 1)
Injected flit rate average = 0.00980208
	minimum = 0.007 (at node 8)
	maximum = 0.0135 (at node 3)
Accepted flit rate average= 0.00973958
	minimum = 0.00766667 (at node 13)
	maximum = 0.0126667 (at node 1)
Injected packet length average = 1
Accepted packet length average = 1
Total in-flight flits = 8 (8 measured)
latency change    = 0.00622743
throughput change = 0.0104813
Draining all recorded packets ...
Draining remaining packets ...
Time taken is 9079 cycles
Class 0:
Packet latency average = 30.6286
	minimum = 7
	maximum = 52
Network latency average = 30.6286
	minimum = 7
	maximum = 52
Slowest packet = 8789
Flit latency average = 30.6286
	minimum = 7
	maximum = 52
Slowest flit = 8789
Fragmentation average = 0
	minimum = 0
	maximum = 0
Injected packet rate average = 0.0089375
	minimum = 0.004 (at node 8)
	maximum = 0.014 (at node 12)
Accepted packet rate average = 0.00875
	minimum = 0.003 (at node 7)
	maximum = 0.014 (at node 8)
Injected flit rate average = 0.0089375
	minimum = 0.004 (at node 8)
	maximum = 0.014 (at node 12)
Accepted flit rate average= 0.00875
	minimum = 0.003 (at node 7)
	maximum = 0.014 (at node 8)
Injected packet length average = 1
Accepted packet length average = 1
Total in-flight flits = 3 (0 measured)
latency change    = 1
throughput change = 1
Class 0:
Packet latency average = 31.4602
	minimum = 7
	maximum = 62
Network latency average = 31.4602
	minimum = 7
	maximum = 62
Slowest packet = 8978
Flit latency average = 31.4602
	minimum = 7
	maximum = 62
Slowest flit = 8978
Fragmentation average = 0
	minimum = 0
	maximum = 0
Injected packet rate average = 0.00915625
	minimum = 0.007 (at node 6)
	maximum = 0.0135 (at node 12)
Accepted packet rate average = 0.00903125
	minimum = 0.004 (at node 7)
	maximum = 0.0115 (at node 11)
Injected flit rate average = 0.00915625
	minimum = 0.007 (at node 6)
	maximum = 0.0135 (at node 12)
Accepted flit rate average= 0.00903125
	minimum = 0.004 (at node 7)
	maximum = 0.0115 (at node 11)
Injected packet length average = 1
Accepted packet length average = 1
Total in-flight flits = 4 (0 measured)
latency change    = 0.0264345
throughput change = 0.0311419
Class 0:
Packet latency average = 30.8947
	minimum = 7
	maximum = 62
Network latency average = 30.8947
	minimum = 7
	maximum = 62
Slowest packet = 9165
Flit latency average = 30.8947
	minimum = 7
	maximum = 62
Slowest flit = 9165
Fragmentation average = 0
	minimum = 0
	maximum = 0
Injected packet rate average = 0.0096875
	minimum = 0.004 (at node 5)
	maximum = 0.015 (at node 13)
Accepted packet rate average = 0.0095
	minimum = 0.005 (at node 4)
	maximum = 0.012 (at node 3)
Injected flit rate average = 0.0096875
	minimum = 0.004 (at node 5)
	maximum = 0.015 (at node 13)
Accepted flit rate average= 0.0095
	minimum = 0.005 (at node 4)
	maximum = 0.012 (at node 3)
Injected packet length average = 1
Accepted packet length average = 1
Total in-flight flits = 7 (0 measured)
latency change    = 0.0183031
throughput change = 0.0493421
Warmed up ...Time used is 3000 cycles
Class 0:
Packet latency average = 32.4395
	minimum = 7
	maximum = 57
Network latency average = 32.4395
	minimum = 7
	maximum = 57
Slowest packet = 9256
Flit latency average = 32.4878
	minimum = 7
	maximum = 57
Slowest flit = 9256
Fragmentation average = 0
	minimum = 0
	maximum = 0
Injected packet rate average = 0.0100625
	minimum = 0.005 (at node 12)
	maximum = 0.017 (at node 9)
Accepted packet rate average = 0.01025
	minimum = 0.005 (at node 0)
	maximum = 0.016 (at node 7)
Injected flit rate average = 0.0100625
	minimum = 0.005 (at node 12)
	maximum = 0.017 (at node 9)
Accepted flit rate average= 0.01025
	minimum = 0.005 (at node 0)
	maximum = 0.016 (at node 7)
Injected packet length average = 1
Accepted packet length average = 1
Total in-flight flits = 4 (4 measured)
latency change    = 0.0476195
throughput change = 0.0731707
Class 0:
Packet latency average = 32.3459
	minimum = 7
	maximum = 57
Network latency average = 32.3459
	minimum = 7
	maximum = 57
Slowest packet = 9256
Flit latency average = 32.3723
	minimum = 7
	maximum = 57
Slowest flit = 9256
Fragmentation average = 0
	minimum = 0
	maximum = 0
Injected packet rate average = 0.01
	minimum = 0.005 (at node 12)
	maximum = 0.0155 (at node 9)
Accepted packet rate average = 0.0101563
	minimum = 0.005 (at node 0)
	maximum = 0.016 (at node 9)
Injected flit rate average = 0.01
	minimum = 0.005 (at node 12)
	maximum = 0.0155 (at node 9)
Accepted flit rate average= 0.0101563
	minimum = 0.005 (at node 0)
	maximum = 0.016 (at node 9)
Injected packet length average = 1
Accepted packet length average = 1
Total in-flight flits = 2 (2 measured)
latency change    = 0.00289305
throughput change = 0.00923077
Class 0:
Packet latency average = 31.7576
	minimum = 7
	maximum = 57
Network latency average = 31.7576
	minimum = 7
	maximum = 57
Slowest packet = 9256
Flit latency average = 31.7849
	minimum = 7
	maximum = 57
Slowest flit = 9256
Fragmentation average = 0
	minimum = 0
	maximum = 0
Injected packet rate average = 0.00958333
	minimum = 0.00566667 (at node 12)
	maximum = 0.0136667 (at node 9)
Accepted packet rate average = 0.0096875
	minimum = 0.006 (at node 14)
	maximum = 0.0133333 (at node 9)
Injected flit rate average = 0.00958333
	minimum = 0.00566667 (at node 12)
	maximum = 0.0136667 (at node 9)
Accepted flit rate average= 0.0096875
	minimum = 0.006 (at node 14)
	maximum = 0.0133333 (at node 9)
Injected packet length average = 1
Accepted packet length average = 1
Total in-flight flits = 2 (2 measured)
latency change    = 0.0185237
throughput change = 0.0483871
Class 0:
Packet latency average = 31.5016
	minimum = 7
	maximum = 57
Network latency average = 31.5016
	minimum = 7
	maximum = 57
Slowest packet = 9256
Flit latency average = 31.5246
	minimum = 7
	maximum = 57
Slowest flit = 9256
Fragmentation average = 0
	minimum = 0
	maximum = 0
Injected packet rate average = 0.00979688
	minimum = 0.007 (at node 12)
	maximum = 0.012 (at node 9)
Accepted packet rate average = 0.00982813
	minimum = 0.00725 (at node 14)
	maximum = 0.012 (at node 9)
Injected flit rate average = 0.00979688
	minimum = 0.007 (at node 12)
	maximum = 0.012 (at node 9)
Accepted flit rate average= 0.00982813
	minimum = 0.00725 (at node 14)
	maximum = 0.012 (at node 9)
Injected packet length average = 1
Accepted packet length average = 1
Total in-flight flits = 5 (5 measured)
latency change    = 0.00812766
throughput change = 0.0143084
Draining all recorded packets ...
Draining remaining packets ...
Time taken is 7058 cycles
Class 0:
Packet latency average = 31.5697
	minimum = 7
	maximum = 62
Network latency average = 31.5697
	minimum = 7
	maximum = 62
Slowest packet = 9937
Flit latency average = 31.5697
	minimum = 7
	maximum = 62
Slowest flit = 9937
Fragmentation average = 0
	minimum = 0
	maximum = 0
Injected packet rate average = 0.0106875
	minimum = 0.005 (at node 3)
	maximum = 0.017 (at node 8)
Accepted packet rate average = 0.0103125
	minimum = 0.006 (at node 7)
	maximum = 0.016 (at node 2)
Injected flit rate average = 0.0106875
	minimum = 0.005 (at node 3)
	maximum = 0.017 (at node 8)
Accepted flit rate average= 0.0103125
	minimum = 0.006 (at node 7)
	maximum = 0.016 (at node 2)
Injected packet length average = 1
Accepted packet length average = 1
Total in-flight flits = 6 (0 measured)
latency change    = 1
throughput change = 1
Class 0:
Packet latency average = 32.3904
	minimum = 7
	maximum = 62
Network latency average = 32.3904
	minimum = 7
	maximum = 62
Slowest packet = 9937
Flit latency average = 32.3904
	minimum = 7
	maximum = 62
Slowest flit = 9937
Fragmentation average = 0
	minimum = 0
	maximum = 0
Injected packet rate average = 0.0106563
	minimum = 0.0065 (at node 3)
	maximum = 0.013 (at node 0)
Accepted packet rate average = 0.0104063
	minimum = 0.007 (at node 1)
	maximum = 0.014 (at node 3)
Injected flit rate average = 0.0106563
	minimum = 0.0065 (at node 3)
	maximum = 0.013 (at node 0)
Accepted flit rate average= 0.0104063
	minimum = 0.007 (at node 1)
	maximum = 0.014 (at node 3)
Injected packet length average = 1
Accepted packet length average = 1
Total in-flight flits = 8 (0 measured)
latency change    = 0.0253376
throughput change = 0.00900901
Class 0:
Packet latency average = 33.6429
	minimum = 12
	maximum = 67
Network latency average = 33.6429
	minimum = 12
	maximum = 67
Slowest packet = 10293
Flit latency average = 33.6429
	minimum = 12
	maximum = 67
Slowest flit = 10293
Fragmentation average = 0
	minimum = 0
	maximum = 0
Injected packet rate average = 0.01025
	minimum = 0.006 (at node 0)
	maximum = 0.015 (at node 7)
Accepted packet rate average = 0.0105
	minimum = 0.005 (at node 10)
	maximum = 0.016 (at node 2)
Injected flit rate average = 0.01025
	minimum = 0.006 (at node 0)
	maximum = 0.015 (at node 7)
Accepted flit rate average= 0.0105
	minimum = 0.005 (at node 10)
	maximum = 0.016 (at node 2)
Injected packet length average = 1
Accepted packet length average = 1
Total in-flight flits = 4 (0 measured)
latency change    = 0.0372283
throughput change = 0.00892857
Warmed up ...Time used is 3000 cycles
Class 0:
Packet latency average = 31.7007
	minimum = 7
	maximum = 62
Network latency average = 31.7007
	minimum = 7
	maximum = 62
Slowest packet = 10404
Flit latency average = 31.8511
	minimum = 7
	maximum = 62
Slowest flit = 10404
Fragmentation average = 0
	minimum = 0
	maximum = 0
Injected packet rate average = 0.009
	minimum = 0.004 (at node 4)
	maximum = 0.014 (at node 2)
Accepted packet rate average = 0.0088125
	minimum = 0.004 (at node 0)
	maximum = 0.015 (at node 1)
Injected flit rate average = 0.009
	minimum = 0.004 (at node 4)
	maximum = 0.014 (at node 2)
Accepted flit rate average= 0.0088125
	minimum = 0.004 (at node 0)
	maximum = 0.015 (at node 1)
Injected packet length average = 1
Accepted packet length average = 1
Total in-flight flits = 7 (7 measured)
latency change    = 0.0612644
throughput change = 0.191489
Class 0:
Packet latency average = 31.8033
	minimum = 7
	maximum = 62
Network latency average = 31.8033
	minimum = 7
	maximum = 62
Slowest packet = 10404
Flit latency average = 31.8706
	minimum = 7
	maximum = 62
Slowest flit = 10404
Fragmentation average = 0
	minimum = 0
	maximum = 0
Injected packet rate average = 0.00978125
	minimum = 0.0055 (at node 3)
	maximum = 0.0135 (at node 0)
Accepted packet rate average = 0.00965625
	minimum = 0.006 (at node 3)
	maximum = 0.0135 (at node 14)
Injected flit rate average = 0.00978125
	minimum = 0.0055 (at node 3)
	maximum = 0.0135 (at node 0)
Accepted flit rate average= 0.00965625
	minimum = 0.006 (at node 3)
	maximum = 0.0135 (at node 14)
Injected packet length average = 1
Accepted packet length average = 1
Total in-flight flits = 8 (8 measured)
latency change    = 0.00322447
throughput change = 0.0873786
Class 0:
Packet latency average = 32.2251
	minimum = 7
	maximum = 62
Network latency average = 32.2251
	minimum = 7
	maximum = 62
Slowest packet = 10404
Flit latency average = 32.2661
	minimum = 7
	maximum = 62
Slowest flit = 10404
Fragmentation average = 0
	minimum = 0
	maximum = 0
Injected packet rate average = 0.0096875
	minimum = 0.00733333 (at node 8)
	maximum = 0.012 (at node 1)
Accepted packet rate average = 0.00970833
	minimum = 0.00633333 (at node 3)
	maximum = 0.0126667 (at node 5)
Injected flit rate average = 0.0096875
	minimum = 0.00733333 (at node 8)
	maximum = 0.012 (at node 1)
Accepted flit rate average= 0.00970833
	minimum = 0.00633333 (at node 3)
	maximum = 0.0126667 (at node 5)
Injected packet length average = 1
Accepted packet length average = 1
Total in-flight flits = 3 (3 measured)
latency change    = 0.0130901
throughput change = 0.00536481
Class 0:
Packet latency average = 32.1
	minimum = 7
	maximum = 67
Network latency average = 32.1
	minimum = 7
	maximum = 67
Slowest packet = 10852
Flit latency average = 32.1314
	minimum = 7
	maximum = 67
Slowest flit = 10852
Fragmentation average = 0
	minimum = 0
	maximum = 0
Injected packet rate average = 0.00973437
	minimum = 0.0075 (at node 13)
	maximum = 0.012 (at node 7)
Accepted packet rate average = 0.00975
	minimum = 0.00775 (at node 3)
	maximum = 0.01275 (at node 5)
Injected flit rate average = 0.00973437
	minimum = 0.0075 (at node 13)
	maximum = 0.012 (at node 7)
Accepted flit rate average= 0.00975
	minimum = 0.00775 (at node 3)
	maximum = 0.01275 (at node 5)
Injected packet length average = 1
Accepted packet length average = 1
Total in-flight flits = 3 (3 measured)
latency change    = 0.00389745
throughput change = 0.0042735
Class 0:
Packet latency average = 31.8342
	minimum = 7
	maximum = 67
Network latency average = 31.8342
	minimum = 7
	maximum = 67
Slowest packet = 10852
Flit latency average = 31.8608
	minimum = 7
	maximum = 67
Slowest flit = 10852
Fragmentation average = 0
	minimum = 0
	maximum = 0
Injected packet rate average = 0.0096875
	minimum = 0.0078 (at node 13)
	maximum = 0.0114 (at node 7)
Accepted packet rate average = 0.0097
	minimum = 0.0072 (at node 3)
	maximum = 0.0122 (at node 10)
Injected flit rate average = 0.0096875
	minimum = 0.0078 (at node 13)
	maximum = 0.0114 (at node 7)
Accepted flit rate average= 0.0097
	minimum = 0.0072 (at node 3)
	maximum = 0.0122 (at node 10)
Injected packet length average = 1
Accepted packet length average = 1
Total in-flight flits = 3 (3 measured)
latency change    = 0.00834961
throughput change = 0.00515464
Draining all recorded packets ...
Draining remaining packets ...
Time taken is 8083 cycles
Class 0:
Packet latency average = 31.7532
	minimum = 12
	maximum = 62
Network latency average = 31.7532
	minimum = 12
	maximum = 62
Slowest packet = 11149
Flit latency average = 31.7532
	minimum = 12
	maximum = 62
Slowest flit = 11149
Fragmentation average = 0
	minimum = 0
	maximum = 0
Injected packet rate average = 0.010125
	minimum = 0.004 (at node 5)
	maximum = 0.015 (at node 1)
Accepted packet rate average = 0.009875
	minimum = 0.004 (at node 5)
	maximum = 0.017 (at node 9)
Injected flit rate average = 0.010125
	minimum = 0.004 (at node 5)
	maximum = 0.015 (at node 1)
Accepted flit rate average= 0.009875
	minimum = 0.004 (at node 5)
	maximum = 0.017 (at node 9)
Injected packet length average = 1
Accepted packet length average = 1
Total in-flight flits = 4 (0 measured)
latency change    = 1
throughput change = 1
Class 0:
Packet latency average = 31.3429
	minimum = 7
	maximum = 62
Network latency average = 31.3429
	minimum = 7
	maximum = 62
Slowest packet = 11149
Flit latency average = 31.3429
	minimum = 7
	maximum = 62
Slowest flit = 11149
Fragmentation average = 0
	minimum = 0
	maximum = 0
Injected packet rate average = 0.010125
	minimum = 0.007 (at node 12)
	maximum = 0.013 (at node 6)
Accepted packet rate average = 0.00984375
	minimum = 0.006 (at node 6)
	maximum = 0.014 (at node 9)
Injected flit rate average = 0.010125
	minimum = 0.007 (at node 12)
	maximum = 0.013 (at node 6)
Accepted flit rate average= 0.00984375
	minimum = 0.006 (at node 6)
	maximum = 0.014 (at node 9)
Injected packet length average = 1
Accepted packet length average = 1
Total in-flight flits = 9 (0 measured)
latency change    = 0.0130909
throughput change = 0.0031746
Class 0:
Packet latency average = 33.0427
	minimum = 7
	maximum = 62
Network latency average = 33.0427
	minimum = 7
	maximum = 62
Slowest packet = 11442
Flit latency average = 33.0427
	minimum = 7
	maximum = 62
Slowest flit = 11442
Fragmentation average = 0
	minimum = 0
	maximum = 0
Injected packet rate average = 0.0098125
	minimum = 0.005 (at node 6)
	maximum = 0.018 (at node 7)
Accepted packet rate average = 0.01025
	minimum = 0.004 (at node 10)
	maximum = 0.014 (at node 2)
Injected flit rate average = 0.0098125
	minimum = 0.005 (at node 6)
	maximum = 0.018 (at node 7)
Accepted flit rate average= 0.01025
	minimum = 0.004 (at node 10)
	maximum = 0.014 (at node 2)
Injected packet length average = 1
Accepted packet length average = 1
Total in-flight flits = 2 (0 measured)
latency change    = 0.0514433
throughput change = 0.0396341
Warmed up ...Time used is 3000 cycles
Class 0:
Packet latency average = 31.9759
	minimum = 12
	maximum = 57
Network latency average = 31.9759
	minimum = 12
	maximum = 57
Slowest packet = 11640
Flit latency average = 31.9464
	minimum = 12
	maximum = 57
Slowest flit = 11640
Fragmentation average = 0
	minimum = 0
	maximum = 0
Injected packet rate average = 0.01075
	minimum = 0.006 (at node 12)
	maximum = 0.017 (at node 1)
Accepted packet rate average = 0.0105
	minimum = 0.004 (at node 13)
	maximum = 0.022 (at node 1)
Injected flit rate average = 0.01075
	minimum = 0.006 (at node 12)
	maximum = 0.017 (at node 1)
Accepted flit rate average= 0.0105
	minimum = 0.004 (at node 13)
	maximum = 0.022 (at node 1)
Injected packet length average = 1
Accepted packet length average = 1
Total in-flight flits = 6 (6 measured)
latency change    = 0.033362
throughput change = 0.0238095
Class 0:
Packet latency average = 32.592
	minimum = 12
	maximum = 57
Network latency average = 32.592
	minimum = 12
	maximum = 57
Slowest packet = 11640
Flit latency average = 32.5732
	minimum = 12
	maximum = 57
Slowest flit = 11640
Fragmentation average = 0
	minimum = 0
	maximum = 0
Injected packet rate average = 0.0104375
	minimum = 0.006 (at node 10)
	maximum = 0.0145 (at node 7)
Accepted packet rate average = 0.01025
	minimum = 0.006 (at node 13)
	maximum = 0.0145 (at node 1)
Injected flit rate average = 0.0104375
	minimum = 0.006 (at node 10)
	maximum = 0.0145 (at node 7)
Accepted flit rate average= 0.01025
	minimum = 0.006 (at node 13)
	maximum = 0.0145 (at node 1)
Injected packet length average = 1
Accepted packet length average = 1
Total in-flight flits = 8 (8 measured)
latency change    = 0.018904
throughput change = 0.0243902
Class 0:
Packet latency average = 32.2163
	minimum = 12
	maximum = 59
Network latency average = 32.2163
	minimum = 12
	maximum = 59
Slowest packet = 12003
Flit latency average = 32.2053
	minimum = 12
	maximum = 59
Slowest flit = 12003
Fragmentation average = 0
	minimum = 0
	maximum = 0
Injected packet rate average = 0.010375
	minimum = 0.008 (at node 6)
	maximum = 0.0133333 (at node 7)
Accepted packet rate average = 0.01025
	minimum = 0.008 (at node 2)
	maximum = 0.015 (at node 1)
Injected flit rate average = 0.010375
	minimum = 0.008 (at node 6)
	maximum = 0.0133333 (at node 7)
Accepted flit rate average= 0.01025
	minimum = 0.008 (at node 2)
	maximum = 0.015 (at node 1)
Injected packet length average = 1
Accepted packet length average = 1
Total in-flight flits = 8 (8 measured)
latency change    = 0.0116617
throughput change = 0
Draining all recorded packets ...
Draining remaining packets ...
Time taken is 6072 cycles
Class 0:
Packet latency average = 31.7029
	minimum = 7
	maximum = 62
Network latency average = 31.7029
	minimum = 7
	maximum = 62
Slowest packet = 12102
Flit latency average = 31.7029
	minimum = 7
	maximum = 62
Slowest flit = 12102
Fragmentation average = 0
	minimum = 0
	maximum = 0
Injected packet rate average = 0.00875
	minimum = 0.004 (at node 4)
	maximum = 0.015 (at node 1)
Accepted packet rate average = 0.008625
	minimum = 0.002 (at node 6)
	maximum = 0.013 (at node 12)
Injected flit rate average = 0.00875
	minimum = 0.004 (at node 4)
	maximum = 0.015 (at node 1)
Accepted flit rate average= 0.008625
	minimum = 0.002 (at node 6)
	maximum = 0.013 (at node 12)
Injected packet length average = 1
Accepted packet length average = 1
Total in-flight flits = 2 (0 measured)
latency change    = 1
throughput change = 1
Class 0:
Packet latency average = 31.363
	minimum = 7
	maximum = 62
Network latency average = 31.363
	minimum = 7
	maximum = 62
Slowest packet = 12102
Flit latency average = 31.363
	minimum = 7
	maximum = 62
Slowest flit = 12102
Fragmentation average = 0
	minimum = 0
	maximum = 0
Injected packet rate average = 0.008875
	minimum = 0.005 (at node 13)
	maximum = 0.012 (at node 1)
Accepted packet rate average = 0.00878125
	minimum = 0.006 (at node 0)
	maximum = 0.012 (at node 9)
Injected flit rate average = 0.008875
	minimum = 0.005 (at node 13)
	maximum = 0.012 (at node 1)
Accepted flit rate average= 0.00878125
	minimum = 0.006 (at node 0)
	maximum = 0.012 (at node 9)
Injected packet length average = 1
Accepted packet length average = 1
Total in-flight flits = 3 (0 measured)
latency change    = 0.0108379
throughput change = 0.0177936
Class 0:
Packet latency average = 31.7784
	minimum = 7
	maximum = 57
Network latency average = 31.7784
	minimum = 7
	maximum = 57
Slowest packet = 12450
Flit latency average = 31.7784
	minimum = 7
	maximum = 57
Slowest flit = 12450
Fragmentation average = 0
	minimum = 0
	maximum = 0
Injected packet rate average = 0.0113125
	minimum = 0.007 (at node 6)
	maximum = 0.016 (at node 5)
Accepted packet rate average = 0.011
	minimum = 0.006 (at node 7)
	maximum = 0.015 (at node 1)
Injected flit rate average = 0.0113125
	minimum = 0.007 (at node 6)
	maximum = 0.016 (at node 5)
Accepted flit rate average= 0.011
	minimum = 0.006 (at node 7)
	maximum = 0.015 (at node 1)
Injected packet length average = 1
Accepted packet length average = 1
Total in-flight flits = 8 (0 measured)
latency change    = 0.0130724
throughput change = 0.201705
Warmed up ...Time used is 3000 cycles
Class 0:
Packet latency average = 32.1067
	minimum = 12
	maximum = 62
Network latency average = 32.1067
	minimum = 12
	maximum = 62
Slowest packet = 12577
Flit latency average = 32.2911
	minimum = 12
	maximum = 62
Slowest flit = 12577
Fragmentation average = 0
	minimum = 0
	maximum = 0
Injected packet rate average = 0.009875
	minimum = 0.004 (at node 2)
	maximum = 0.014 (at node 1)
Accepted packet rate average = 0.009875
	minimum = 0.006 (at node 6)
	maximum = 0.015 (at node 12)
Injected flit rate average = 0.009875
	minimum = 0.004 (at node 2)
	maximum = 0.014 (at node 1)
Accepted flit rate average= 0.009875
	minimum = 0.006 (at node 6)
	maximum = 0.015 (at node 12)
Injected packet length average = 1
Accepted packet length average = 1
Total in-flight flits = 8 (8 measured)
latency change    = 0.010224
throughput change = 0.113924
Class 0:
Packet latency average = 31.8411
	minimum = 12
	maximum = 62
Network latency average = 31.8411
	minimum = 12
	maximum = 62
Slowest packet = 12577
Flit latency average = 31.9362
	minimum = 12
	maximum = 62
Slowest flit = 12577
Fragmentation average = 0
	minimum = 0
	maximum = 0
Injected packet rate average = 0.0101563
	minimum = 0.007 (at node 2)
	maximum = 0.0125 (at node 12)
Accepted packet rate average = 0.0102813
	minimum = 0.007 (at node 15)
	maximum = 0.014 (at node 4)
Injected flit rate average = 0.0101563
	minimum = 0.007 (at node 2)
	maximum = 0.0125 (at node 12)
Accepted flit rate average= 0.0102813
	minimum = 0.007 (at node 15)
	maximum = 0.014 (at node 4)
Injected packet length average = 1
Accepted packet length average = 1
Total in-flight flits = 4 (4 measured)
latency change    = 0.00833969
throughput change = 0.0395137
Class 0:
Packet latency average = 31.7754
	minimum = 7
	maximum = 62
Network latency average = 31.7754
	minimum = 7
	maximum = 62
Slowest packet = 12577
Flit latency average = 31.8417
	minimum = 7
	maximum = 62
Slowest flit = 12577
Fragmentation average = 0
	minimum = 0
	maximum = 0
Injected packet rate average = 0.00991667
	minimum = 0.006 (at node 2)
	maximum = 0.0126667 (at node 8)
Accepted packet rate average = 0.01
	minimum = 0.006 (at node 9)
	maximum = 0.0153333 (at node 4)
Injected flit rate average = 0.00991667
	minimum = 0.006 (at node 2)
	maximum = 0.0126667 (at node 8)
Accepted flit rate average= 0.01
	minimum = 0.006 (at node 9)
	maximum = 0.0153333 (at node 4)
Injected packet length average = 1
Accepted packet length average = 1
Total in-flight flits = 4 (4 measured)
latency change    = 0.00206757
throughput change = 0.028125
Class 0:
Packet latency average = 31.7326
	minimum = 7
	maximum = 62
Network latency average = 31.7326
	minimum = 7
	maximum = 62
Slowest packet = 12577
Flit latency average = 31.7828
	minimum = 7
	maximum = 62
Slowest flit = 12577
Fragmentation average = 0
	minimum = 0
	maximum = 0
Injected packet rate average = 0.00989063
	minimum = 0.0065 (at node 2)
	maximum = 0.01275 (at node 8)
Accepted packet rate average = 0.01
	minimum = 0.0065 (at node 15)
	maximum = 0.013 (at node 2)
Injected flit rate average = 0.00989063
	minimum = 0.0065 (at node 2)
	maximum = 0.01275 (at node 8)
Accepted flit rate average= 0.01
	minimum = 0.0065 (at node 15)
	maximum = 0.013 (at node 2)
Injected packet length average = 1
Accepted packet length average = 1
Total in-flight flits = 1 (1 measured)
latency change    = 0.00134968
throughput change = 0
Draining all recorded packets ...
Draining remaining packets ...
Time taken is 7075 cycles
Class 0:
Packet latency average = 31.7442
	minimum = 12
	maximum = 57
Network latency average = 31.7442
	minimum = 12
	maximum = 57
Slowest packet = 13374
Flit latency average = 31.7442
	minimum = 12
	maximum = 57
Slowest flit = 13374
Fragmentation average = 0
	minimum = 0
	maximum = 0
Injected packet rate average = 0.011125
	minimum = 0.007 (at node 9)
	maximum = 0.015 (at node 4)
Accepted packet rate average = 0.01075
	minimum = 0.005 (at node 10)
	maximum = 0.022 (at node 8)
Injected flit rate average = 0.011125
	minimum = 0.007 (at node 9)
	maximum = 0.015 (at node 4)
Accepted flit rate average= 0.01075
	minimum = 0.005 (at node 10)
	maximum = 0.022 (at node 8)
Injected packet length average = 1
Accepted packet length average = 1
Total in-flight flits = 6 (0 measured)
latency change    = 1
throughput change = 1
Class 0:
Packet latency average = 32.2607
	minimum = 12
	maximum = 62
Network latency average = 32.2607
	minimum = 12
	maximum = 62
Slowest packet = 13516
Flit latency average = 32.2607
	minimum = 12
	maximum = 62
Slowest flit = 13516
Fragmentation average = 0
	minimum = 0
	maximum = 0
Injected packet rate average = 0.0102813
	minimum = 0.0075 (at node 6)
	maximum = 0.014 (at node 7)
Accepted packet rate average = 0.0101875
	minimum = 0.0055 (at node 10)
	maximum = 0.0165 (at node 8)
Injected flit rate average = 0.0102813
	minimum = 0.0075 (at node 6)
	maximum = 0.014 (at node 7)
Accepted flit rate average= 0.0101875
	minimum = 0.0055 (at node 10)
	maximum = 0.0165 (at node 8)
Injected packet length average = 1
Accepted packet length average = 1
Total in-flight flits = 3 (0 measured)
latency change    = 0.0160117
throughput change = 0.0552147
Class 0:
Packet latency average = 31.6903
	minimum = 7
	maximum = 57
Network latency average = 31.6903
	minimum = 7
	maximum = 57
Slowest packet = 13534
Flit latency average = 31.6903
	minimum = 7
	maximum = 57
Slowest flit = 13534
Fragmentation average = 0
	minimum = 0
	maximum = 0
Injected packet rate average = 0.0096875
	minimum = 0.007 (at node 7)
	maximum = 0.013 (at node 8)
Accepted packet rate average = 0.0096875
	minimum = 0.005 (at node 3)
	maximum = 0.016 (at node 0)
Injected flit rate average = 0.0096875
	minimum = 0.007 (at node 7)
	maximum = 0.013 (at node 8)
Accepted flit rate average= 0.0096875
	minimum = 0.005 (at node 3)
	maximum = 0.016 (at node 0)
Injected packet length average = 1
Accepted packet length average = 1
Total in-flight flits = 3 (0 measured)
latency change    = 0.0179996
throughput change = 0.0516129
Warmed up ...Time used is 3000 cycles
Class 0:
Packet latency average = 32.2814
	minimum = 12
	maximum = 62
Network latency average = 32.2814
	minimum = 12
	maximum = 62
Slowest packet = 13804
Flit latency average = 32.3353
	minimum = 12
	maximum = 62
Slowest flit = 13804
Fragmentation average = 0
	minimum = 0
	maximum = 0
Injected packet rate average = 0.01075
	minimum = 0.005 (at node 11)
	maximum = 0.017 (at node 6)
Accepted packet rate average = 0.010625
	minimum = 0.004 (at node 7)
	maximum = 0.015 (at node 3)
Injected flit rate average = 0.01075
	minimum = 0.005 (at node 11)
	maximum = 0.017 (at node 6)
Accepted flit rate average= 0.010625
	minimum = 0.004 (at node 7)
	maximum = 0.015 (at node 3)
Injected packet length average = 1
Accepted packet length average = 1
Total in-flight flits = 5 (5 measured)
latency change    = 0.0183113
throughput change = 0.0882353
Class 0:
Packet latency average = 32.5361
	minimum = 12
	maximum = 62
Network latency average = 32.5361
	minimum = 12
	maximum = 62
Slowest packet = 13804
Flit latency average = 32.5621
	minimum = 12
	maximum = 62
Slowest flit = 13804
Fragmentation average = 0
	minimum = 0
	maximum = 0
Injected packet rate average = 0.0102188
	minimum = 0.006 (at node 11)
	maximum = 0.0145 (at node 3)
Accepted packet rate average = 0.0100625
	minimum = 0.005 (at node 0)
	maximum = 0.0145 (at node 3)
Injected flit rate average = 0.0102188
	minimum = 0.006 (at node 11)
	maximum = 0.0145 (at node 3)
Accepted flit rate average= 0.0100625
	minimum = 0.005 (at node 0)
	maximum = 0.0145 (at node 3)
Injected packet length average = 1
Accepted packet length average = 1
Total in-flight flits = 8 (8 measured)
latency change    = 0.00782557
throughput change = 0.0559006
Class 0:
Packet latency average = 31.9923
	minimum = 12
	maximum = 62
Network latency average = 31.9923
	minimum = 12
	maximum = 62
Slowest packet = 13804
Flit latency average = 32.0115
	minimum = 12
	maximum = 62
Slowest flit = 13804
Fragmentation average = 0
	minimum = 0
	maximum = 0
Injected packet rate average = 0.0108542
	minimum = 0.008 (at node 5)
	maximum = 0.0163333 (at node 3)
Accepted packet rate average = 0.010875
	minimum = 0.007 (at node 0)
	maximum = 0.014 (at node 13)
Injected flit rate average = 0.0108542
	minimum = 0.008 (at node 5)
	maximum = 0.0163333 (at node 3)
Accepted flit rate average= 0.010875
	minimum = 0.007 (at node 0)
	maximum = 0.014 (at node 13)
Injected packet length average = 1
Accepted packet length average = 1
Total in-flight flits = 2 (2 measured)
latency change    = 0.0169965
throughput change = 0.0747126
Class 0:
Packet latency average = 31.8665
	minimum = 7
	maximum = 67
Network latency average = 31.8665
	minimum = 7
	maximum = 67
Slowest packet = 14228
Flit latency average = 31.8818
	minimum = 7
	maximum = 67
Slowest flit = 14228
Fragmentation average = 0
	minimum = 0
	maximum = 0
Injected packet rate average = 0.0106094
	minimum = 0.00775 (at node 5)
	maximum = 0.0145 (at node 3)
Accepted packet rate average = 0.0105781
	minimum = 0.0065 (at node 0)
	maximum = 0.0135 (at node 3)
Injected flit rate average = 0.0106094
	minimum = 0.00775 (at node 5)
	maximum = 0.0145 (at node 3)
Accepted flit rate average= 0.0105781
	minimum = 0.0065 (at node 0)
	maximum = 0.0135 (at node 3)
Injected packet length average = 1
Accepted packet length average = 1
Total in-flight flits = 5 (5 measured)
latency change    = 0.00394848
throughput change = 0.028065
Class 0:
Packet latency average = 31.8428
	minimum = 7
	maximum = 67
Network latency average = 31.8428
	minimum = 7
	maximum = 67
Slowest packet = 14228
Flit latency average = 31.8557
	minimum = 7
	maximum = 67
Slowest flit = 14228
Fragmentation average = 0
	minimum = 0
	maximum = 0
Injected packet rate average = 0.010175
	minimum = 0.008 (at node 7)
	maximum = 0.013 (at node 3)
Accepted packet rate average = 0.0101375
	minimum = 0.0068 (at node 0)
	maximum = 0.0128 (at node 3)
Injected flit rate average = 0.010175
	minimum = 0.008 (at node 7)
	maximum = 0.013 (at node 3)
Accepted flit rate average= 0.0101375
	minimum = 0.0068 (at node 0)
	maximum = 0.0128 (at node 3)
Injected packet length average = 1
Accepted packet length average = 1
Total in-flight flits = 6 (6 measured)
latency change    = 0.000742618
throughput change = 0.0434649
Class 0:
Packet latency average = 31.738
	minimum = 7
	maximum = 67
Network latency average = 31.738
	minimum = 7
	maximum = 67
Slowest packet = 14228
Flit latency average = 31.749
	minimum = 7
	maximum = 67
Slowest flit = 14228
Fragmentation average = 0
	minimum = 0
	maximum = 0
Injected packet rate average = 0.0102604
	minimum = 0.00783333 (at node 7)
	maximum = 0.0123333 (at node 4)
Accepted packet rate average = 0.01025
	minimum = 0.00666667 (at node 0)
	maximum = 0.0131667 (at node 15)
Injected flit rate average = 0.0102604
	minimum = 0.00783333 (at node 7)
	maximum = 0.0123333 (at node 4)
Accepted flit rate average= 0.01025
	minimum = 0.00666667 (at node 0)
	maximum = 0.0131667 (at node 15)
Injected packet length average = 1
Accepted packet length average = 1
Total in-flight flits = 4 (4 measured)
latency change    = 0.00330201
throughput change = 0.0109756
Draining all recorded packets ...
Draining remaining packets ...
Time taken is 9058 cycles
Class 0:
Packet latency average = 31.0123
	minimum = 7
	maximum = 57
Network latency average = 31.0123
	minimum = 7
	maximum = 57
Slowest packet = 14752
Flit latency average = 31.0123
	minimum = 7
	maximum = 57
Slowest flit = 14752
Fragmentation average = 0
	minimum = 0
	maximum = 0
Injected packet rate average = 0.0105
	minimum = 0.002 (at node 13)
	maximum = 0.015 (at node 9)
Accepted packet rate average = 0.010125
	minimum = 0.004 (at node 13)
	maximum = 0.015 (at node 8)
Injected flit rate average = 0.0105
	minimum = 0.002 (at node 13)
	maximum = 0.015 (at node 9)
Accepted flit rate average= 0.010125
	minimum = 0.004 (at node 13)
	maximum = 0.015 (at node 8)
Injected packet length average = 1
Accepted packet length average = 1
Total in-flight flits = 6 (0 measured)
latency change    = 1
[...]
	minimum = 0.0065 (at node 10)
	maximum = 0.0155 (at node 14)
Accepted packet rate average = 0.0099375
	minimum = 0.0055 (at node 2)
	maximum = 0.014 (at node 9)
Injected flit rate average = 0.0100313
	minimum = 0.0065 (at node 10)
	maximum = 0.0155 (at node 14)
Accepted flit rate average= 0.0099375
	minimum = 0.0055 (at node 2)
	maximum = 0.014 (at node 9)
Injected packet length average = 1
Accepted packet length average = 1
Total in-flight flits = 3 (0 measured)
latency change    = 0.00476976
throughput change = 0.169811
Class 0:
Packet latency average = 32.5455
	minimum = 17
	maximum = 57
Network latency average = 32.5455
	minimum = 17
	maximum = 57
Slowest packet = 116475
Flit latency average = 32.5455
	minimum = 17
	maximum = 57
Slowest flit = 116475
Fragmentation average = 0
	minimum = 0
	maximum = 0
Injected packet rate average = 0.011125
	minimum = 0.007 (at node 5)
	maximum = 0.015 (at node 13)
Accepted packet rate average = 0.011
	minimum = 0.003 (at node 12)
	maximum = 0.022 (at node 6)
Injected flit rate average = 0.011125
	minimum = 0.007 (at node 5)
	maximum = 0.015 (at node 13)
Accepted flit rate average= 0.011
	minimum = 0.003 (at node 12)
	maximum = 0.022 (at node 6)
Injected packet length average = 1
Accepted packet length average = 1
Total in-flight flits = 5 (0 measured)
latency change    = 0.00642985
throughput change = 0.0965909
Warmed up ...Time used is 3000 cycles
Class 0:
Packet latency average = 31.6892
	minimum = 12
	maximum = 57
Network latency average = 31.6892
	minimum = 12
	maximum = 57
Slowest packet = 116655
Flit latency average = 31.732
	minimum = 12
	maximum = 57
Slowest flit = 116655
Fragmentation average = 0
	minimum = 0
	maximum = 0
Injected packet rate average = 0.0094375
	minimum = 0.004 (at node 11)
	maximum = 0.016 (at node 6)
Accepted packet rate average = 0.0095625
	minimum = 0.004 (at node 8)
	maximum = 0.014 (at node 1)
Injected flit rate average = 0.0094375
	minimum = 0.004 (at node 11)
	maximum = 0.016 (at node 6)
Accepted flit rate average= 0.0095625
	minimum = 0.004 (at node 8)
	maximum = 0.014 (at node 1)
Injected packet length average = 1
Accepted packet length average = 1
Total in-flight flits = 3 (3 measured)
latency change    = 0.0270207
throughput change = 0.150327
Class 0:
Packet latency average = 31.5696
	minimum = 7
	maximum = 62
Network latency average = 31.5696
	minimum = 7
	maximum = 62
Slowest packet = 116908
Flit latency average = 31.5919
	minimum = 7
	maximum = 62
Slowest flit = 116908
Fragmentation average = 0
	minimum = 0
	maximum = 0
Injected packet rate average = 0.0100625
	minimum = 0.006 (at node 7)
	maximum = 0.0165 (at node 6)
Accepted packet rate average = 0.0100313
	minimum = 0.0045 (at node 8)
	maximum = 0.0135 (at node 6)
Injected flit rate average = 0.0100625
	minimum = 0.006 (at node 7)
	maximum = 0.0165 (at node 6)
Accepted flit rate average= 0.0100313
	minimum = 0.0045 (at node 8)
	maximum = 0.0135 (at node 6)
Injected packet length average = 1
Accepted packet length average = 1
Total in-flight flits = 6 (6 measured)
latency change    = 0.00378747
throughput change = 0.046729
Class 0:
Packet latency average = 31.6752
	minimum = 7
	maximum = 62
Network latency average = 31.6752
	minimum = 7
	maximum = 62
Slowest packet = 116908
Flit latency average = 31.6891
	minimum = 7
	maximum = 62
Slowest flit = 116908
Fragmentation average = 0
	minimum = 0
	maximum = 0
Injected packet rate average = 0.00983333
	minimum = 0.00633333 (at node 7)
	maximum = 0.0156667 (at node 6)
Accepted packet rate average = 0.00991667
	minimum = 0.00533333 (at node 8)
	maximum = 0.0133333 (at node 6)
Injected flit rate average = 0.00983333
	minimum = 0.00633333 (at node 7)
	maximum = 0.0156667 (at node 6)
Accepted flit rate average= 0.00991667
	minimum = 0.00533333 (at node 8)
	maximum = 0.0133333 (at node 6)
Injected packet length average = 1
Accepted packet length average = 1
Total in-flight flits = 1 (1 measured)
latency change    = 0.00333192
throughput change = 0.0115546
Class 0:
Packet latency average = 31.3704
	minimum = 7
	maximum = 62
Network latency average = 31.3704
	minimum = 7
	maximum = 62
Slowest packet = 116908
Flit latency average = 31.3834
	minimum = 7
	maximum = 62
Slowest flit = 116908
Fragmentation average = 0
	minimum = 0
	maximum = 0
Injected packet rate average = 0.00976562
	minimum = 0.007 (at node 7)
	maximum = 0.014 (at node 6)
Accepted packet rate average = 0.00978125
	minimum = 0.00575 (at node 8)
	maximum = 0.0135 (at node 1)
Injected flit rate average = 0.00976562
	minimum = 0.007 (at node 7)
	maximum = 0.014 (at node 6)
Accepted flit rate average= 0.00978125
	minimum = 0.00575 (at node 8)
	maximum = 0.0135 (at node 1)
Injected packet length average = 1
Accepted packet length average = 1
Total in-flight flits = 4 (4 measured)
latency change    = 0.00971582
throughput change = 0.0138445
Draining all recorded packets ...
Draining remaining packets ...
Time taken is 7081 cycles
Class 0:
Packet latency average = 31.7613
	minimum = 12
	maximum = 57
Network latency average = 31.7613
	minimum = 12
	maximum = 57
Slowest packet = 117298
Flit latency average = 31.7613
	minimum = 12
	maximum = 57
Slowest flit = 117298
Fragmentation average = 0
	minimum = 0
	maximum = 0
Injected packet rate average = 0.0099375
	minimum = 0.005 (at node 9)
	maximum = 0.016 (at node 1)
Accepted packet rate average = 0.0096875
	minimum = 0.005 (at node 1)
	maximum = 0.014 (at node 8)
Injected flit rate average = 0.0099375
	minimum = 0.005 (at node 9)
	maximum = 0.016 (at node 1)
Accepted flit rate average= 0.0096875
	minimum = 0.005 (at node 1)
	maximum = 0.014 (at node 8)
Injected packet length average = 1
Accepted packet length average = 1
Total in-flight flits = 4 (0 measured)
latency change    = 1
throughput change = 1
Class 0:
Packet latency average = 32.0878
	minimum = 12
	maximum = 63
Network latency average = 32.0878
	minimum = 12
	maximum = 63
Slowest packet = 117569
Flit latency average = 32.0878
	minimum = 12
	maximum = 63
Slowest flit = 117569
Fragmentation average = 0
	minimum = 0
	maximum = 0
Injected packet rate average = 0.0100313
	minimum = 0.0065 (at node 8)
	maximum = 0.0125 (at node 1)
Accepted packet rate average = 0.00996875
	minimum = 0.007 (at node 0)
	maximum = 0.013 (at node 9)
Injected flit rate average = 0.0100313
	minimum = 0.0065 (at node 8)
	maximum = 0.0125 (at node 1)
Accepted flit rate average= 0.00996875
	minimum = 0.007 (at node 0)
	maximum = 0.013 (at node 9)
Injected packet length average = 1
Accepted packet length average = 1
Total in-flight flits = 2 (0 measured)
latency change    = 0.0101747
throughput change = 0.0282132
Class 0:
Packet latency average = 31.247
	minimum = 7
	maximum = 62
Network latency average = 31.247
	minimum = 7
	maximum = 62
Slowest packet = 117613
Flit latency average = 31.247
	minimum = 7
	maximum = 62
Slowest flit = 117613
Fragmentation average = 0
	minimum = 0
	maximum = 0
Injected packet rate average = 0.0105625
	minimum = 0.003 (at node 12)
	maximum = 0.016 (at node 5)
Accepted packet rate average = 0.010375
	minimum = 0.004 (at node 13)
	maximum = 0.019 (at node 5)
Injected flit rate average = 0.0105625
	minimum = 0.003 (at node 12)
	maximum = 0.016 (at node 5)
Accepted flit rate average= 0.010375
	minimum = 0.004 (at node 13)
	maximum = 0.019 (at node 5)
Injected packet length average = 1
Accepted packet length average = 1
Total in-flight flits = 5 (0 measured)
latency change    = 0.0269078
throughput change = 0.0391566
Warmed up ...Time used is 3000 cycles
Class 0:
Packet latency average = 34.496
	minimum = 12
	maximum = 62
Network latency average = 34.496
	minimum = 12
	maximum = 62
Slowest packet = 117869
Flit latency average = 34.4385
	minimum = 12
	maximum = 62
Slowest flit = 117869
Fragmentation average = 0
	minimum = 0
	maximum = 0
Injected packet rate average = 0.008
	minimum = 0.003 (at node 9)
	maximum = 0.014 (at node 11)
Accepted packet rate average = 0.008125
	minimum = 0.004 (at node 8)
	maximum = 0.014 (at node 11)
Injected flit rate average = 0.008
	minimum = 0.003 (at node 9)
	maximum = 0.014 (at node 11)
Accepted flit rate average= 0.008125
	minimum = 0.004 (at node 8)
	maximum = 0.014 (at node 11)
Injected packet length average = 1
Accepted packet length average = 1
Total in-flight flits = 3 (3 measured)
latency change    = 0.0941852
throughput change = 0.276923
Class 0:
Packet latency average = 33.4296
	minimum = 7
	maximum = 62
Network latency average = 33.4296
	minimum = 7
	maximum = 62
Slowest packet = 117869
Flit latency average = 33.4221
	minimum = 7
	maximum = 62
Slowest flit = 117869
Fragmentation average = 0
	minimum = 0
	maximum = 0
Injected packet rate average = 0.0089375
	minimum = 0.0055 (at node 9)
	maximum = 0.0115 (at node 8)
Accepted packet rate average = 0.00903125
	minimum = 0.0065 (at node 8)
	maximum = 0.013 (at node 11)
Injected flit rate average = 0.0089375
	minimum = 0.0055 (at node 9)
	maximum = 0.0115 (at node 8)
Accepted flit rate average= 0.00903125
	minimum = 0.0065 (at node 8)
	maximum = 0.013 (at node 11)
Injected packet length average = 1
Accepted packet length average = 1
Total in-flight flits = 2 (2 measured)
latency change    = 0.0319006
throughput change = 0.100346
Class 0:
Packet latency average = 32.68
	minimum = 7
	maximum = 62
Network latency average = 32.68
	minimum = 7
	maximum = 62
Slowest packet = 117869
Flit latency average = 32.6835
	minimum = 7
	maximum = 62
Slowest flit = 117869
Fragmentation average = 0
	minimum = 0
	maximum = 0
Injected packet rate average = 0.0094375
	minimum = 0.007 (at node 4)
	maximum = 0.012 (at node 15)
Accepted packet rate average = 0.00947917
	minimum = 0.007 (at node 14)
	maximum = 0.0136667 (at node 11)
Injected flit rate average = 0.0094375
	minimum = 0.007 (at node 4)
	maximum = 0.012 (at node 15)
Accepted flit rate average= 0.00947917
	minimum = 0.007 (at node 14)
	maximum = 0.0136667 (at node 11)
Injected packet length average = 1
Accepted packet length average = 1
Total in-flight flits = 3 (3 measured)
latency change    = 0.0229369
throughput change = 0.0472527
Class 0:
Packet latency average = 32.5076
	minimum = 7
	maximum = 62
Network latency average = 32.5076
	minimum = 7
	maximum = 62
Slowest packet = 117869
Flit latency average = 32.5117
	minimum = 7
	maximum = 62
Slowest flit = 117869
Fragmentation average = 0
	minimum = 0
	maximum = 0
Injected packet rate average = 0.00946875
	minimum = 0.007 (at node 4)
	maximum = 0.01225 (at node 15)
Accepted packet rate average = 0.009375
	minimum = 0.0075 (at node 9)
	maximum = 0.01175 (at node 11)
Injected flit rate average = 0.00946875
	minimum = 0.007 (at node 4)
	maximum = 0.01225 (at node 15)
Accepted flit rate average= 0.009375
	minimum = 0.0075 (at node 9)
	maximum = 0.01175 (at node 11)
Injected packet length average = 1
Accepted packet length average = 1
Total in-flight flits = 11 (11 measured)
latency change    = 0.00530452
throughput change = 0.0111111
Class 0:
Packet latency average = 32.2649
	minimum = 7
	maximum = 62
Network latency average = 32.2649
	minimum = 7
	maximum = 62
Slowest packet = 117869
Flit latency average = 32.2697
	minimum = 7
	maximum = 62
Slowest flit = 117869
Fragmentation average = 0
	minimum = 0
	maximum = 0
Injected packet rate average = 0.009525
	minimum = 0.0074 (at node 9)
	maximum = 0.0114 (at node 8)
Accepted packet rate average = 0.0095
	minimum = 0.0078 (at node 14)
	maximum = 0.0106 (at node 5)
Injected flit rate average = 0.009525
	minimum = 0.0074 (at node 9)
	maximum = 0.0114 (at node 8)
Accepted flit rate average= 0.0095
	minimum = 0.0078 (at node 14)
	maximum = 0.0106 (at node 5)
Injected packet length average = 1
Accepted packet length average = 1
Total in-flight flits = 7 (7 measured)
latency change    = 0.00752094
throughput change = 0.0131579
Draining all recorded packets ...
Draining remaining packets ...
Time taken is 8076 cycles
Class 0:
Packet latency average = 32.6643
	minimum = 7
	maximum = 62
Network latency average = 32.6643
	minimum = 7
	maximum = 62
Slowest packet = 118553
Flit latency average = 32.6643
	minimum = 7
	maximum = 62
Slowest flit = 118553
Fragmentation average = 0
	minimum = 0
	maximum = 0
Injected packet rate average = 0.009
	minimum = 0.005 (at node 14)
	maximum = 0.016 (at node 3)
Accepted packet rate average = 0.00875
	minimum = 0.005 (at node 8)
	maximum = 0.015 (at node 1)
Injected flit rate average = 0.009
	minimum = 0.005 (at node 14)
	maximum = 0.016 (at node 3)
Accepted flit rate average= 0.00875
	minimum = 0.005 (at node 8)
	maximum = 0.015 (at node 1)
Injected packet length average = 1
Accepted packet length average = 1
Total in-flight flits = 4 (0 measured)
latency change    = 1
throughput change = 1
Class 0:
Packet latency average = 32.5629
	minimum = 7
	maximum = 62
Network latency average = 32.5629
	minimum = 7
	maximum = 62
Slowest packet = 118553
Flit latency average = 32.5629
	minimum = 7
	maximum = 62
Slowest flit = 118553
Fragmentation average = 0
	minimum = 0
	maximum = 0
Injected packet rate average = 0.0100625
	minimum = 0.0075 (at node 14)
	maximum = 0.0125 (at node 3)
Accepted packet rate average = 0.0099375
	minimum = 0.005 (at node 3)
	maximum = 0.0135 (at node 4)
Injected flit rate average = 0.0100625
	minimum = 0.0075 (at node 14)
	maximum = 0.0125 (at node 3)
Accepted flit rate average= 0.0099375
	minimum = 0.005 (at node 3)
	maximum = 0.0135 (at node 4)
Injected packet length average = 1
Accepted packet length average = 1
Total in-flight flits = 4 (0 measured)
latency change    = 0.00311375
throughput change = 0.119497
Class 0:
Packet latency average = 32.2941
	minimum = 7
	maximum = 67
Network latency average = 32.2941
	minimum = 7
	maximum = 67
Slowest packet = 118850
Flit latency average = 32.2941
	minimum = 7
	maximum = 67
Slowest flit = 118850
Fragmentation average = 0
	minimum = 0
	maximum = 0
Injected packet rate average = 0.0106875
	minimum = 0.007 (at node 0)
	maximum = 0.016 (at node 9)
Accepted packet rate average = 0.010625
	minimum = 0.005 (at node 15)
	maximum = 0.016 (at node 0)
Injected flit rate average = 0.0106875
	minimum = 0.007 (at node 0)
	maximum = 0.016 (at node 9)
Accepted flit rate average= 0.010625
	minimum = 0.005 (at node 15)
	maximum = 0.016 (at node 0)
Injected packet length average = 1
Accepted packet length average = 1
Total in-flight flits = 5 (0 measured)
latency change    = 0.00832274
throughput change = 0.0647059
Warmed up ...Time used is 3000 cycles
Class 0:
Packet latency average = 30.9402
	minimum = 12
	maximum = 57
Network latency average = 30.9402
	minimum = 12
	maximum = 57
Slowest packet = 119042
Flit latency average = 31.3525
	minimum = 12
	maximum = 57
Slowest flit = 119042
Fragmentation average = 0
	minimum = 0
	maximum = 0
Injected packet rate average = 0.007625
	minimum = 0.004 (at node 5)
	maximum = 0.012 (at node 9)
Accepted packet rate average = 0.007625
	minimum = 0.003 (at node 5)
	maximum = 0.015 (at node 3)
Injected flit rate average = 0.007625
	minimum = 0.004 (at node 5)
	maximum = 0.012 (at node 9)
Accepted flit rate average= 0.007625
	minimum = 0.003 (at node 5)
	maximum = 0.015 (at node 3)
Injected packet length average = 1
Accepted packet length average = 1
Total in-flight flits = 5 (5 measured)
latency change    = 0.0437602
throughput change = 0.393443
Class 0:
Packet latency average = 31.7536
	minimum = 12
	maximum = 62
Network latency average = 31.7536
	minimum = 12
	maximum = 62
Slowest packet = 119151
Flit latency average = 31.9181
	minimum = 12
	maximum = 62
Slowest flit = 119151
Fragmentation average = 0
	minimum = 0
	maximum = 0
Injected packet rate average = 0.00878125
	minimum = 0.0065 (at node 5)
	maximum = 0.0125 (at node 13)
Accepted packet rate average = 0.00878125
	minimum = 0.006 (at node 0)
	maximum = 0.0115 (at node 3)
Injected flit rate average = 0.00878125
	minimum = 0.0065 (at node 5)
	maximum = 0.0125 (at node 13)
Accepted flit rate average= 0.00878125
	minimum = 0.006 (at node 0)
	maximum = 0.0115 (at node 3)
Injected packet length average = 1
Accepted packet length average = 1
Total in-flight flits = 5 (5 measured)
latency change    = 0.0256176
throughput change = 0.131673
Class 0:
Packet latency average = 32.1788
	minimum = 12
	maximum = 63
Network latency average = 32.1788
	minimum = 12
	maximum = 63
Slowest packet = 119374
Flit latency average = 32.2814
	minimum = 12
	maximum = 63
Slowest flit = 119374
Fragmentation average = 0
	minimum = 0
	maximum = 0
Injected packet rate average = 0.00891667
	minimum = 0.00566667 (at node 5)
	maximum = 0.0116667 (at node 13)
Accepted packet rate average = 0.00895833
	minimum = 0.006 (at node 9)
	maximum = 0.0123333 (at node 10)
Injected flit rate average = 0.00891667
	minimum = 0.00566667 (at node 5)
	maximum = 0.0116667 (at node 13)
Accepted flit rate average= 0.00895833
	minimum = 0.006 (at node 9)
	maximum = 0.0123333 (at node 10)
Injected packet length average = 1
Accepted packet length average = 1
Total in-flight flits = 3 (3 measured)
latency change    = 0.0132137
throughput change = 0.0197674
Class 0:
Packet latency average = 32.09
	minimum = 7
	maximum = 63
Network latency average = 32.09
	minimum = 7
	maximum = 63
Slowest packet = 119374
Flit latency average = 32.165
	minimum = 7
	maximum = 63
Slowest flit = 119374
Fragmentation average = 0
	minimum = 0
	maximum = 0
Injected packet rate average = 0.00928125
	minimum = 0.00625 (at node 5)
	maximum = 0.01225 (at node 13)
Accepted packet rate average = 0.00928125
	minimum = 0.00675 (at node 5)
	maximum = 0.01125 (at node 10)
Injected flit rate average = 0.00928125
	minimum = 0.00625 (at node 5)
	maximum = 0.01225 (at node 13)
Accepted flit rate average= 0.00928125
	minimum = 0.00675 (at node 5)
	maximum = 0.01125 (at node 10)
Injected packet length average = 1
Accepted packet length average = 1
Total in-flight flits = 5 (5 measured)
latency change    = 0.00276848
throughput change = 0.0347924
Class 0:
Packet latency average = 32.1511
	minimum = 7
	maximum = 63
Network latency average = 32.1511
	minimum = 7
	maximum = 63
Slowest packet = 119374
Flit latency average = 32.2105
	minimum = 7
	maximum = 63
Slowest flit = 119374
Fragmentation average = 0
	minimum = 0
	maximum = 0
Injected packet rate average = 0.009375
	minimum = 0.0066 (at node 5)
	maximum = 0.0118 (at node 7)
Accepted packet rate average = 0.009325
	minimum = 0.0072 (at node 5)
	maximum = 0.0112 (at node 3)
Injected flit rate average = 0.009375
	minimum = 0.0066 (at node 5)
	maximum = 0.0118 (at node 7)
Accepted flit rate average= 0.009325
	minimum = 0.0072 (at node 5)
	maximum = 0.0112 (at node 3)
Injected packet length average = 1
Accepted packet length average = 1
Total in-flight flits = 9 (9 measured)
latency change    = 0.00190239
throughput change = 0.00469169
Draining all recorded packets ...
Draining remaining packets ...
Time taken is 8063 cycles
====== Overall Traffic Statistics ======
====== Traffic class 0 ======
Packet latency average = 32.0407 (100 samples)
	minimum = 7.3 (100 samples)
	maximum = 65 (100 samples)
Network latency average = 32.0407 (100 samples)
	minimum = 7.3 (100 samples)
	maximum = 65 (100 samples)
Flit latency average = 32.0669 (100 samples)
	minimum = 7.3 (100 samples)
	maximum = 65.1 (100 samples)
Fragmentation average = 0 (100 samples)
	minimum = 0 (100 samples)
	maximum = 0 (100 samples)
Injected packet rate average = 0.0100468 (100 samples)
	minimum = 0.00743345 (100 samples)
	maximum = 0.0129685 (100 samples)
Accepted packet rate average = 0.0100529 (100 samples)
	minimum = 0.00740421 (100 samples)
	maximum = 0.0128539 (100 samples)
Injected flit rate average = 0.0100468 (100 samples)
	minimum = 0.00743345 (100 samples)
	maximum = 0.0129685 (100 samples)
Accepted flit rate average = 0.0100529 (100 samples)
	minimum = 0.00740421 (100 samples)
	maximum = 0.0128539 (100 samples)
Injected packet size average = 1 (100 samples)
Accepted packet size average = 1 (100 samples)
Hops average = 5.99404 (100 samples)
Total run time 5.24369
