BEGIN Configuration File: /tmp/bs_1138183_746055.cfg
topology = mesh;
k = 4;
n = 2;
routing_function = min_adapt;
num_vcs = 4;
vc_buf_size = 4;
wait_for_tail_credit = 1;
vc_allocator = islip;
sw_allocator = islip;
alloc_iters = 1;
credit_delay = 2;
routing_delay = 1;
vc_alloc_delay = 1;
sw_alloc_delay = 1;
input_speedup = 2;
output_speedup = 1;
internal_speedup = 1.0;
traffic = hotspot;
packet_size = 1;
sim_type = latency;
injection_rate = 0.02;
warmup_periods = 3;
sample_period = 1000;
sim_count = 100;
seed = 4;

END Configuration File: /tmp/bs_1138183_746055.cfg
Class 0:
Packet latency average = 21.8855
	minimum = 7
	maximum = 66
Network latency average = 21.8855
	minimum = 7
	maximum = 66
Slowest packet = 11
Flit latency average = 21.8855
	minimum = 7
	maximum = 66
Slowest flit = 11
Fragmentation average = 0
	minimum = 0
	maximum = 0
Injected packet rate average = 0.021
	minimum = 0.011 (at node 0)
	maximum = 0.032 (at node 5)
Accepted packet rate average = 0.02075
	minimum = 0 (at node 0)
	maximum = 0.332 (at node 11)
Injected flit rate average = 0.021
	minimum = 0.011 (at node 0)
	maximum = 0.032 (at node 5)
Accepted flit rate average= 0.02075
	minimum = 0 (at node 0)
	maximum = 0.332 (at node 11)
Injected packet length average = 1
Accepted packet length average = 1
Total in-flight flits = 4 (0 measured)
latency change    = 1
throughput change = 1
Class 0:
Packet latency average = 22.0167
	minimum = 7
	maximum = 68
Network latency average = 22.0167
	minimum = 7
	maximum = 68
Slowest packet = 493
Flit latency average = 22.0167
	minimum = 7
	maximum = 68
Slowest flit = 493
Fragmentation average = 0
	minimum = 0
	maximum = 0
Injected packet rate average = 0.0207188
	minimum = 0.0135 (at node 0)
	maximum = 0.025 (at node 5)
Accepted packet rate average = 0.0205313
	minimum = 0 (at node 0)
	maximum = 0.3285 (at node 11)
Injected flit rate average = 0.0207188
	minimum = 0.0135 (at node 0)
	maximum = 0.025 (at node 5)
Accepted flit rate average= 0.0205313
	minimum = 0 (at node 0)
	maximum = 0.3285 (at node 11)
Injected packet length average = 1
Accepted packet length average = 1
Total in-flight flits = 6 (0 measured)
latency change    = 0.00595913
throughput change = 0.0106545
Class 0:
Packet latency average = 22.0245
	minimum = 7
	maximum = 52
Network latency average = 22.0245
	minimum = 7
	maximum = 52
Slowest packet = 923
Flit latency average = 22.0245
	minimum = 7
	maximum = 52
Slowest flit = 923
Fragmentation average = 0
	minimum = 0
	maximum = 0
Injected packet rate average = 0.0204375
	minimum = 0.011 (at node 6)
	maximum = 0.031 (at node 14)
Accepted packet rate average = 0.0204375
	minimum = 0 (at node 0)
	maximum = 0.327 (at node 11)
Injected flit rate average = 0.0204375
	minimum = 0.011 (at node 6)
	maximum = 0.031 (at node 14)
Accepted flit rate average= 0.0204375
	minimum = 0 (at node 0)
	maximum = 0.327 (at node 11)
Injected packet length average = 1
Accepted packet length average = 1
Total in-flight flits = 6 (0 measured)
latency change    = 0.000350613
throughput change = 0.00458716
Warmed up ...Time used is 3000 cycles
Class 0:
Packet latency average = 21.3654
	minimum = 7
	maximum = 82
Network latency average = 21.3654
	minimum = 7
	maximum = 82
Slowest packet = 1097
Flit latency average = 21.3836
	minimum = 7
	maximum = 82
Slowest flit = 1097
Fragmentation average = 0
	minimum = 0
	maximum = 0
Injected packet rate average = 0.019875
	minimum = 0.011 (at node 12)
	maximum = 0.028 (at node 6)
Accepted packet rate average = 0.019875
	minimum = 0 (at node 0)
	maximum = 0.318 (at node 11)
Injected flit rate average = 0.019875
	minimum = 0.011 (at node 12)
	maximum = 0.028 (at node 6)
Accepted flit rate average= 0.019875
	minimum = 0 (at node 0)
	maximum = 0.318 (at node 11)
Injected packet length average = 1
Accepted packet length average = 1
Total in-flight flits = 6 (6 measured)
latency change    = 0.030848
throughput change = 0.0283019
Class 0:
Packet latency average = 21.2452
	minimum = 7
	maximum = 82
Network latency average = 21.2452
	minimum = 7
	maximum = 82
Slowest packet = 1097
Flit latency average = 21.2556
	minimum = 7
	maximum = 82
Slowest flit = 1097
Fragmentation average = 0
	minimum = 0
	maximum = 0
Injected packet rate average = 0.0197813
	minimum = 0.0115 (at node 4)
	maximum = 0.0265 (at node 13)
Accepted packet rate average = 0.0196875
	minimum = 0 (at node 0)
	maximum = 0.315 (at node 11)
Injected flit rate average = 0.0197813
	minimum = 0.0115 (at node 4)
	maximum = 0.0265 (at node 13)
Accepted flit rate average= 0.0196875
	minimum = 0 (at node 0)
	maximum = 0.315 (at node 11)
Injected packet length average = 1
Accepted packet length average = 1
Total in-flight flits = 9 (9 measured)
latency change    = 0.00565739
throughput change = 0.00952381
Class 0:
Packet latency average = 21.0735
	minimum = 7
	maximum = 82
Network latency average = 21.0735
	minimum = 7
	maximum = 82
Slowest packet = 1097
Flit latency average = 21.0814
	minimum = 7
	maximum = 82
Slowest flit = 1097
Fragmentation average = 0
	minimum = 0
	maximum = 0
Injected packet rate average = 0.0199792
	minimum = 0.0133333 (at node 4)
	maximum = 0.0256667 (at node 6)
Accepted packet rate average = 0.0199583
	minimum = 0 (at node 0)
	maximum = 0.319333 (at node 11)
Injected flit rate average = 0.0199792
	minimum = 0.0133333 (at node 4)
	maximum = 0.0256667 (at node 6)
Accepted flit rate average= 0.0199583
	minimum = 0 (at node 0)
	maximum = 0.319333 (at node 11)
Injected packet length average = 1
Accepted packet length average = 1
Total in-flight flits = 7 (7 measured)
latency change    = 0.0081459
throughput change = 0.0135699
Draining all recorded packets ...
Draining remaining packets ...
Time taken is 6053 cycles
Class 0:
Packet latency average = 21.0503
	minimum = 7
	maximum = 51
Network latency average = 21.0503
	minimum = 7
	maximum = 51
Slowest packet = 2088
Flit latency average = 21.0503
	minimum = 7
	maximum = 51
Slowest flit = 2088
Fragmentation average = 0
	minimum = 0
	maximum = 0
Injected packet rate average = 0.0203125
	minimum = 0.012 (at node 8)
	maximum = 0.028 (at node 10)
Accepted packet rate average = 0.019875
	minimum = 0 (at node 0)
	maximum = 0.318 (at node 11)
Injected flit rate average = 0.0203125
	minimum = 0.012 (at node 8)
	maximum = 0.028 (at node 10)
Accepted flit rate average= 0.019875
	minimum = 0 (at node 0)
	maximum = 0.318 (at node 11)
Injected packet length average = 1
Accepted packet length average = 1
Total in-flight flits = 7 (0 measured)
latency change    = 1
throughput change = 1
Class 0:
Packet latency average = 21.6547
	minimum = 7
	maximum = 71
Network latency average = 21.6547
	minimum = 7
	maximum = 71
Slowest packet = 2484
Flit latency average = 21.6547
	minimum = 7
	maximum = 71
Slowest flit = 2484
Fragmentation average = 0
	minimum = 0
	maximum = 0
Injected packet rate average = 0.0201563
	minimum = 0.013 (at node 2)
	maximum = 0.029 (at node 10)
Accepted packet rate average = 0.02
	minimum = 0 (at node 0)
	maximum = 0.32 (at node 11)
Injected flit rate average = 0.0201563
	minimum = 0.013 (at node 2)
	maximum = 0.029 (at node 10)
Accepted flit rate average= 0.02
	minimum = 0 (at node 0)
	maximum = 0.32 (at node 11)
Injected packet length average = 1
Accepted packet length average = 1
Total in-flight flits = 5 (0 measured)
latency change    = 0.0279096
throughput change = 0.00625
Class 0:
Packet latency average = 21.2069
	minimum = 7
	maximum = 63
Network latency average = 21.2069
	minimum = 7
	maximum = 63
Slowest packet = 2783
Flit latency average = 21.2069
	minimum = 7
	maximum = 63
Slowest flit = 2783
Fragmentation average = 0
	minimum = 0
	maximum = 0
Injected packet rate average = 0.02
	minimum = 0.013 (at node 15)
	maximum = 0.03 (at node 7)
Accepted packet rate average = 0.0199375
	minimum = 0 (at node 0)
	maximum = 0.319 (at node 11)
Injected flit rate average = 0.02
	minimum = 0.013 (at node 15)
	maximum = 0.03 (at node 7)
Accepted flit rate average= 0.0199375
	minimum = 0 (at node 0)
	maximum = 0.319 (at node 11)
Injected packet length average = 1
Accepted packet length average = 1
Total in-flight flits = 6 (0 measured)
latency change    = 0.0211153
throughput change = 0.0031348
Warmed up ...Time used is 3000 cycles
Class 0:
Packet latency average = 20.4152
	minimum = 7
	maximum = 47
Network latency average = 20.4152
	minimum = 7
	maximum = 47
Slowest packet = 3118
Flit latency average = 20.4068
	minimum = 7
	maximum = 47
Slowest flit = 3118
Fragmentation average = 0
	minimum = 0
	maximum = 0
Injected packet rate average = 0.018375
	minimum = 0.011 (at node 3)
	maximum = 0.029 (at node 12)
Accepted packet rate average = 0.0184375
	minimum = 0 (at node 0)
	maximum = 0.295 (at node 11)
Injected flit rate average = 0.018375
	minimum = 0.011 (at node 3)
	maximum = 0.029 (at node 12)
Accepted flit rate average= 0.0184375
	minimum = 0 (at node 0)
	maximum = 0.295 (at node 11)
Injected packet length average = 1
Accepted packet length average = 1
Total in-flight flits = 5 (5 measured)
latency change    = 0.0387785
throughput change = 0.0813559
Class 0:
Packet latency average = 20.5573
	minimum = 7
	maximum = 48
Network latency average = 20.5573
	minimum = 7
	maximum = 48
Slowest packet = 3266
Flit latency average = 20.5516
	minimum = 7
	maximum = 48
Slowest flit = 3266
Fragmentation average = 0
	minimum = 0
	maximum = 0
Injected packet rate average = 0.0184375
	minimum = 0.014 (at node 7)
	maximum = 0.0255 (at node 15)
Accepted packet rate average = 0.0184687
	minimum = 0 (at node 0)
	maximum = 0.2955 (at node 11)
Injected flit rate average = 0.0184375
	minimum = 0.014 (at node 7)
	maximum = 0.0255 (at node 15)
Accepted flit rate average= 0.0184687
	minimum = 0 (at node 0)
	maximum = 0.2955 (at node 11)
Injected packet length average = 1
Accepted packet length average = 1
Total in-flight flits = 5 (5 measured)
latency change    = 0.00690948
throughput change = 0.00169205
Class 0:
Packet latency average = 20.4809
	minimum = 7
	maximum = 50
Network latency average = 20.4809
	minimum = 7
	maximum = 50
Slowest packet = 3579
Flit latency average = 20.4776
	minimum = 7
	maximum = 50
Slowest flit = 3579
Fragmentation average = 0
	minimum = 0
	maximum = 0
Injected packet rate average = 0.0181667
	minimum = 0.014 (at node 2)
	maximum = 0.0236667 (at node 15)
Accepted packet rate average = 0.0181458
	minimum = 0 (at node 0)
	maximum = 0.290333 (at node 11)
Injected flit rate average = 0.0181667
	minimum = 0.014 (at node 2)
	maximum = 0.0236667 (at node 15)
Accepted flit rate average= 0.0181458
	minimum = 0 (at node 0)
	maximum = 0.290333 (at node 11)
Injected packet length average = 1
Accepted packet length average = 1
Total in-flight flits = 7 (7 measured)
latency change    = 0.00372738
throughput change = 0.0177956
Class 0:
Packet latency average = 20.7591
	minimum = 7
	maximum = 77
Network latency average = 20.7591
	minimum = 7
	maximum = 77
Slowest packet = 4077
Flit latency average = 20.7553
	minimum = 7
	maximum = 77
Slowest flit = 4077
Fragmentation average = 0
	minimum = 0
	maximum = 0
Injected packet rate average = 0.0185469
	minimum = 0.014 (at node 7)
	maximum = 0.02425 (at node 15)
Accepted packet rate average = 0.0185156
	minimum = 0 (at node 0)
	maximum = 0.29625 (at node 11)
Injected flit rate average = 0.0185469
	minimum = 0.014 (at node 7)
	maximum = 0.02425 (at node 15)
Accepted flit rate average= 0.0185156
	minimum = 0 (at node 0)
	maximum = 0.29625 (at node 11)
Injected packet length average = 1
Accepted packet length average = 1
Total in-flight flits = 8 (8 measured)
latency change    = 0.013401
throughput change = 0.0199719
Draining all recorded packets ...
Draining remaining packets ...
Time taken is 7060 cycles
Class 0:
Packet latency average = 21.0275
	minimum = 7
	maximum = 57
Network latency average = 21.0275
	minimum = 7
	maximum = 57
Slowest packet = 4394
Flit latency average = 21.0275
	minimum = 7
	maximum = 57
Slowest flit = 4394
Fragmentation average = 0
	minimum = 0
	maximum = 0
Injected packet rate average = 0.0210625
	minimum = 0.011 (at node 1)
	maximum = 0.028 (at node 8)
Accepted packet rate average = 0.0204375
	minimum = 0 (at node 0)
	maximum = 0.327 (at node 11)
Injected flit rate average = 0.0210625
	minimum = 0.011 (at node 1)
	maximum = 0.028 (at node 8)
Accepted flit rate average= 0.0204375
	minimum = 0 (at node 0)
	maximum = 0.327 (at node 11)
Injected packet length average = 1
Accepted packet length average = 1
Total in-flight flits = 10 (0 measured)
latency change    = 1
throughput change = 1
Class 0:
Packet latency average = 21.1688
	minimum = 7
	maximum = 63
Network latency average = 21.1688
	minimum = 7
	maximum = 63
Slowest packet = 4468
Flit latency average = 21.1688
	minimum = 7
	maximum = 63
Slowest flit = 4468
Fragmentation average = 0
	minimum = 0
	maximum = 0
Injected packet rate average = 0.019625
	minimum = 0.0135 (at node 5)
	maximum = 0.0255 (at node 2)
Accepted packet rate average = 0.01925
	minimum = 0 (at node 0)
	maximum = 0.308 (at node 11)
Injected flit rate average = 0.019625
	minimum = 0.0135 (at node 5)
	maximum = 0.0255 (at node 2)
Accepted flit rate average= 0.01925
	minimum = 0 (at node 0)
	maximum = 0.308 (at node 11)
Injected packet length average = 1
Accepted packet length average = 1
Total in-flight flits = 12 (0 measured)
latency change    = 0.0066753
throughput change = 0.0616883
Class 0:
Packet latency average = 20.5377
	minimum = 7
	maximum = 48
Network latency average = 20.5377
	minimum = 7
	maximum = 48
Slowest packet = 4809
Flit latency average = 20.5377
	minimum = 7
	maximum = 48
Slowest flit = 4809
Fragmentation average = 0
	minimum = 0
	maximum = 0
Injected packet rate average = 0.018875
	minimum = 0.015 (at node 6)
	maximum = 0.022 (at node 7)
Accepted packet rate average = 0.0190625
	minimum = 0 (at node 0)
	maximum = 0.305 (at node 11)
Injected flit rate average = 0.018875
	minimum = 0.015 (at node 6)
	maximum = 0.022 (at node 7)
Accepted flit rate average= 0.0190625
	minimum = 0 (at node 0)
	maximum = 0.305 (at node 11)
Injected packet length average = 1
Accepted packet length average = 1
Total in-flight flits = 9 (0 measured)
latency change    = 0.0307301
throughput change = 0.00983607
Warmed up ...Time used is 3000 cycles
Class 0:
Packet latency average = 22.623
	minimum = 7
	maximum = 70
Network latency average = 22.623
	minimum = 7
	maximum = 70
Slowest packet = 5063
Flit latency average = 22.6522
	minimum = 7
	maximum = 70
Slowest flit = 5063
Fragmentation average = 0
	minimum = 0
	maximum = 0
Injected packet rate average = 0.02
	minimum = 0.013 (at node 14)
	maximum = 0.026 (at node 15)
Accepted packet rate average = 0.020125
	minimum = 0 (at node 0)
	maximum = 0.322 (at node 11)
Injected flit rate average = 0.02
	minimum = 0.013 (at node 14)
	maximum = 0.026 (at node 15)
Accepted flit rate average= 0.020125
	minimum = 0 (at node 0)
	maximum = 0.322 (at node 11)
Injected packet length average = 1
Accepted packet length average = 1
Total in-flight flits = 7 (7 measured)
latency change    = 0.092176
throughput change = 0.052795
Class 0:
Packet latency average = 22.5174
	minimum = 7
	maximum = 101
Network latency average = 22.5174
	minimum = 7
	maximum = 101
Slowest packet = 5634
Flit latency average = 22.5335
	minimum = 7
	maximum = 101
Slowest flit = 5634
Fragmentation average = 0
	minimum = 0
	maximum = 0
Injected packet rate average = 0.0200313
	minimum = 0.016 (at node 1)
	maximum = 0.027 (at node 15)
Accepted packet rate average = 0.0200313
	minimum = 0 (at node 0)
	maximum = 0.3205 (at node 11)
Injected flit rate average = 0.0200313
	minimum = 0.016 (at node 1)
	maximum = 0.027 (at node 15)
Accepted flit rate average= 0.0200313
	minimum = 0 (at node 0)
	maximum = 0.3205 (at node 11)
Injected packet length average = 1
Accepted packet length average = 1
Total in-flight flits = 9 (9 measured)
latency change    = 0.00468962
throughput change = 0.00468019
Class 0:
Packet latency average = 22.4944
	minimum = 7
	maximum = 101
Network latency average = 22.4944
	minimum = 7
	maximum = 101
Slowest packet = 5634
Flit latency average = 22.5051
	minimum = 7
	maximum = 101
Slowest flit = 5634
Fragmentation average = 0
	minimum = 0
	maximum = 0
Injected packet rate average = 0.0204583
	minimum = 0.0153333 (at node 2)
	maximum = 0.025 (at node 15)
Accepted packet rate average = 0.0205417
	minimum = 0 (at node 0)
	maximum = 0.328667 (at node 11)
Injected flit rate average = 0.0204583
	minimum = 0.0153333 (at node 2)
	maximum = 0.025 (at node 15)
Accepted flit rate average= 0.0205417
	minimum = 0 (at node 0)
	maximum = 0.328667 (at node 11)
Injected packet length average = 1
Accepted packet length average = 1
Total in-flight flits = 5 (5 measured)
latency change    = 0.00102401
throughput change = 0.0248479
Class 0:
Packet latency average = 22.0586
	minimum = 7
	maximum = 101
Network latency average = 22.0586
	minimum = 7
	maximum = 101
Slowest packet = 5634
Flit latency average = 22.0696
	minimum = 7
	maximum = 101
Slowest flit = 5634
Fragmentation average = 0
	minimum = 0
	maximum = 0
Injected packet rate average = 0.0203594
	minimum = 0.01675 (at node 2)
	maximum = 0.02275 (at node 9)
Accepted packet rate average = 0.0204219
	minimum = 0 (at node 0)
	maximum = 0.32675 (at node 11)
Injected flit rate average = 0.0203594
	minimum = 0.01675 (at node 2)
	maximum = 0.02275 (at node 9)
Accepted flit rate average= 0.0204219
	minimum = 0 (at node 0)
	maximum = 0.32675 (at node 11)
Injected packet length average = 1
Accepted packet length average = 1
Total in-flight flits = 5 (5 measured)
latency change    = 0.0197574
throughput change = 0.00586585
Draining all recorded packets ...
Draining remaining packets ...
Time taken is 7055 cycles
Class 0:
Packet latency average = 21.807
	minimum = 7
	maximum = 89
Network latency average = 21.807
	minimum = 7
	maximum = 89
Slowest packet = 6412
Flit latency average = 21.807
	minimum = 7
	maximum = 89
Slowest flit = 6412
Fragmentation average = 0
	minimum = 0
	maximum = 0
Injected packet rate average = 0.020125
	minimum = 0.011 (at node 7)
	maximum = 0.029 (at node 1)
Accepted packet rate average = 0.01975
	minimum = 0 (at node 0)
	maximum = 0.316 (at node 11)
Injected flit rate average = 0.020125
	minimum = 0.011 (at node 7)
	maximum = 0.029 (at node 1)
Accepted flit rate average= 0.01975
	minimum = 0 (at node 0)
	maximum = 0.316 (at node 11)
Injected packet length average = 1
Accepted packet length average = 1
Total in-flight flits = 6 (0 measured)
latency change    = 1
throughput change = 1
Class 0:
Packet latency average = 21.6852
	minimum = 7
	maximum = 89
Network latency average = 21.6852
	minimum = 7
	maximum = 89
Slowest packet = 6412
Flit latency average = 21.6852
	minimum = 7
	maximum = 89
Slowest flit = 6412
Fragmentation average = 0
	minimum = 0
	maximum = 0
Injected packet rate average = 0.0204688
	minimum = 0.0145 (at node 7)
	maximum = 0.0275 (at node 4)
Accepted packet rate average = 0.02025
	minimum = 0 (at node 0)
	maximum = 0.324 (at node 11)
Injected flit rate average = 0.0204688
	minimum = 0.0145 (at node 7)
	maximum = 0.0275 (at node 4)
Accepted flit rate average= 0.02025
	minimum = 0 (at node 0)
	maximum = 0.324 (at node 11)
Injected packet length average = 1
Accepted packet length average = 1
Total in-flight flits = 7 (0 measured)
latency change    = 0.00561567
throughput change = 0.0246914
Class 0:
Packet latency average = 21.1056
	minimum = 7
	maximum = 58
Network latency average = 21.1056
	minimum = 7
	maximum = 58
Slowest packet = 7143
Flit latency average = 21.1056
	minimum = 7
	maximum = 58
Slowest flit = 7143
Fragmentation average = 0
	minimum = 0
	maximum = 0
Injected packet rate average = 0.018875
	minimum = 0.013 (at node 7)
	maximum = 0.026 (at node 15)
Accepted packet rate average = 0.0189375
	minimum = 0 (at node 0)
	maximum = 0.303 (at node 11)
Injected flit rate average = 0.018875
	minimum = 0.013 (at node 7)
	maximum = 0.026 (at node 15)
Accepted flit rate average= 0.0189375
	minimum = 0 (at node 0)
	maximum = 0.303 (at node 11)
Injected packet length average = 1
Accepted packet length average = 1
Total in-flight flits = 6 (0 measured)
latency change    = 0.0274607
throughput change = 0.0693069
Warmed up ...Time used is 3000 cycles
Class 0:
Packet latency average = 21.3817
	minimum = 7
	maximum = 57
Network latency average = 21.3817
	minimum = 7
	maximum = 57
Slowest packet = 7532
Flit latency average = 21.3715
	minimum = 7
	maximum = 57
Slowest flit = 7532
Fragmentation average = 0
	minimum = 0
	maximum = 0
Injected packet rate average = 0.0201875
	minimum = 0.011 (at node 9)
	maximum = 0.027 (at node 11)
Accepted packet rate average = 0.0201875
	minimum = 0 (at node 0)
	maximum = 0.323 (at node 11)
Injected flit rate average = 0.0201875
	minimum = 0.011 (at node 9)
	maximum = 0.027 (at node 11)
Accepted flit rate average= 0.0201875
	minimum = 0 (at node 0)
	maximum = 0.323 (at node 11)
Injected packet length average = 1
Accepted packet length average = 1
Total in-flight flits = 6 (6 measured)
latency change    = 0.0129126
throughput change = 0.0619195
Class 0:
Packet latency average = 21.8028
	minimum = 7
	maximum = 69
Network latency average = 21.8028
	minimum = 7
	maximum = 69
Slowest packet = 7721
Flit latency average = 21.7937
	minimum = 7
	maximum = 69
Slowest flit = 7721
Fragmentation average = 0
	minimum = 0
	maximum = 0
Injected packet rate average = 0.0200625
	minimum = 0.0155 (at node 9)
	maximum = 0.026 (at node 6)
Accepted packet rate average = 0.02
	minimum = 0 (at node 0)
	maximum = 0.32 (at node 11)
Injected flit rate average = 0.0200625
	minimum = 0.0155 (at node 9)
	maximum = 0.026 (at node 6)
Accepted flit rate average= 0.02
	minimum = 0 (at node 0)
	maximum = 0.32 (at node 11)
Injected packet length average = 1
Accepted packet length average = 1
Total in-flight flits = 8 (8 measured)
latency change    = 0.0193156
throughput change = 0.009375
Class 0:
Packet latency average = 21.952
	minimum = 7
	maximum = 69
Network latency average = 21.952
	minimum = 7
	maximum = 69
Slowest packet = 7721
Flit latency average = 21.9451
	minimum = 7
	maximum = 69
Slowest flit = 7721
Fragmentation average = 0
	minimum = 0
	maximum = 0
Injected packet rate average = 0.020125
	minimum = 0.0173333 (at node 3)
	maximum = 0.0243333 (at node 6)
Accepted packet rate average = 0.0201042
	minimum = 0 (at node 0)
	maximum = 0.321667 (at node 11)
Injected flit rate average = 0.020125
	minimum = 0.0173333 (at node 3)
	maximum = 0.0243333 (at node 6)
Accepted flit rate average= 0.0201042
	minimum = 0 (at node 0)
	maximum = 0.321667 (at node 11)
Injected packet length average = 1
Accepted packet length average = 1
Total in-flight flits = 7 (7 measured)
latency change    = 0.00679638
throughput change = 0.00518135
Class 0:
Packet latency average = 21.8046
	minimum = 7
	maximum = 69
Network latency average = 21.8046
	minimum = 7
	maximum = 69
Slowest packet = 7721
Flit latency average = 21.8002
	minimum = 7
	maximum = 69
Slowest flit = 7721
Fragmentation average = 0
	minimum = 0
	maximum = 0
Injected packet rate average = 0.0203594
	minimum = 0.01725 (at node 3)
	maximum = 0.0235 (at node 6)
Accepted packet rate average = 0.0203281
	minimum = 0 (at node 0)
	maximum = 0.32525 (at node 11)
Injected flit rate average = 0.0203594
	minimum = 0.01725 (at node 3)
	maximum = 0.0235 (at node 6)
Accepted flit rate average= 0.0203281
	minimum = 0 (at node 0)
	maximum = 0.32525 (at node 11)
Injected packet length average = 1
Accepted packet length average = 1
Total in-flight flits = 8 (8 measured)
latency change    = 0.00676004
throughput change = 0.0110172
Draining all recorded packets ...
Draining remaining packets ...
Time taken is 7062 cycles
Class 0:
Packet latency average = 21.0726
	minimum = 7
	maximum = 57
Network latency average = 21.0726
	minimum = 7
	maximum = 57
Slowest packet = 8808
Flit latency average = 21.0726
	minimum = 7
	maximum = 57
Slowest flit = 8808
Fragmentation average = 0
	minimum = 0
	maximum = 0
Injected packet rate average = 0.019875
	minimum = 0.013 (at node 0)
	maximum = 0.029 (at node 5)
Accepted packet rate average = 0.0189375
	minimum = 0 (at node 0)
	maximum = 0.303 (at node 11)
Injected flit rate average = 0.019875
	minimum = 0.013 (at node 0)
	maximum = 0.029 (at node 5)
Accepted flit rate average= 0.0189375
	minimum = 0 (at node 0)
	maximum = 0.303 (at node 11)
Injected packet length average = 1
Accepted packet length average = 1
Total in-flight flits = 15 (0 measured)
latency change    = 1
throughput change = 1
Class 0:
Packet latency average = 21.5341
	minimum = 7
	maximum = 57
Network latency average = 21.5341
	minimum = 7
	maximum = 57
Slowest packet = 8808
Flit latency average = 21.5341
	minimum = 7
	maximum = 57
Slowest flit = 8808
Fragmentation average = 0
	minimum = 0
	maximum = 0
Injected packet rate average = 0.0199375
	minimum = 0.0155 (at node 13)
	maximum = 0.025 (at node 5)
Accepted packet rate average = 0.0197188
	minimum = 0 (at node 0)
	maximum = 0.3155 (at node 11)
Injected flit rate average = 0.0199375
	minimum = 0.0155 (at node 13)
	maximum = 0.025 (at node 5)
Accepted flit rate average= 0.0197188
	minimum = 0 (at node 0)
	maximum = 0.3155 (at node 11)
Injected packet length average = 1
Accepted packet length average = 1
Total in-flight flits = 7 (0 measured)
latency change    = 0.0214296
throughput change = 0.0396197
Class 0:
Packet latency average = 22.2901
	minimum = 7
	maximum = 75
Network latency average = 22.2901
	minimum = 7
	maximum = 75
Slowest packet = 9423
Flit latency average = 22.2901
	minimum = 7
	maximum = 75
Slowest flit = 9423
Fragmentation average = 0
	minimum = 0
	maximum = 0
Injected packet rate average = 0.019875
	minimum = 0.013 (at node 9)
	maximum = 0.028 (at node 7)
Accepted packet rate average = 0.02025
	minimum = 0 (at node 0)
	maximum = 0.324 (at node 11)
Injected flit rate average = 0.019875
	minimum = 0.013 (at node 9)
	maximum = 0.028 (at node 7)
Accepted flit rate average= 0.02025
	minimum = 0 (at node 0)
	maximum = 0.324 (at node 11)
Injected packet length average = 1
Accepted packet length average = 1
Total in-flight flits = 1 (0 measured)
latency change    = 0.0339186
throughput change = 0.0262346
Warmed up ...Time used is 3000 cycles
Class 0:
Packet latency average = 22.5092
	minimum = 7
	maximum = 58
Network latency average = 22.5092
	minimum = 7
	maximum = 58
Slowest packet = 9764
Flit latency average = 22.4924
	minimum = 7
	maximum = 58
Slowest flit = 9764
Fragmentation average = 0
	minimum = 0
	maximum = 0
Injected packet rate average = 0.0208125
	minimum = 0.013 (at node 11)
	maximum = 0.034 (at node 5)
Accepted packet rate average = 0.0204375
	minimum = 0 (at node 0)
	maximum = 0.327 (at node 11)
Injected flit rate average = 0.0208125
	minimum = 0.013 (at node 11)
	maximum = 0.034 (at node 5)
Accepted flit rate average= 0.0204375
	minimum = 0 (at node 0)
	maximum = 0.327 (at node 11)
Injected packet length average = 1
Accepted packet length average = 1
Total in-flight flits = 7 (7 measured)
latency change    = 0.00973286
throughput change = 0.00917431
Class 0:
Packet latency average = 21.9069
	minimum = 7
	maximum = 59
Network latency average = 21.9069
	minimum = 7
	maximum = 59
Slowest packet = 9937
Flit latency average = 21.8992
	minimum = 7
	maximum = 59
Slowest flit = 9937
Fragmentation average = 0
	minimum = 0
	maximum = 0
Injected packet rate average = 0.0200313
	minimum = 0.0125 (at node 4)
	maximum = 0.0275 (at node 6)
Accepted packet rate average = 0.0198438
	minimum = 0 (at node 0)
	maximum = 0.3175 (at node 11)
Injected flit rate average = 0.0200313
	minimum = 0.0125 (at node 4)
	maximum = 0.0275 (at node 6)
Accepted flit rate average= 0.0198438
	minimum = 0 (at node 0)
	maximum = 0.3175 (at node 11)
Injected packet length average = 1
Accepted packet length average = 1
Total in-flight flits = 7 (7 measured)
latency change    = 0.0274919
throughput change = 0.0299213
Class 0:
Packet latency average = 22.0951
	minimum = 7
	maximum = 80
Network latency average = 22.0951
	minimum = 7
	maximum = 80
Slowest packet = 10311
Flit latency average = 22.09
	minimum = 7
	maximum = 80
Slowest flit = 10311
Fragmentation average = 0
	minimum = 0
	maximum = 0
Injected packet rate average = 0.02075
	minimum = 0.0143333 (at node 3)
	maximum = 0.026 (at node 6)
Accepted packet rate average = 0.0206042
	minimum = 0 (at node 0)
	maximum = 0.329667 (at node 11)
Injected flit rate average = 0.02075
	minimum = 0.0143333 (at node 3)
	maximum = 0.026 (at node 6)
Accepted flit rate average= 0.0206042
	minimum = 0 (at node 0)
	maximum = 0.329667 (at node 11)
Injected packet length average = 1
Accepted packet length average = 1
Total in-flight flits = 8 (8 measured)
latency change    = 0.00851778
throughput change = 0.036906
Draining all recorded packets ...
Draining remaining packets ...
Time taken is 6078 cycles
Class 0:
Packet latency average = 20.9342
	minimum = 7
	maximum = 68
Network latency average = 20.9342
	minimum = 7
	maximum = 68
Slowest packet = 10639
Flit latency average = 20.9342
	minimum = 7
	maximum = 68
Slowest flit = 10639
Fragmentation average = 0
	minimum = 0
	maximum = 0
Injected packet rate average = 0.0195
	minimum = 0.011 (at node 8)
	maximum = 0.033 (at node 14)
Accepted packet rate average = 0.019
	minimum = 0 (at node 0)
	maximum = 0.304 (at node 11)
Injected flit rate average = 0.0195
	minimum = 0.011 (at node 8)
	maximum = 0.033 (at node 14)
Accepted flit rate average= 0.019
	minimum = 0 (at node 0)
	maximum = 0.304 (at node 11)
Injected packet length average = 1
Accepted packet length average = 1
Total in-flight flits = 8 (0 measured)
latency change    = 1
throughput change = 1
Class 0:
Packet latency average = 22.2423
	minimum = 7
	maximum = 98
Network latency average = 22.2423
	minimum = 7
	maximum = 98
Slowest packet = 11088
Flit latency average = 22.2423
	minimum = 7
	maximum = 98
Slowest flit = 11088
Fragmentation average = 0
	minimum = 0
	maximum = 0
Injected packet rate average = 0.0206563
	minimum = 0.015 (at node 3)
	maximum = 0.0285 (at node 14)
Accepted packet rate average = 0.020375
	minimum = 0 (at node 0)
	maximum = 0.326 (at node 11)
Injected flit rate average = 0.0206563
	minimum = 0.015 (at node 3)
	maximum = 0.0285 (at node 14)
Accepted flit rate average= 0.020375
	minimum = 0 (at node 0)
	maximum = 0.326 (at node 11)
Injected packet length average = 1
Accepted packet length average = 1
Total in-flight flits = 9 (0 measured)
latency change    = 0.0588122
throughput change = 0.0674847
Class 0:
Packet latency average = 21.8343
	minimum = 7
	maximum = 62
Network latency average = 21.8343
	minimum = 7
	maximum = 62
Slowest packet = 11289
Flit latency average = 21.8343
	minimum = 7
	maximum = 62
Slowest flit = 11289
Fragmentation average = 0
	minimum = 0
	maximum = 0
Injected packet rate average = 0.020875
	minimum = 0.015 (at node 2)
	maximum = 0.03 (at node 13)
Accepted packet rate average = 0.02075
	minimum = 0 (at node 0)
	maximum = 0.332 (at node 11)
Injected flit rate average = 0.020875
	minimum = 0.015 (at node 2)
	maximum = 0.03 (at node 13)
Accepted flit rate average= 0.02075
	minimum = 0 (at node 0)
	maximum = 0.332 (at node 11)
Injected packet length average = 1
Accepted packet length average = 1
Total in-flight flits = 11 (0 measured)
latency change    = 0.0186859
throughput change = 0.0180723
Warmed up ...Time used is 3000 cycles
Class 0:
Packet latency average = 20.8858
	minimum = 7
	maximum = 58
Network latency average = 20.8858
	minimum = 7
	maximum = 58
Slowest packet = 11893
Flit latency average = 21.0418
	minimum = 7
	maximum = 58
Slowest flit = 11893
Fragmentation average = 0
	minimum = 0
	maximum = 0
Injected packet rate average = 0.02075
	minimum = 0.012 (at node 1)
	maximum = 0.029 (at node 8)
Accepted packet rate average = 0.0209375
	minimum = 0 (at node 0)
	maximum = 0.335 (at node 11)
Injected flit rate average = 0.02075
	minimum = 0.012 (at node 1)
	maximum = 0.029 (at node 8)
Accepted flit rate average= 0.0209375
	minimum = 0 (at node 0)
	maximum = 0.335 (at node 11)
Injected packet length average = 1
Accepted packet length average = 1
Total in-flight flits = 8 (8 measured)
latency change    = 0.0454153
throughput change = 0.00895522
Class 0:
Packet latency average = 21.6896
	minimum = 7
	maximum = 65
Network latency average = 21.6896
	minimum = 7
	maximum = 65
Slowest packet = 12155
Flit latency average = 21.7579
	minimum = 7
	maximum = 65
Slowest flit = 12155
Fragmentation average = 0
	minimum = 0
	maximum = 0
Injected packet rate average = 0.019625
	minimum = 0.0155 (at node 1)
	maximum = 0.025 (at node 11)
Accepted packet rate average = 0.019875
	minimum = 0 (at node 0)
	maximum = 0.318 (at node 11)
Injected flit rate average = 0.019625
	minimum = 0.0155 (at node 1)
	maximum = 0.025 (at node 11)
Accepted flit rate average= 0.019875
	minimum = 0 (at node 0)
	maximum = 0.318 (at node 11)
Injected packet length average = 1
Accepted packet length average = 1
Total in-flight flits = 3 (3 measured)
latency change    = 0.0370591
throughput change = 0.0534591
Class 0:
Packet latency average = 21.3253
	minimum = 7
	maximum = 65
Network latency average = 21.3253
	minimum = 7
	maximum = 65
Slowest packet = 12155
Flit latency average = 21.3766
	minimum = 7
	maximum = 65
Slowest flit = 12155
Fragmentation average = 0
	minimum = 0
	maximum = 0
Injected packet rate average = 0.0191458
	minimum = 0.0156667 (at node 6)
	maximum = 0.0226667 (at node 11)
Accepted packet rate average = 0.01925
	minimum = 0 (at node 0)
	maximum = 0.308 (at node 11)
Injected flit rate average = 0.0191458
	minimum = 0.0156667 (at node 6)
	maximum = 0.0226667 (at node 11)
Accepted flit rate average= 0.01925
	minimum = 0 (at node 0)
	maximum = 0.308 (at node 11)
Injected packet length average = 1
Accepted packet length average = 1
Total in-flight flits = 6 (6 measured)
latency change    = 0.0170829
throughput change = 0.0324675
Class 0:
Packet latency average = 21.7782
	minimum = 7
	maximum = 65
Network latency average = 21.7782
	minimum = 7
	maximum = 65
Slowest packet = 12155
Flit latency average = 21.8124
	minimum = 7
	maximum = 65
Slowest flit = 12155
Fragmentation average = 0
	minimum = 0
	maximum = 0
Injected packet rate average = 0.0194062
	minimum = 0.01625 (at node 5)
	maximum = 0.022 (at node 12)
Accepted packet rate average = 0.0194062
	minimum = 0 (at node 0)
	maximum = 0.3105 (at node 11)
Injected flit rate average = 0.0194062
	minimum = 0.01625 (at node 5)
	maximum = 0.022 (at node 12)
Accepted flit rate average= 0.0194062
	minimum = 0 (at node 0)
	maximum = 0.3105 (at node 11)
Injected packet length average = 1
Accepted packet length average = 1
Total in-flight flits = 11 (11 measured)
latency change    = 0.0207973
throughput change = 0.00805153
Class 0:
Packet latency average = 21.6994
	minimum = 7
	maximum = 73
Network latency average = 21.6994
	minimum = 7
	maximum = 73
Slowest packet = 12965
Flit latency average = 21.7271
	minimum = 7
	maximum = 73
Slowest flit = 12965
Fragmentation average = 0
	minimum = 0
	maximum = 0
Injected packet rate average = 0.019475
	minimum = 0.017 (at node 1)
	maximum = 0.0228 (at node 0)
Accepted packet rate average = 0.0195125
	minimum = 0 (at node 0)
	maximum = 0.3122 (at node 11)
Injected flit rate average = 0.019475
	minimum = 0.017 (at node 1)
	maximum = 0.0228 (at node 0)
Accepted flit rate average= 0.0195125
	minimum = 0 (at node 0)
	maximum = 0.3122 (at node 11)
Injected packet length average = 1
Accepted packet length average = 1
Total in-flight flits = 8 (8 measured)
latency change    = 0.00363487
throughput change = 0.00544523
Draining all recorded packets ...
Draining remaining packets ...
Time taken is 8049 cycles
Class 0:
Packet latency average = 23.1333
	minimum = 7
	maximum = 78
Network latency average = 23.1333
	minimum = 7
	maximum = 78
Slowest packet = 13304
Flit latency average = 23.1333
	minimum = 7
	maximum = 78
Slowest flit = 13304
Fragmentation average = 0
	minimum = 0
	maximum = 0
Injected packet rate average = 0.0228125
	minimum = 0.015 (at node 12)
	maximum = 0.028 (at node 0)
Accepted packet rate average = 0.0225
	minimum = 0 (at node 0)
	maximum = 0.36 (at node 11)
Injected flit rate average = 0.0228125
	minimum = 0.015 (at node 12)
	maximum = 0.028 (at node 0)
Accepted flit rate average= 0.0225
	minimum = 0 (at node 0)
	maximum = 0.36 (at node 11)
Injected packet length average = 1
Accepted packet length average = 1
Total in-flight flits = 5 (0 measured)
latency change    = 1
throughput change = 1
Class 0:
Packet latency average = 22.003
	minimum = 7
	maximum = 78
Network latency average = 22.003
	minimum = 7
	maximum = 78
Slowest packet = 13304
Flit latency average = 22.003
	minimum = 7
	maximum = 78
Slowest flit = 13304
Fragmentation average = 0
	minimum = 0
	maximum = 0
Injected packet rate average = 0.0214688
	minimum = 0.012 (at node 12)
	maximum = 0.0285 (at node 7)
Accepted packet rate average = 0.0210625
	minimum = 0 (at node 0)
	maximum = 0.337 (at node 11)
Injected flit rate average = 0.0214688
	minimum = 0.012 (at node 12)
	maximum = 0.0285 (at node 7)
Accepted flit rate average= 0.0210625
	minimum = 0 (at node 0)
	maximum = 0.337 (at node 11)
Injected packet length average = 1
Accepted packet length average = 1
Total in-flight flits = 13 (0 measured)
latency change    = 0.0513733
throughput change = 0.0682493
Class 0:
Packet latency average = 22.6767
	minimum = 7
	maximum = 77
Network latency average = 22.6767
	minimum = 7
	maximum = 77
Slowest packet = 13989
Flit latency average = 22.6767
	minimum = 7
	maximum = 77
Slowest flit = 13989
Fragmentation average = 0
	minimum = 0
	maximum = 0
Injected packet rate average = 0.0203125
	minimum = 0.013 (at node 1)
	maximum = 0.033 (at node 8)
Accepted packet rate average = 0.0206875
	minimum = 0 (at node 0)
	maximum = 0.331 (at node 11)
Injected flit rate average = 0.0203125
	minimum = 0.013 (at node 1)
	maximum = 0.033 (at node 8)
Accepted flit rate average= 0.0206875
	minimum = 0 (at node 0)
	maximum = 0.331 (at node 11)
Injected packet length average = 1
Accepted packet length average = 1
Total in-flight flits = 7 (0 measured)
latency change    = 0.0297119
throughput change = 0.0181269
Warmed up ...Time used is 3000 cycles
Class 0:
Packet latency average = 20.0445
	minimum = 7
	maximum = 64
Network latency average = 20.0445
	minimum = 7
	maximum = 64
Slowest packet = 14242
Flit latency average = 20.1773
	minimum = 7
	maximum = 64
Slowest flit = 14242
Fragmentation average = 0
	minimum = 0
	maximum = 0
Injected packet rate average = 0.018625
	minimum = 0.011 (at node 13)
	maximum = 0.027 (at node 14)
Accepted packet rate average = 0.0186875
	minimum = 0 (at node 0)
	maximum = 0.299 (at node 11)
Injected flit rate average = 0.018625
	minimum = 0.011 (at node 13)
	maximum = 0.027 (at node 14)
Accepted flit rate average= 0.0186875
	minimum = 0 (at node 0)
	maximum = 0.299 (at node 11)
Injected packet length average = 1
Accepted packet length average = 1
Total in-flight flits = 6 (6 measured)
latency change    = 0.131319
throughput change = 0.107023
Class 0:
Packet latency average = 20.6356
	minimum = 7
	maximum = 64
Network latency average = 20.6356
	minimum = 7
	maximum = 64
Slowest packet = 14242
Flit latency average = 20.6911
	minimum = 7
	maximum = 64
Slowest flit = 14242
Fragmentation average = 0
	minimum = 0
	maximum = 0
Injected packet rate average = 0.0200313
	minimum = 0.016 (at node 1)
	maximum = 0.0255 (at node 14)
Accepted packet rate average = 0.0200313
	minimum = 0 (at node 0)
	maximum = 0.3205 (at node 11)
Injected flit rate average = 0.0200313
	minimum = 0.016 (at node 1)
	maximum = 0.0255 (at node 14)
Accepted flit rate average= 0.0200313
	minimum = 0 (at node 0)
	maximum = 0.3205 (at node 11)
Injected packet length average = 1
Accepted packet length average = 1
Total in-flight flits = 7 (7 measured)
latency change    = 0.0286459
throughput change = 0.0670827
Class 0:
Packet latency average = 20.5228
	minimum = 7
	maximum = 70
Network latency average = 20.5228
	minimum = 7
	maximum = 70
Slowest packet = 14994
Flit latency average = 20.5611
	minimum = 7
	maximum = 70
Slowest flit = 14994
Fragmentation average = 0
	minimum = 0
	maximum = 0
Injected packet rate average = 0.0197917
	minimum = 0.0156667 (at node 1)
	maximum = 0.026 (at node 10)
Accepted packet rate average = 0.0197917
	minimum = 0 (at node 0)
	maximum = 0.316667 (at node 11)
Injected flit rate average = 0.0197917
	minimum = 0.0156667 (at node 1)
	maximum = 0.026 (at node 10)
Accepted flit rate average= 0.0197917
	minimum = 0 (at node 0)
	maximum = 0.316667 (at node 11)
Injected packet length average = 1
Accepted packet length average = 1
Total in-flight flits = 7 (7 measured)
latency change    = 0.00549862
throughput change = 0.0121053
Class 0:
Packet latency average = 20.6265
	minimum = 7
	maximum = 70
Network latency average = 20.6265
	minimum = 7
	maximum = 70
Slowest packet = 14994
Flit latency average = 20.655
	minimum = 7
	maximum = 70
Slowest flit = 14994
Fragmentation average = 0
	minimum = 0
	maximum = 0
Injected packet rate average = 0.0194687
	minimum = 0.01375 (at node 1)
	maximum = 0.02525 (at node 10)
Accepted packet rate average = 0.0195625
	minimum = 0 (at node 0)
	maximum = 0.313 (at node 11)
Injected flit rate average = 0.0194687
	minimum = 0.01375 (at node 1)
	maximum = 0.02525 (at node 10)
Accepted flit rate average= 0.0195625
	minimum = 0 (at node 0)
	maximum = 0.313 (at node 11)
Injected packet length average = 1
Accepted packet length average = 1
Total in-flight flits = 1 (1 measured)
latency change    = 0.00502782
throughput change = 0.0117146
Class 0:
Packet latency average = 20.8466
	minimum = 7
	maximum = 72
Network latency average = 20.8466
	minimum = 7
	maximum = 72
Slowest packet = 15640
Flit latency average = 20.8686
	minimum = 7
	maximum = 72
Slowest flit = 15640
Fragmentation average = 0
	minimum = 0
	maximum = 0
Injected packet rate average = 0.019375
	minimum = 0.0156 (at node 1)
	maximum = 0.0242 (at node 10)
Accepted packet rate average = 0.0193125
	minimum = 0 (at node 0)
	maximum = 0.309 (at node 11)
Injected flit rate average = 0.019375
	minimum = 0.0156 (at node 1)
	maximum = 0.0242 (at node 10)
Accepted flit rate average= 0.0193125
	minimum = 0 (at node 0)
	maximum = 0.309 (at node 11)
Injected packet length average = 1
Accepted packet length average = 1
Total in-flight flits = 12 (12 measured)
latency change    = 0.0105556
throughput change = 0.012945
Draining all recorded packets ...
Draining remaining packets ...
Time taken is 8058 cycles
Class 0:
Packet latency average = 21.2203
	minimum = 7
	maximum = 50
Network latency average = 21.2203
	minimum = 7
	maximum = 50
Slowest packet = 15728
Flit latency average = 21.2203
	minimum = 7
	maximum = 50
Slowest flit = 15728
Fragmentation average = 0
	minimum = 0
	maximum = 0
Injected packet rate average = 0.018625
	minimum = 0.015 (at node 11)
	maximum = 0.027 (at node 4)
Accepted packet rate average = 0.017875
	minimum = 0 (at node 0)
	maximum = 0.286 (at node 11)
Injected flit rate average = 0.018625
	minimum = 0.015 (at node 11)
	maximum = 0.027 (at node 4)
Accepted flit rate average= 0.017875
	minimum = 0 (at node 0)
	maximum = 0.286 (at node 11)
Injected packet length average = 1
Accepted packet length average = 1
Total in-flight flits = 12 (0 measured)
latency change    = 1
throughput change = 1
Class 0:
Packet latency average = 21.5659
	minimum = 7
	maximum = 56
Network latency average = 21.5659
	minimum = 7
	maximum = 56
Slowest packet = 16105
Flit latency average = 21.5659
	minimum = 7
	maximum = 56
Slowest flit = 16105
Fragmentation average = 0
	minimum = 0
	maximum = 0
Injected packet rate average = 0.0195938
	minimum = 0.0125 (at node 9)
	maximum = 0.0265 (at node 13)
Accepted packet rate average = 0.0194375
	minimum = 0 (at node 0)
	maximum = 0.311 (at node 11)
Injected flit rate average = 0.0195938
	minimum = 0.0125 (at node 9)
	maximum = 0.0265 (at node 13)
Accepted flit rate average= 0.0194375
	minimum = 0 (at node 0)
	maximum = 0.311 (at node 11)
Injected packet length average = 1
Accepted packet length average = 1
Total in-flight flits = 5 (0 measured)
latency change    = 0.016027
throughput change = 0.0803859
Class 0:
Packet latency average = 21.2112
	minimum = 7
	maximum = 60
Network latency average = 21.2112
	minimum = 7
	maximum = 60
Slowest packet = 16435
Flit latency average = 21.2112
	minimum = 7
	maximum = 60
Slowest flit = 16435
Fragmentation average = 0
	minimum = 0
	maximum = 0
Injected packet rate average = 0.0200625
	minimum = 0.01 (at node 6)
	maximum = 0.029 (at node 1)
Accepted packet rate average = 0.020125
	minimum = 0 (at node 0)
	maximum = 0.322 (at node 11)
Injected flit rate average = 0.0200625
	minimum = 0.01 (at node 6)
	maximum = 0.029 (at node 1)
Accepted flit rate average= 0.020125
	minimum = 0 (at node 0)
	maximum = 0.322 (at node 11)
Injected packet length average = 1
Accepted packet length average = 1
Total in-flight flits = 4 (0 measured)
latency change    = 0.016724
throughput change = 0.0341615
Warmed up ...Time used is 3000 cycles
Class 0:
Packet latency average = 20.9809
	minimum = 7
	maximum = 66
Network latency average = 20.9809
	minimum = 7
	maximum = 66
Slowest packet = 16770
Flit latency average = 20.9465
	minimum = 7
	maximum = 66
Slowest flit = 16770
Fragmentation average = 0
	minimum = 0
	maximum = 0
Injected packet rate average = 0.0200625
	minimum = 0.012 (at node 8)
	maximum = 0.032 (at node 10)
Accepted packet rate average = 0.019875
	minimum = 0 (at node 0)
	maximum = 0.318 (at node 11)
Injected flit rate average = 0.0200625
	minimum = 0.012 (at node 8)
	maximum = 0.032 (at node 10)
Accepted flit rate average= 0.019875
	minimum = 0 (at node 0)
	maximum = 0.318 (at node 11)
Injected packet length average = 1
Accepted packet length average = 1
Total in-flight flits = 7 (7 measured)
latency change    = 0.0109761
throughput change = 0.0125786
Class 0:
Packet latency average = 21.3881
	minimum = 7
	maximum = 66
Network latency average = 21.3881
	minimum = 7
	maximum = 66
Slowest packet = 16770
Flit latency average = 21.368
	minimum = 7
	maximum = 66
Slowest flit = 16770
Fragmentation average = 0
	minimum = 0
	maximum = 0
Injected packet rate average = 0.0196875
	minimum = 0.0145 (at node 0)
	maximum = 0.0245 (at node 3)
Accepted packet rate average = 0.0195312
	minimum = 0 (at node 0)
	maximum = 0.3125 (at node 11)
Injected flit rate average = 0.0196875
	minimum = 0.0145 (at node 0)
	maximum = 0.0245 (at node 3)
Accepted flit rate average= 0.0195312
	minimum = 0 (at node 0)
	maximum = 0.3125 (at node 11)
Injected packet length average = 1
Accepted packet length average = 1
Total in-flight flits = 9 (9 measured)
latency change    = 0.0190383
throughput change = 0.0176
Class 0:
Packet latency average = 21.1865
	minimum = 7
	maximum = 66
Network latency average = 21.1865
	minimum = 7
	maximum = 66
Slowest packet = 16770
Flit latency average = 21.1737
	minimum = 7
	maximum = 66
Slowest flit = 16770
Fragmentation average = 0
	minimum = 0
	maximum = 0
Injected packet rate average = 0.0192083
	minimum = 0.0153333 (at node 8)
	maximum = 0.022 (at node 3)
Accepted packet rate average = 0.0191875
	minimum = 0 (at node 0)
	maximum = 0.307 (at node 11)
Injected flit rate average = 0.0192083
	minimum = 0.0153333 (at node 8)
	maximum = 0.022 (at node 3)
Accepted flit rate average= 0.0191875
	minimum = 0 (at node 0)
	maximum = 0.307 (at node 11)
Injected packet length average = 1
Accepted packet length average = 1
Total in-flight flits = 5 (5 measured)
latency change    = 0.00951579
throughput change = 0.0179153
Draining all recorded packets ...
Draining remaining packets ...
Time taken is 6045 cycles
Class 0:
Packet latency average = 21.6505
	minimum = 7
	maximum = 72
Network latency average = 21.6505
	minimum = 7
	maximum = 72
Slowest packet = 17709
Flit latency average = 21.6505
	minimum = 7
	maximum = 72
Slowest flit = 17709
Fragmentation average = 0
	minimum = 0
	maximum = 0
Injected packet rate average = 0.01975
	minimum = 0.012 (at node 15)
	maximum = 0.024 (at node 1)
Accepted packet rate average = 0.0193125
	minimum = 0 (at node 0)
	maximum = 0.309 (at node 11)
Injected flit rate average = 0.01975
	minimum = 0.012 (at node 15)
	maximum = 0.024 (at node 1)
Accepted flit rate average= 0.0193125
	minimum = 0 (at node 0)
	maximum = 0.309 (at node 11)
Injected packet length average = 1
Accepted packet length average = 1
Total in-flight flits = 7 (0 measured)
latency change    = 1
throughput change = 1
Class 0:
Packet latency average = 21.6191
	minimum = 7
	maximum = 72
Network latency average = 21.6191
	minimum = 7
	maximum = 72
Slowest packet = 17709
Flit latency average = 21.6191
	minimum = 7
	maximum = 72
Slowest flit = 17709
Fragmentation average = 0
	minimum = 0
	maximum = 0
Injected packet rate average = 0.0195
	minimum = 0.015 (at node 5)
	maximum = 0.024 (at node 3)
Accepted packet rate average = 0.0192812
	minimum = 0 (at node 0)
	maximum = 0.3085 (at node 11)
Injected flit rate average = 0.0195
	minimum = 0.015 (at node 5)
	maximum = 0.024 (at node 3)
Accepted flit rate average= 0.0192812
	minimum = 0 (at node 0)
	maximum = 0.3085 (at node 11)
Injected packet length average = 1
Accepted packet length average = 1
Total in-flight flits = 7 (0 measured)
latency change    = 0.0014506
throughput change = 0.00162075
Class 0:
Packet latency average = 24.5501
	minimum = 7
	maximum = 111
Network latency average = 24.5501
	minimum = 7
	maximum = 111
Slowest packet = 18259
Flit latency average = 24.5501
	minimum = 7
	maximum = 111
Slowest flit = 18259
Fragmentation average = 0
	minimum = 0
	maximum = 0
Injected packet rate average = 0.0216875
	minimum = 0.015 (at node 3)
	maximum = 0.032 (at node 10)
Accepted packet rate average = 0.0218125
	minimum = 0 (at node 0)
	maximum = 0.349 (at node 11)
Injected flit rate average = 0.0216875
	minimum = 0.015 (at node 3)
	maximum = 0.032 (at node 10)
Accepted flit rate average= 0.0218125
	minimum = 0 (at node 0)
	maximum = 0.349 (at node 11)
Injected packet length average = 1
Accepted packet length average = 1
Total in-flight flits = 5 (0 measured)
latency change    = 0.119389
throughput change = 0.116046
Warmed up ...Time used is 3000 cycles
Class 0:
Packet latency average = 21.9698
	minimum = 7
	maximum = 72
Network latency average = 21.9698
	minimum = 7
	maximum = 72
Slowest packet = 18775
Flit latency average = 22.0231
	minimum = 7
	maximum = 72
Slowest flit = 18775
Fragmentation average = 0
	minimum = 0
	maximum = 0
Injected packet rate average = 0.0189375
	minimum = 0.011 (at node 13)
	maximum = 0.029 (at node 5)
Accepted packet rate average = 0.0189375
	minimum = 0 (at node 0)
	maximum = 0.303 (at node 11)
Injected flit rate average = 0.0189375
	minimum = 0.011 (at node 13)
	maximum = 0.029 (at node 5)
Accepted flit rate average= 0.0189375
	minimum = 0 (at node 0)
	maximum = 0.303 (at node 11)
Injected packet length average = 1
Accepted packet length average = 1
Total in-flight flits = 5 (5 measured)
latency change    = 0.11745
throughput change = 0.151815
Class 0:
Packet latency average = 22.2127
	minimum = 7
	maximum = 72
Network latency average = 22.2127
	minimum = 7
	maximum = 72
Slowest packet = 18775
Flit latency average = 22.2375
	minimum = 7
	maximum = 72
Slowest flit = 18775
Fragmentation average = 0
	minimum = 0
	maximum = 0
Injected packet rate average = 0.0188125
	minimum = 0.0135 (at node 13)
	maximum = 0.0255 (at node 5)
Accepted packet rate average = 0.0188125
	minimum = 0 (at node 0)
	maximum = 0.301 (at node 11)
Injected flit rate average = 0.0188125
	minimum = 0.0135 (at node 13)
	maximum = 0.0255 (at node 5)
Accepted flit rate average= 0.0188125
	minimum = 0 (at node 0)
	maximum = 0.301 (at node 11)
Injected packet length average = 1
Accepted packet length average = 1
Total in-flight flits = 5 (5 measured)
latency change    = 0.0109366
throughput change = 0.00664452
Class 0:
Packet latency average = 22.3875
	minimum = 7
	maximum = 94
Network latency average = 22.3875
	minimum = 7
	maximum = 94
Slowest packet = 19393
Flit latency average = 22.4028
	minimum = 7
	maximum = 94
Slowest flit = 19393
Fragmentation average = 0
	minimum = 0
	maximum = 0
Injected packet rate average = 0.0190625
	minimum = 0.015 (at node 13)
	maximum = 0.0233333 (at node 5)
Accepted packet rate average = 0.0190833
	minimum = 0 (at node 0)
	maximum = 0.305333 (at node 11)
Injected flit rate average = 0.0190625
	minimum = 0.015 (at node 13)
	maximum = 0.0233333 (at node 5)
Accepted flit rate average= 0.0190833
	minimum = 0 (at node 0)
	maximum = 0.305333 (at node 11)
Injected packet length average = 1
Accepted packet length average = 1
Total in-flight flits = 4 (4 measured)
latency change    = 0.00780597
throughput change = 0.0141921
Class 0:
Packet latency average = 22.1565
	minimum = 7
	maximum = 94
Network latency average = 22.1565
	minimum = 7
	maximum = 94
Slowest packet = 19393
Flit latency average = 22.1687
	minimum = 7
	maximum = 94
Slowest flit = 19393
Fragmentation average = 0
	minimum = 0
	maximum = 0
Injected packet rate average = 0.0195
	minimum = 0.016 (at node 13)
	maximum = 0.0225 (at node 11)
Accepted packet rate average = 0.0194531
	minimum = 0 (at node 0)
	maximum = 0.31125 (at node 11)
Injected flit rate average = 0.0195
	minimum = 0.016 (at node 13)
	maximum = 0.0225 (at node 11)
Accepted flit rate average= 0.0194531
	minimum = 0 (at node 0)
	maximum = 0.31125 (at node 11)
Injected packet length average = 1
Accepted packet length average = 1
Total in-flight flits = 8 (8 measured)
latency change    = 0.0104274
throughput change = 0.0190094
Draining all recorded packets ...
Draining remaining packets ...
Time taken is 7047 cycles
Class 0:
Packet latency average = 21.9012
	minimum = 7
	maximum = 81
Network latency average = 21.9012
	minimum = 7
	maximum = 81
Slowest packet = 19883
Flit latency average = 21.9012
	minimum = 7
	maximum = 81
Slowest flit = 19883
Fragmentation average = 0
	minimum = 0
	maximum = 0
Injected packet rate average = 0.0208125
	minimum = 0.012 (at node 13)
	maximum = 0.029 (at node 5)
Accepted packet rate average = 0.02025
	minimum = 0 (at node 0)
	maximum = 0.324 (at node 11)
Injected flit rate average = 0.0208125
	minimum = 0.012 (at node 13)
	maximum = 0.029 (at node 5)
Accepted flit rate average= 0.02025
	minimum = 0 (at node 0)
	maximum = 0.324 (at node 11)
Injected packet length average = 1
Accepted packet length average = 1
Total in-flight flits = 9 (0 measured)
latency change    = 1
throughput change = 1
Class 0:
Packet latency average = 21.5975
	minimum = 7
	maximum = 81
Network latency average = 21.5975
	minimum = 7
	maximum = 81
Slowest packet = 19883
Flit latency average = 21.5975
	minimum = 7
	maximum = 81
Slowest flit = 19883
Fragmentation average = 0
	minimum = 0
	maximum = 0
Injected packet rate average = 0.0199688
	minimum = 0.0135 (at node 13)
	maximum = 0.0245 (at node 10)
Accepted packet rate average = 0.019875
	minimum = 0 (at node 0)
	maximum = 0.318 (at node 11)
Injected flit rate average = 0.0199688
	minimum = 0.0135 (at node 13)
	maximum = 0.0245 (at node 10)
Accepted flit rate average= 0.019875
	minimum = 0 (at node 0)
	maximum = 0.318 (at node 11)
Injected packet length average = 1
Accepted packet length average = 1
Total in-flight flits = 3 (0 measured)
latency change    = 0.0140642
throughput change = 0.0188679
Class 0:
Packet latency average = 20.7125
	minimum = 7
	maximum = 61
Network latency average = 20.7125
	minimum = 7
	maximum = 61
Slowest packet = 20629
Flit latency average = 20.7125
	minimum = 7
	maximum = 61
Slowest flit = 20629
Fragmentation average = 0
	minimum = 0
	maximum = 0
Injected packet rate average = 0.0203125
	minimum = 0.01 (at node 4)
	maximum = 0.031 (at node 14)
Accepted packet rate average = 0.02
	minimum = 0 (at node 0)
	maximum = 0.32 (at node 11)
Injected flit rate average = 0.0203125
	minimum = 0.01 (at node 4)
	maximum = 0.031 (at node 14)
Accepted flit rate average= 0.02
	minimum = 0 (at node 0)
	maximum = 0.32 (at node 11)
Injected packet length average = 1
Accepted packet length average = 1
Total in-flight flits = 8 (0 measured)
latency change    = 0.0427271
throughput change = 0.00625
Warmed up ...Time used is 3000 cycles
Class 0:
Packet latency average = 22.5318
	minimum = 7
	maximum = 73
Network latency average = 22.5318
	minimum = 7
	maximum = 73
Slowest packet = 21039
Flit latency average = 22.5093
	minimum = 7
	maximum = 73
Slowest flit = 21039
Fragmentation average = 0
	minimum = 0
	maximum = 0
Injected packet rate average = 0.0199375
	minimum = 0.012 (at node 11)
	maximum = 0.029 (at node 1)
Accepted packet rate average = 0.020125
	minimum = 0 (at node 0)
	maximum = 0.322 (at node 11)
Injected flit rate average = 0.0199375
	minimum = 0.012 (at node 11)
	maximum = 0.029 (at node 1)
Accepted flit rate average= 0.020125
	minimum = 0 (at node 0)
	maximum = 0.322 (at node 11)
Injected packet length average = 1
Accepted packet length average = 1
Total in-flight flits = 5 (5 measured)
latency change    = 0.0807456
throughput change = 0.00621118
Class 0:
Packet latency average = 21.9279
	minimum = 7
	maximum = 76
Network latency average = 21.9279
	minimum = 7
	maximum = 76
Slowest packet = 21379
Flit latency average = 21.9241
	minimum = 7
	maximum = 76
Slowest flit = 21379
Fragmentation average = 0
	minimum = 0
	maximum = 0
Injected packet rate average = 0.0202188
	minimum = 0.017 (at node 15)
	maximum = 0.0275 (at node 1)
Accepted packet rate average = 0.0201875
	minimum = 0 (at node 0)
	maximum = 0.323 (at node 11)
Injected flit rate average = 0.0202188
	minimum = 0.017 (at node 15)
	maximum = 0.0275 (at node 1)
Accepted flit rate average= 0.0201875
	minimum = 0 (at node 0)
	maximum = 0.323 (at node 11)
Injected packet length average = 1
Accepted packet length average = 1
Total in-flight flits = 9 (9 measured)
latency change    = 0.0275424
throughput change = 0.00309598
Class 0:
Packet latency average = 21.6284
	minimum = 7
	maximum = 76
Network latency average = 21.6284
	minimum = 7
	maximum = 76
Slowest packet = 21379
Flit latency average = 21.6284
	minimum = 7
	maximum = 76
Slowest flit = 21379
Fragmentation average = 0
	minimum = 0
	maximum = 0
Injected packet rate average = 0.0198333
	minimum = 0.0176667 (at node 15)
	maximum = 0.0223333 (at node 9)
Accepted packet rate average = 0.0199583
	minimum = 0 (at node 0)
	maximum = 0.319333 (at node 11)
Injected flit rate average = 0.0198333
	minimum = 0.0176667 (at node 15)
	maximum = 0.0223333 (at node 9)
Accepted flit rate average= 0.0199583
	minimum = 0 (at node 0)
	maximum = 0.319333 (at node 11)
Injected packet length average = 1
Accepted packet length average = 1
Total in-flight flits = 2 (2 measured)
latency change    = 0.0138465
throughput change = 0.0114823
Class 0:
Packet latency average = 21.9083
	minimum = 7
	maximum = 106
Network latency average = 21.9083
	minimum = 7
	maximum = 106
Slowest packet = 21855
Flit latency average = 21.9065
	minimum = 7
	maximum = 106
Slowest flit = 21855
Fragmentation average = 0
	minimum = 0
	maximum = 0
Injected packet rate average = 0.019875
	minimum = 0.01725 (at node 15)
	maximum = 0.02275 (at node 1)
Accepted packet rate average = 0.0198906
	minimum = 0 (at node 0)
	maximum = 0.31825 (at node 11)
Injected flit rate average = 0.019875
	minimum = 0.01725 (at node 15)
	maximum = 0.02275 (at node 1)
Accepted flit rate average= 0.0198906
	minimum = 0 (at node 0)
	maximum = 0.31825 (at node 11)
Injected packet length average = 1
Accepted packet length average = 1
Total in-flight flits = 7 (7 measured)
latency change    = 0.012775
throughput change = 0.00340403
Draining all recorded packets ...
Draining remaining packets ...
Time taken is 7065 cycles
Class 0:
Packet latency average = 21.1847
	minimum = 7
	maximum = 66
Network latency average = 21.1847
	minimum = 7
	maximum = 66
Slowest packet = 22224
Flit latency average = 21.1847
	minimum = 7
	maximum = 66
Slowest flit = 22224
Fragmentation average = 0
	minimum = 0
	maximum = 0
Injected packet rate average = 0.02
	minimum = 0.014 (at node 4)
	maximum = 0.028 (at node 15)
Accepted packet rate average = 0.019625
	minimum = 0 (at node 0)
	maximum = 0.314 (at node 11)
Injected flit rate average = 0.02
	minimum = 0.014 (at node 4)
	maximum = 0.028 (at node 15)
Accepted flit rate average= 0.019625
	minimum = 0 (at node 0)
	maximum = 0.314 (at node 11)
Injected packet length average = 1
Accepted packet length average = 1
Total in-flight flits = 6 (0 measured)
latency change    = 1
throughput change = 1
Class 0:
Packet latency average = 21.4105
	minimum = 7
	maximum = 66
Network latency average = 21.4105
	minimum = 7
	maximum = 66
Slowest packet = 22224
Flit latency average = 21.4105
	minimum = 7
	maximum = 66
Slowest flit = 22224
Fragmentation average = 0
	minimum = 0
	maximum = 0
Injected packet rate average = 0.0200313
	minimum = 0.0165 (at node 8)
	maximum = 0.0245 (at node 6)
Accepted packet rate average = 0.0197188
	minimum = 0 (at node 0)
	maximum = 0.3155 (at node 11)
Injected flit rate average = 0.0200313
	minimum = 0.0165 (at node 8)
	maximum = 0.0245 (at node 6)
Accepted flit rate average= 0.0197188
	minimum = 0 (at node 0)
	maximum = 0.3155 (at node 11)
Injected packet length average = 1
Accepted packet length average = 1
Total in-flight flits = 10 (0 measured)
latency change    = 0.0105437
throughput change = 0.00475436
Class 0:
Packet latency average = 23.1169
	minimum = 7
	maximum = 69
Network latency average = 23.1169
	minimum = 7
	maximum = 69
Slowest packet = 22796
Flit latency average = 23.1169
	minimum = 7
	maximum = 69
Slowest flit = 22796
Fragmentation average = 0
	minimum = 0
	maximum = 0
Injected packet rate average = 0.0201875
	minimum = 0.012 (at node 6)
	maximum = 0.027 (at node 7)
Accepted packet rate average = 0.0203125
	minimum = 0 (at node 0)
	maximum = 0.325 (at node 11)
Injected flit rate average = 0.0201875
	minimum = 0.012 (at node 6)
	maximum = 0.027 (at node 7)
Accepted flit rate average= 0.0203125
	minimum = 0 (at node 0)
	maximum = 0.325 (at node 11)
Injected packet length average = 1
Accepted packet length average = 1
Total in-flight flits = 8 (0 measured)
latency change    = 0.0738188
throughput change = 0.0292308
Warmed up ...Time used is 3000 cycles
Class 0:
Packet latency average = 21.9209
	minimum = 7
	maximum = 65
Network latency average = 21.9209
	minimum = 7
	maximum = 65
Slowest packet = 23080
Flit latency average = 21.9753
	minimum = 7
	maximum = 65
Slowest flit = 23080
Fragmentation average = 0
	minimum = 0
	maximum = 0
Injected packet rate average = 0.020125
	minimum = 0.011 (at node 0)
	maximum = 0.027 (at node 6)
Accepted packet rate average = 0.02025
	minimum = 0 (at node 0)
	maximum = 0.324 (at node 11)
Injected flit rate average = 0.020125
	minimum = 0.011 (at node 0)
	maximum = 0.027 (at node 6)
Accepted flit rate average= 0.02025
	minimum = 0 (at node 0)
	maximum = 0.324 (at node 11)
Injected packet length average = 1
Accepted packet length average = 1
Total in-flight flits = 6 (6 measured)
latency change    = 0.0545615
throughput change = 0.00308642
Class 0:
Packet latency average = 21.5404
	minimum = 7
	maximum = 65
Network latency average = 21.5404
	minimum = 7
	maximum = 65
Slowest packet = 23080
Flit latency average = 21.5728
	minimum = 7
	maximum = 65
Slowest flit = 23080
Fragmentation average = 0
	minimum = 0
	maximum = 0
Injected packet rate average = 0.0199375
	minimum = 0.015 (at node 0)
	maximum = 0.023 (at node 2)
Accepted packet rate average = 0.0199688
	minimum = 0 (at node 0)
	maximum = 0.3195 (at node 11)
Injected flit rate average = 0.0199375
	minimum = 0.015 (at node 0)
	maximum = 0.023 (at node 2)
Accepted flit rate average= 0.0199688
	minimum = 0 (at node 0)
	maximum = 0.3195 (at node 11)
Injected packet length average = 1
Accepted packet length average = 1
Total in-flight flits = 7 (7 measured)
latency change    = 0.0176633
throughput change = 0.0140845
Class 0:
Packet latency average = 22.0239
	minimum = 7
	maximum = 101
Network latency average = 22.0239
	minimum = 7
	maximum = 101
Slowest packet = 23913
Flit latency average = 22.0412
	minimum = 7
	maximum = 101
Slowest flit = 23913
Fragmentation average = 0
	minimum = 0
	maximum = 0
Injected packet rate average = 0.0202083
	minimum = 0.0173333 (at node 9)
	maximum = 0.024 (at node 4)
Accepted packet rate average = 0.0202292
	minimum = 0 (at node 0)
	maximum = 0.323667 (at node 11)
Injected flit rate average = 0.0202083
	minimum = 0.0173333 (at node 9)
	maximum = 0.024 (at node 4)
Accepted flit rate average= 0.0202292
	minimum = 0 (at node 0)
	maximum = 0.323667 (at node 11)
Injected packet length average = 1
Accepted packet length average = 1
Total in-flight flits = 7 (7 measured)
latency change    = 0.0219522
throughput change = 0.0128733
Class 0:
Packet latency average = 21.8153
	minimum = 7
	maximum = 101
Network latency average = 21.8153
	minimum = 7
	maximum = 101
Slowest packet = 23913
Flit latency average = 21.8299
	minimum = 7
	maximum = 101
Slowest flit = 23913
Fragmentation average = 0
	minimum = 0
	maximum = 0
Injected packet rate average = 0.0197031
	minimum = 0.01675 (at node 3)
	maximum = 0.02325 (at node 7)
Accepted packet rate average = 0.01975
	minimum = 0 (at node 0)
	maximum = 0.316 (at node 11)
Injected flit rate average = 0.0197031
	minimum = 0.01675 (at node 3)
	maximum = 0.02325 (at node 7)
Accepted flit rate average= 0.01975
	minimum = 0 (at node 0)
	maximum = 0.316 (at node 11)
Injected packet length average = 1
Accepted packet length average = 1
Total in-flight flits = 5 (5 measured)
latency change    = 0.00956197
throughput change = 0.0242616
Draining all recorded packets ...
Draining remaining packets ...
Time taken is 7046 cycles
Class 0:
Packet latency average = 20.5377
	minimum = 7
	maximum = 58
Network latency average = 20.5377
	minimum = 7
	maximum = 58
Slowest packet = 24326
Flit latency average = 20.5377
	minimum = 7
	maximum = 58
Slowest flit = 24326
Fragmentation average = 0
	minimum = 0
	maximum = 0
Injected packet rate average = 0.0185
	minimum = 0.011 (at node 3)
	maximum = 0.027 (at node 14)
Accepted packet rate average = 0.01825
	minimum = 0 (at node 0)
	maximum = 0.292 (at node 11)
Injected flit rate average = 0.0185
	minimum = 0.011 (at node 3)
	maximum = 0.027 (at node 14)
Accepted flit rate average= 0.01825
	minimum = 0 (at node 0)
	maximum = 0.292 (at node 11)
Injected packet length average = 1
Accepted packet length average = 1
Total in-flight flits = 4 (0 measured)
latency change    = 1
throughput change = 1
Class 0:
Packet latency average = 20.8468
	minimum = 7
	maximum = 63
Network latency average = 20.8468
	minimum = 7
	maximum = 63
Slowest packet = 24627
Flit latency average = 20.8468
	minimum = 7
	maximum = 63
Slowest flit = 24627
Fragmentation average = 0
	minimum = 0
	maximum = 0
Injected packet rate average = 0.0201563
	minimum = 0.0145 (at node 4)
	maximum = 0.026 (at node 14)
Accepted packet rate average = 0.0197813
	minimum = 0 (at node 0)
	maximum = 0.3165 (at node 11)
Injected flit rate average = 0.0201563
	minimum = 0.0145 (at node 4)
	maximum = 0.026 (at node 14)
Accepted flit rate average= 0.0197813
	minimum = 0 (at node 0)
	maximum = 0.3165 (at node 11)
Injected packet length average = 1
Accepted packet length average = 1
Total in-flight flits = 12 (0 measured)
latency change    = 0.0148268
throughput change = 0.0774092
Class 0:
Packet latency average = 21.0757
	minimum = 7
	maximum = 49
Network latency average = 21.0757
	minimum = 7
	maximum = 49
Slowest packet = 24948
Flit latency average = 21.0757
	minimum = 7
	maximum = 49
Slowest flit = 24948
Fragmentation average = 0
	minimum = 0
	maximum = 0
Injected packet rate average = 0.018875
	minimum = 0.009 (at node 2)
	maximum = 0.028 (at node 7)
Accepted packet rate average = 0.019
	minimum = 0 (at node 0)
	maximum = 0.304 (at node 11)
Injected flit rate average = 0.018875
	minimum = 0.009 (at node 2)
	maximum = 0.028 (at node 7)
Accepted flit rate average= 0.019
	minimum = 0 (at node 0)
	maximum = 0.304 (at node 11)
Injected packet length average = 1
Accepted packet length average = 1
Total in-flight flits = 10 (0 measured)
latency change    = 0.0108607
throughput change = 0.0411184
Warmed up ...Time used is 3000 cycles
Class 0:
Packet latency average = 21.9179
	minimum = 7
	maximum = 59
Network latency average = 21.9179
	minimum = 7
	maximum = 59
Slowest packet = 25403
Flit latency average = 21.9943
	minimum = 7
	maximum = 59
Slowest flit = 25403
Fragmentation average = 0
	minimum = 0
	maximum = 0
Injected packet rate average = 0.02175
	minimum = 0.011 (at node 3)
	maximum = 0.029 (at node 0)
Accepted packet rate average = 0.0219375
	minimum = 0 (at node 0)
	maximum = 0.351 (at node 11)
Injected flit rate average = 0.02175
	minimum = 0.011 (at node 3)
	maximum = 0.029 (at node 0)
Accepted flit rate average= 0.0219375
	minimum = 0 (at node 0)
	maximum = 0.351 (at node 11)
Injected packet length average = 1
Accepted packet length average = 1
Total in-flight flits = 7 (7 measured)
latency change    = 0.0384266
throughput change = 0.133903
Class 0:
Packet latency average = 21.7557
	minimum = 7
	maximum = 61
Network latency average = 21.7557
	minimum = 7
	maximum = 61
Slowest packet = 25851
Flit latency average = 21.7979
	minimum = 7
	maximum = 61
Slowest flit = 25851
Fragmentation average = 0
	minimum = 0
	maximum = 0
Injected packet rate average = 0.021
	minimum = 0.014 (at node 5)
	maximum = 0.0265 (at node 9)
Accepted packet rate average = 0.0210313
	minimum = 0 (at node 0)
	maximum = 0.3365 (at node 11)
Injected flit rate average = 0.021
	minimum = 0.014 (at node 5)
	maximum = 0.0265 (at node 9)
Accepted flit rate average= 0.0210313
	minimum = 0 (at node 0)
	maximum = 0.3365 (at node 11)
Injected packet length average = 1
Accepted packet length average = 1
Total in-flight flits = 9 (9 measured)
latency change    = 0.00745702
throughput change = 0.0430906
Class 0:
Packet latency average = 21.61
	minimum = 7
	maximum = 62
Network latency average = 21.61
	minimum = 7
	maximum = 62
Slowest packet = 26056
Flit latency average = 21.6403
	minimum = 7
	maximum = 62
Slowest flit = 26056
Fragmentation average = 0
	minimum = 0
	maximum = 0
Injected packet rate average = 0.0204167
	minimum = 0.0143333 (at node 5)
	maximum = 0.024 (at node 10)
Accepted packet rate average = 0.0205625
	minimum = 0 (at node 0)
	maximum = 0.329 (at node 11)
Injected flit rate average = 0.0204167
	minimum = 0.0143333 (at node 5)
	maximum = 0.024 (at node 10)
Accepted flit rate average= 0.0205625
	minimum = 0 (at node 0)
	maximum = 0.329 (at node 11)
Injected packet length average = 1
Accepted packet length average = 1
Total in-flight flits = 3 (3 measured)
latency change    = 0.00673879
throughput change = 0.0227964
Class 0:
Packet latency average = 21.5737
	minimum = 7
	maximum = 76
Network latency average = 21.5737
	minimum = 7
	maximum = 76
Slowest packet = 26403
Flit latency average = 21.5965
	minimum = 7
	maximum = 76
Slowest flit = 26403
Fragmentation average = 0
	minimum = 0
	maximum = 0
Injected packet rate average = 0.0206094
	minimum = 0.0155 (at node 5)
	maximum = 0.02425 (at node 10)
Accepted packet rate average = 0.0207188
	minimum = 0 (at node 0)
	maximum = 0.3315 (at node 11)
Injected flit rate average = 0.0206094
	minimum = 0.0155 (at node 5)
	maximum = 0.02425 (at node 10)
Accepted flit rate average= 0.0207188
	minimum = 0 (at node 0)
	maximum = 0.3315 (at node 11)
Injected packet length average = 1
Accepted packet length average = 1
Total in-flight flits = 3 (3 measured)
latency change    = 0.00168365
throughput change = 0.00754148
Draining all recorded packets ...
Draining remaining packets ...
Time taken is 7024 cycles
Class 0:
Packet latency average = 21.5764
	minimum = 7
	maximum = 87
Network latency average = 21.5764
	minimum = 7
	maximum = 87
Slowest packet = 26662
Flit latency average = 21.5764
	minimum = 7
	maximum = 87
Slowest flit = 26662
Fragmentation average = 0
	minimum = 0
	maximum = 0
Injected packet rate average = 0.02025
	minimum = 0.012 (at node 14)
	maximum = 0.029 (at node 7)
Accepted packet rate average = 0.019625
	minimum = 0 (at node 0)
	maximum = 0.314 (at node 11)
Injected flit rate average = 0.02025
	minimum = 0.012 (at node 14)
	maximum = 0.029 (at node 7)
Accepted flit rate average= 0.019625
	minimum = 0 (at node 0)
	maximum = 0.314 (at node 11)
Injected packet length average = 1
Accepted packet length average = 1
Total in-flight flits = 10 (0 measured)
latency change    = 1
throughput change = 1
Class 0:
Packet latency average = 21.7748
	minimum = 7
	maximum = 87
Network latency average = 21.7748
	minimum = 7
	maximum = 87
Slowest packet = 26662
Flit latency average = 21.7748
	minimum = 7
	maximum = 87
Slowest flit = 26662
Fragmentation average = 0
	minimum = 0
	maximum = 0
Injected packet rate average = 0.0204063
	minimum = 0.0165 (at node 14)
	maximum = 0.025 (at node 9)
Accepted packet rate average = 0.020125
	minimum = 0 (at node 0)
	maximum = 0.322 (at node 11)
Injected flit rate average = 0.0204063
	minimum = 0.0165 (at node 14)
	maximum = 0.025 (at node 9)
Accepted flit rate average= 0.020125
	minimum = 0 (at node 0)
	maximum = 0.322 (at node 11)
Injected packet length average = 1
Accepted packet length average = 1
Total in-flight flits = 9 (0 measured)
latency change    = 0.00911196
throughput change = 0.0248447
Class 0:
Packet latency average = 22.3343
	minimum = 7
	maximum = 83
Network latency average = 22.3343
	minimum = 7
	maximum = 83
Slowest packet = 27404
Flit latency average = 22.3343
	minimum = 7
	maximum = 83
Slowest flit = 27404
Fragmentation average = 0
	minimum = 0
	maximum = 0
Injected packet rate average = 0.0204375
	minimum = 0.014 (at node 7)
	maximum = 0.028 (at node 3)
Accepted packet rate average = 0.02075
	minimum = 0 (at node 0)
	maximum = 0.332 (at node 11)
Injected flit rate average = 0.0204375
	minimum = 0.014 (at node 7)
	maximum = 0.028 (at node 3)
Accepted flit rate average= 0.02075
	minimum = 0 (at node 0)
	maximum = 0.332 (at node 11)
Injected packet length average = 1
Accepted packet length average = 1
Total in-flight flits = 4 (0 measured)
latency change    = 0.0250508
throughput change = 0.0301205
Warmed up ...Time used is 3000 cycles
Class 0:
Packet latency average = 21.5268
	minimum = 7
	maximum = 68
Network latency average = 21.5268
	minimum = 7
	maximum = 68
Slowest packet = 27609
Flit latency average = 21.6854
	minimum = 7
	maximum = 68
Slowest flit = 27609
Fragmentation average = 0
	minimum = 0
	maximum = 0
Injected packet rate average = 0.0199375
	minimum = 0.015 (at node 0)
	maximum = 0.027 (at node 3)
Accepted packet rate average = 0.0200625
	minimum = 0 (at node 0)
	maximum = 0.321 (at node 11)
Injected flit rate average = 0.0199375
	minimum = 0.015 (at node 0)
	maximum = 0.027 (at node 3)
Accepted flit rate average= 0.0200625
	minimum = 0 (at node 0)
	maximum = 0.321 (at node 11)
Injected packet length average = 1
Accepted packet length average = 1
Total in-flight flits = 2 (2 measured)
latency change    = 0.0375124
throughput change = 0.0342679
Class 0:
Packet latency average = 21.7738
	minimum = 7
	maximum = 81
Network latency average = 21.7738
	minimum = 7
	maximum = 81
Slowest packet = 28119
Flit latency average = 21.8486
	minimum = 7
	maximum = 81
Slowest flit = 28119
Fragmentation average = 0
	minimum = 0
	maximum = 0
Injected packet rate average = 0.020875
	minimum = 0.016 (at node 7)
	maximum = 0.0265 (at node 3)
Accepted packet rate average = 0.0208438
	minimum = 0 (at node 0)
	maximum = 0.3335 (at node 11)
Injected flit rate average = 0.020875
	minimum = 0.016 (at node 7)
	maximum = 0.0265 (at node 3)
Accepted flit rate average= 0.0208438
	minimum = 0 (at node 0)
	maximum = 0.3335 (at node 11)
Injected packet length average = 1
Accepted packet length average = 1
Total in-flight flits = 5 (5 measured)
latency change    = 0.0113413
throughput change = 0.0374813
Class 0:
Packet latency average = 21.5267
	minimum = 7
	maximum = 81
Network latency average = 21.5267
	minimum = 7
	maximum = 81
Slowest packet = 28119
Flit latency average = 21.5798
	minimum = 7
	maximum = 81
Slowest flit = 28119
Fragmentation average = 0
	minimum = 0
	maximum = 0
Injected packet rate average = 0.0199792
	minimum = 0.0173333 (at node 1)
	maximum = 0.0243333 (at node 3)
Accepted packet rate average = 0.0199792
	minimum = 0 (at node 0)
	maximum = 0.319667 (at node 11)
Injected flit rate average = 0.0199792
	minimum = 0.0173333 (at node 1)
	maximum = 0.0243333 (at node 3)
Accepted flit rate average= 0.0199792
	minimum = 0 (at node 0)
	maximum = 0.319667 (at node 11)
Injected packet length average = 1
Accepted packet length average = 1
Total in-flight flits = 4 (4 measured)
latency change    = 0.0114766
throughput change = 0.0432742
Draining all recorded packets ...
Draining remaining packets ...
Time taken is 6053 cycles
Class 0:
Packet latency average = 21.0151
	minimum = 7
	maximum = 62
Network latency average = 21.0151
	minimum = 7
	maximum = 62
Slowest packet = 28721
Flit latency average = 21.0151
	minimum = 7
	maximum = 62
Slowest flit = 28721
Fragmentation average = 0
	minimum = 0
	maximum = 0
Injected packet rate average = 0.0171875
	minimum = 0.01 (at node 6)
	maximum = 0.025 (at node 2)
Accepted packet rate average = 0.0165625
	minimum = 0 (at node 0)
	maximum = 0.265 (at node 11)
Injected flit rate average = 0.0171875
	minimum = 0.01 (at node 6)
	maximum = 0.025 (at node 2)
Accepted flit rate average= 0.0165625
	minimum = 0 (at node 0)
	maximum = 0.265 (at node 11)
Injected packet length average = 1
Accepted packet length average = 1
Total in-flight flits = 10 (0 measured)
latency change    = 1
throughput change = 1
Class 0:
Packet latency average = 22.285
	minimum = 7
	maximum = 107
Network latency average = 22.285
	minimum = 7
	maximum = 107
Slowest packet = 29036
Flit latency average = 22.285
	minimum = 7
	maximum = 107
Slowest flit = 29036
Fragmentation average = 0
	minimum = 0
	maximum = 0
Injected packet rate average = 0.0191875
	minimum = 0.014 (at node 7)
	maximum = 0.024 (at node 5)
Accepted packet rate average = 0.0189687
	minimum = 0 (at node 0)
	maximum = 0.3035 (at node 11)
Injected flit rate average = 0.0191875
	minimum = 0.014 (at node 7)
	maximum = 0.024 (at node 5)
Accepted flit rate average= 0.0189687
	minimum = 0 (at node 0)
	maximum = 0.3035 (at node 11)
Injected packet length average = 1
Accepted packet length average = 1
Total in-flight flits = 7 (0 measured)
latency change    = 0.0569851
throughput change = 0.126853
Class 0:
Packet latency average = 20.6426
	minimum = 7
	maximum = 63
Network latency average = 20.6426
	minimum = 7
	maximum = 63
Slowest packet = 29279
Flit latency average = 20.6426
	minimum = 7
	maximum = 63
Slowest flit = 29279
Fragmentation average = 0
	minimum = 0
	maximum = 0
Injected packet rate average = 0.0199375
	minimum = 0.007 (at node 13)
	maximum = 0.029 (at node 9)
Accepted packet rate average = 0.0199375
	minimum = 0 (at node 0)
	maximum = 0.319 (at node 11)
Injected flit rate average = 0.0199375
	minimum = 0.007 (at node 13)
	maximum = 0.029 (at node 9)
Accepted flit rate average= 0.0199375
	minimum = 0 (at node 0)
	maximum = 0.319 (at node 11)
Injected packet length average = 1
Accepted packet length average = 1
Total in-flight flits = 7 (0 measured)
latency change    = 0.0795623
throughput change = 0.0485893
Warmed up ...Time used is 3000 cycles
Class 0:
Packet latency average = 21.2242
	minimum = 7
	maximum = 53
Network latency average = 21.2242
	minimum = 7
	maximum = 53
Slowest packet = 29638
Flit latency average = 21.2404
	minimum = 7
	maximum = 53
Slowest flit = 29638
Fragmentation average = 0
	minimum = 0
	maximum = 0
Injected packet rate average = 0.02125
	minimum = 0.016 (at node 13)
	maximum = 0.029 (at node 15)
Accepted packet rate average = 0.0210625
	minimum = 0 (at node 0)
	maximum = 0.337 (at node 11)
Injected flit rate average = 0.02125
	minimum = 0.016 (at node 13)
	maximum = 0.029 (at node 15)
Accepted flit rate average= 0.0210625
	minimum = 0 (at node 0)
[...]
Time taken is 7062 cycles
Class 0:
Packet latency average = 23.003
	minimum = 7
	maximum = 78
Network latency average = 23.003
	minimum = 7
	maximum = 78
Slowest packet = 217586
Flit latency average = 23.003
	minimum = 7
	maximum = 78
Slowest flit = 217586
Fragmentation average = 0
	minimum = 0
	maximum = 0
Injected packet rate average = 0.021
	minimum = 0.012 (at node 8)
	maximum = 0.029 (at node 0)
Accepted packet rate average = 0.020875
	minimum = 0 (at node 0)
	maximum = 0.334 (at node 11)
Injected flit rate average = 0.021
	minimum = 0.012 (at node 8)
	maximum = 0.029 (at node 0)
Accepted flit rate average= 0.020875
	minimum = 0 (at node 0)
	maximum = 0.334 (at node 11)
Injected packet length average = 1
Accepted packet length average = 1
Total in-flight flits = 2 (0 measured)
latency change    = 1
throughput change = 1
Class 0:
Packet latency average = 22.2434
	minimum = 7
	maximum = 78
Network latency average = 22.2434
	minimum = 7
	maximum = 78
Slowest packet = 217586
Flit latency average = 22.2434
	minimum = 7
	maximum = 78
Slowest flit = 217586
Fragmentation average = 0
	minimum = 0
	maximum = 0
Injected packet rate average = 0.0214063
	minimum = 0.016 (at node 8)
	maximum = 0.0285 (at node 0)
Accepted packet rate average = 0.0211875
	minimum = 0 (at node 0)
	maximum = 0.339 (at node 11)
Injected flit rate average = 0.0214063
	minimum = 0.016 (at node 8)
	maximum = 0.0285 (at node 0)
Accepted flit rate average= 0.0211875
	minimum = 0 (at node 0)
	maximum = 0.339 (at node 11)
Injected packet length average = 1
Accepted packet length average = 1
Total in-flight flits = 7 (0 measured)
latency change    = 0.0341509
throughput change = 0.0147493
Class 0:
Packet latency average = 21.7308
	minimum = 7
	maximum = 51
Network latency average = 21.7308
	minimum = 7
	maximum = 51
Slowest packet = 218202
Flit latency average = 21.7308
	minimum = 7
	maximum = 51
Slowest flit = 218202
Fragmentation average = 0
	minimum = 0
	maximum = 0
Injected packet rate average = 0.020875
	minimum = 0.015 (at node 4)
	maximum = 0.034 (at node 13)
Accepted packet rate average = 0.021125
	minimum = 0 (at node 0)
	maximum = 0.338 (at node 11)
Injected flit rate average = 0.020875
	minimum = 0.015 (at node 4)
	maximum = 0.034 (at node 13)
Accepted flit rate average= 0.021125
	minimum = 0 (at node 0)
	maximum = 0.338 (at node 11)
Injected packet length average = 1
Accepted packet length average = 1
Total in-flight flits = 3 (0 measured)
latency change    = 0.0235884
throughput change = 0.00295858
Warmed up ...Time used is 3000 cycles
Class 0:
Packet latency average = 21.4356
	minimum = 7
	maximum = 61
Network latency average = 21.4356
	minimum = 7
	maximum = 61
Slowest packet = 218623
Flit latency average = 21.5
	minimum = 7
	maximum = 61
Slowest flit = 218623
Fragmentation average = 0
	minimum = 0
	maximum = 0
Injected packet rate average = 0.0190625
	minimum = 0.012 (at node 15)
	maximum = 0.032 (at node 7)
Accepted packet rate average = 0.019125
	minimum = 0 (at node 0)
	maximum = 0.306 (at node 11)
Injected flit rate average = 0.0190625
	minimum = 0.012 (at node 15)
	maximum = 0.032 (at node 7)
Accepted flit rate average= 0.019125
	minimum = 0 (at node 0)
	maximum = 0.306 (at node 11)
Injected packet length average = 1
Accepted packet length average = 1
Total in-flight flits = 2 (2 measured)
latency change    = 0.013768
throughput change = 0.104575
Class 0:
Packet latency average = 21.7394
	minimum = 7
	maximum = 62
Network latency average = 21.7394
	minimum = 7
	maximum = 62
Slowest packet = 218882
Flit latency average = 21.7699
	minimum = 7
	maximum = 62
Slowest flit = 218882
Fragmentation average = 0
	minimum = 0
	maximum = 0
Injected packet rate average = 0.0192812
	minimum = 0.012 (at node 15)
	maximum = 0.0265 (at node 7)
Accepted packet rate average = 0.0192812
	minimum = 0 (at node 0)
	maximum = 0.3085 (at node 11)
Injected flit rate average = 0.0192812
	minimum = 0.012 (at node 15)
	maximum = 0.0265 (at node 7)
Accepted flit rate average= 0.0192812
	minimum = 0 (at node 0)
	maximum = 0.3085 (at node 11)
Injected packet length average = 1
Accepted packet length average = 1
Total in-flight flits = 3 (3 measured)
latency change    = 0.0139732
throughput change = 0.00810373
Class 0:
Packet latency average = 21.6645
	minimum = 7
	maximum = 62
Network latency average = 21.6645
	minimum = 7
	maximum = 62
Slowest packet = 218882
Flit latency average = 21.685
	minimum = 7
	maximum = 62
Slowest flit = 218882
Fragmentation average = 0
	minimum = 0
	maximum = 0
Injected packet rate average = 0.0193958
	minimum = 0.0136667 (at node 15)
	maximum = 0.0256667 (at node 2)
Accepted packet rate average = 0.0193125
	minimum = 0 (at node 0)
	maximum = 0.309 (at node 11)
Injected flit rate average = 0.0193958
	minimum = 0.0136667 (at node 15)
	maximum = 0.0256667 (at node 2)
Accepted flit rate average= 0.0193125
	minimum = 0 (at node 0)
	maximum = 0.309 (at node 11)
Injected packet length average = 1
Accepted packet length average = 1
Total in-flight flits = 7 (7 measured)
latency change    = 0.0034578
throughput change = 0.00161812
Class 0:
Packet latency average = 21.9285
	minimum = 7
	maximum = 85
Network latency average = 21.9285
	minimum = 7
	maximum = 85
Slowest packet = 219631
Flit latency average = 21.9431
	minimum = 7
	maximum = 85
Slowest flit = 219631
Fragmentation average = 0
	minimum = 0
	maximum = 0
Injected packet rate average = 0.0195469
	minimum = 0.01625 (at node 11)
	maximum = 0.02525 (at node 2)
Accepted packet rate average = 0.0195
	minimum = 0 (at node 0)
	maximum = 0.312 (at node 11)
Injected flit rate average = 0.0195469
	minimum = 0.01625 (at node 11)
	maximum = 0.02525 (at node 2)
Accepted flit rate average= 0.0195
	minimum = 0 (at node 0)
	maximum = 0.312 (at node 11)
Injected packet length average = 1
Accepted packet length average = 1
Total in-flight flits = 6 (6 measured)
latency change    = 0.0120397
throughput change = 0.00961538
Draining all recorded packets ...
Draining remaining packets ...
Time taken is 7059 cycles
Class 0:
Packet latency average = 22.6473
	minimum = 7
	maximum = 80
Network latency average = 22.6473
	minimum = 7
	maximum = 80
Slowest packet = 219781
Flit latency average = 22.6473
	minimum = 7
	maximum = 80
Slowest flit = 219781
Fragmentation average = 0
	minimum = 0
	maximum = 0
Injected packet rate average = 0.017875
	minimum = 0.009 (at node 7)
	maximum = 0.03 (at node 1)
Accepted packet rate average = 0.0171875
	minimum = 0 (at node 0)
	maximum = 0.275 (at node 11)
Injected flit rate average = 0.017875
	minimum = 0.009 (at node 7)
	maximum = 0.03 (at node 1)
Accepted flit rate average= 0.0171875
	minimum = 0 (at node 0)
	maximum = 0.275 (at node 11)
Injected packet length average = 1
Accepted packet length average = 1
Total in-flight flits = 11 (0 measured)
latency change    = 1
throughput change = 1
Class 0:
Packet latency average = 21.8429
	minimum = 7
	maximum = 80
Network latency average = 21.8429
	minimum = 7
	maximum = 80
Slowest packet = 219781
Flit latency average = 21.8429
	minimum = 7
	maximum = 80
Slowest flit = 219781
Fragmentation average = 0
	minimum = 0
	maximum = 0
Injected packet rate average = 0.0198125
	minimum = 0.0145 (at node 12)
	maximum = 0.0275 (at node 2)
Accepted packet rate average = 0.0195
	minimum = 0 (at node 0)
	maximum = 0.312 (at node 11)
Injected flit rate average = 0.0198125
	minimum = 0.0145 (at node 12)
	maximum = 0.0275 (at node 2)
Accepted flit rate average= 0.0195
	minimum = 0 (at node 0)
	maximum = 0.312 (at node 11)
Injected packet length average = 1
Accepted packet length average = 1
Total in-flight flits = 10 (0 measured)
latency change    = 0.0368231
throughput change = 0.11859
Class 0:
Packet latency average = 21.6342
	minimum = 7
	maximum = 70
Network latency average = 21.6342
	minimum = 7
	maximum = 70
Slowest packet = 220418
Flit latency average = 21.6342
	minimum = 7
	maximum = 70
Slowest flit = 220418
Fragmentation average = 0
	minimum = 0
	maximum = 0
Injected packet rate average = 0.021
	minimum = 0.015 (at node 13)
	maximum = 0.028 (at node 11)
Accepted packet rate average = 0.0211875
	minimum = 0 (at node 0)
	maximum = 0.339 (at node 11)
Injected flit rate average = 0.021
	minimum = 0.015 (at node 13)
	maximum = 0.028 (at node 11)
Accepted flit rate average= 0.0211875
	minimum = 0 (at node 0)
	maximum = 0.339 (at node 11)
Injected packet length average = 1
Accepted packet length average = 1
Total in-flight flits = 7 (0 measured)
latency change    = 0.00964816
throughput change = 0.079646
Warmed up ...Time used is 3000 cycles
Class 0:
Packet latency average = 20.9344
	minimum = 7
	maximum = 54
Network latency average = 20.9344
	minimum = 7
	maximum = 54
Slowest packet = 220767
Flit latency average = 20.9872
	minimum = 7
	maximum = 54
Slowest flit = 220767
Fragmentation average = 0
	minimum = 0
	maximum = 0
Injected packet rate average = 0.019875
	minimum = 0.014 (at node 4)
	maximum = 0.027 (at node 1)
Accepted packet rate average = 0.0195
	minimum = 0 (at node 0)
	maximum = 0.312 (at node 11)
Injected flit rate average = 0.019875
	minimum = 0.014 (at node 4)
	maximum = 0.027 (at node 1)
Accepted flit rate average= 0.0195
	minimum = 0 (at node 0)
	maximum = 0.312 (at node 11)
Injected packet length average = 1
Accepted packet length average = 1
Total in-flight flits = 13 (13 measured)
latency change    = 0.0334278
throughput change = 0.0865385
Class 0:
Packet latency average = 21.5699
	minimum = 7
	maximum = 58
Network latency average = 21.5699
	minimum = 7
	maximum = 58
Slowest packet = 221019
Flit latency average = 21.5878
	minimum = 7
	maximum = 58
Slowest flit = 221019
Fragmentation average = 0
	minimum = 0
	maximum = 0
Injected packet rate average = 0.0210938
	minimum = 0.017 (at node 0)
	maximum = 0.026 (at node 7)
Accepted packet rate average = 0.021
	minimum = 0 (at node 0)
	maximum = 0.336 (at node 11)
Injected flit rate average = 0.0210938
	minimum = 0.017 (at node 0)
	maximum = 0.026 (at node 7)
Accepted flit rate average= 0.021
	minimum = 0 (at node 0)
	maximum = 0.336 (at node 11)
Injected packet length average = 1
Accepted packet length average = 1
Total in-flight flits = 10 (10 measured)
latency change    = 0.0294623
throughput change = 0.0714286
Class 0:
Packet latency average = 21.3152
	minimum = 7
	maximum = 60
Network latency average = 21.3152
	minimum = 7
	maximum = 60
Slowest packet = 221558
Flit latency average = 21.3293
	minimum = 7
	maximum = 60
Slowest flit = 221558
Fragmentation average = 0
	minimum = 0
	maximum = 0
Injected packet rate average = 0.0204792
	minimum = 0.018 (at node 0)
	maximum = 0.0243333 (at node 7)
Accepted packet rate average = 0.0204375
	minimum = 0 (at node 0)
	maximum = 0.327 (at node 11)
Injected flit rate average = 0.0204792
	minimum = 0.018 (at node 0)
	maximum = 0.0243333 (at node 7)
Accepted flit rate average= 0.0204375
	minimum = 0 (at node 0)
	maximum = 0.327 (at node 11)
Injected packet length average = 1
Accepted packet length average = 1
Total in-flight flits = 9 (9 measured)
latency change    = 0.0119506
throughput change = 0.0275229
Class 0:
Packet latency average = 21.2845
	minimum = 7
	maximum = 60
Network latency average = 21.2845
	minimum = 7
	maximum = 60
Slowest packet = 221558
Flit latency average = 21.2952
	minimum = 7
	maximum = 60
Slowest flit = 221558
Fragmentation average = 0
	minimum = 0
	maximum = 0
Injected packet rate average = 0.0205
	minimum = 0.01725 (at node 4)
	maximum = 0.02425 (at node 11)
Accepted packet rate average = 0.0204844
	minimum = 0 (at node 0)
	maximum = 0.32775 (at node 11)
Injected flit rate average = 0.0205
	minimum = 0.01725 (at node 4)
	maximum = 0.02425 (at node 11)
Accepted flit rate average= 0.0204844
	minimum = 0 (at node 0)
	maximum = 0.32775 (at node 11)
Injected packet length average = 1
Accepted packet length average = 1
Total in-flight flits = 8 (8 measured)
latency change    = 0.0014417
throughput change = 0.00228833
Class 0:
Packet latency average = 21.2436
	minimum = 7
	maximum = 76
Network latency average = 21.2436
	minimum = 7
	maximum = 76
Slowest packet = 222190
Flit latency average = 21.2523
	minimum = 7
	maximum = 76
Slowest flit = 222190
Fragmentation average = 0
	minimum = 0
	maximum = 0
Injected packet rate average = 0.0205375
	minimum = 0.0182 (at node 14)
	maximum = 0.024 (at node 11)
Accepted packet rate average = 0.0205125
	minimum = 0 (at node 0)
	maximum = 0.3282 (at node 11)
Injected flit rate average = 0.0205375
	minimum = 0.0182 (at node 14)
	maximum = 0.024 (at node 11)
Accepted flit rate average= 0.0205125
	minimum = 0 (at node 0)
	maximum = 0.3282 (at node 11)
Injected packet length average = 1
Accepted packet length average = 1
Total in-flight flits = 9 (9 measured)
latency change    = 0.00192694
throughput change = 0.00137112
Draining all recorded packets ...
Draining remaining packets ...
Time taken is 8057 cycles
Class 0:
Packet latency average = 21.7517
	minimum = 7
	maximum = 65
Network latency average = 21.7517
	minimum = 7
	maximum = 65
Slowest packet = 222369
Flit latency average = 21.7517
	minimum = 7
	maximum = 65
Slowest flit = 222369
Fragmentation average = 0
	minimum = 0
	maximum = 0
Injected packet rate average = 0.0198125
	minimum = 0.014 (at node 0)
	maximum = 0.025 (at node 4)
Accepted packet rate average = 0.018875
	minimum = 0 (at node 0)
	maximum = 0.302 (at node 11)
Injected flit rate average = 0.0198125
	minimum = 0.014 (at node 0)
	maximum = 0.025 (at node 4)
Accepted flit rate average= 0.018875
	minimum = 0 (at node 0)
	maximum = 0.302 (at node 11)
Injected packet length average = 1
Accepted packet length average = 1
Total in-flight flits = 15 (0 measured)
latency change    = 1
throughput change = 1
Class 0:
Packet latency average = 21.8271
	minimum = 7
	maximum = 65
Network latency average = 21.8271
	minimum = 7
	maximum = 65
Slowest packet = 222369
Flit latency average = 21.8271
	minimum = 7
	maximum = 65
Slowest flit = 222369
Fragmentation average = 0
	minimum = 0
	maximum = 0
Injected packet rate average = 0.0196875
	minimum = 0.014 (at node 5)
	maximum = 0.0245 (at node 4)
Accepted packet rate average = 0.0193437
	minimum = 0 (at node 0)
	maximum = 0.3095 (at node 11)
Injected flit rate average = 0.0196875
	minimum = 0.014 (at node 5)
	maximum = 0.0245 (at node 4)
Accepted flit rate average= 0.0193437
	minimum = 0 (at node 0)
	maximum = 0.3095 (at node 11)
Injected packet length average = 1
Accepted packet length average = 1
Total in-flight flits = 11 (0 measured)
latency change    = 0.00345831
throughput change = 0.0242326
Class 0:
Packet latency average = 21.7029
	minimum = 7
	maximum = 64
Network latency average = 21.7029
	minimum = 7
	maximum = 64
Slowest packet = 222938
Flit latency average = 21.7029
	minimum = 7
	maximum = 64
Slowest flit = 222938
Fragmentation average = 0
	minimum = 0
	maximum = 0
Injected packet rate average = 0.0194375
	minimum = 0.013 (at node 3)
	maximum = 0.028 (at node 5)
Accepted packet rate average = 0.0195625
	minimum = 0 (at node 0)
	maximum = 0.313 (at node 11)
Injected flit rate average = 0.0194375
	minimum = 0.013 (at node 3)
	maximum = 0.028 (at node 5)
Accepted flit rate average= 0.0195625
	minimum = 0 (at node 0)
	maximum = 0.313 (at node 11)
Injected packet length average = 1
Accepted packet length average = 1
Total in-flight flits = 9 (0 measured)
latency change    = 0.00572575
throughput change = 0.0111821
Warmed up ...Time used is 3000 cycles
Class 0:
Packet latency average = 21.9134
	minimum = 7
	maximum = 66
Network latency average = 21.9134
	minimum = 7
	maximum = 66
Slowest packet = 223515
Flit latency average = 22.0029
	minimum = 7
	maximum = 66
Slowest flit = 223515
Fragmentation average = 0
	minimum = 0
	maximum = 0
Injected packet rate average = 0.021375
	minimum = 0.014 (at node 8)
	maximum = 0.028 (at node 13)
Accepted packet rate average = 0.0215
	minimum = 0 (at node 0)
	maximum = 0.344 (at node 11)
Injected flit rate average = 0.021375
	minimum = 0.014 (at node 8)
	maximum = 0.028 (at node 13)
Accepted flit rate average= 0.0215
	minimum = 0 (at node 0)
	maximum = 0.344 (at node 11)
Injected packet length average = 1
Accepted packet length average = 1
Total in-flight flits = 7 (7 measured)
latency change    = 0.0096086
throughput change = 0.0901163
Class 0:
Packet latency average = 21.9323
	minimum = 7
	maximum = 71
Network latency average = 21.9323
	minimum = 7
	maximum = 71
Slowest packet = 223709
Flit latency average = 21.9777
	minimum = 7
	maximum = 71
Slowest flit = 223709
Fragmentation average = 0
	minimum = 0
	maximum = 0
Injected packet rate average = 0.0209375
	minimum = 0.0155 (at node 8)
	maximum = 0.024 (at node 2)
Accepted packet rate average = 0.0210625
	minimum = 0 (at node 0)
	maximum = 0.337 (at node 11)
Injected flit rate average = 0.0209375
	minimum = 0.0155 (at node 8)
	maximum = 0.024 (at node 2)
Accepted flit rate average= 0.0210625
	minimum = 0 (at node 0)
	maximum = 0.337 (at node 11)
Injected packet length average = 1
Accepted packet length average = 1
Total in-flight flits = 5 (5 measured)
latency change    = 0.00086165
throughput change = 0.0207715
Class 0:
Packet latency average = 21.6363
	minimum = 7
	maximum = 71
Network latency average = 21.6363
	minimum = 7
	maximum = 71
Slowest packet = 223709
Flit latency average = 21.6701
	minimum = 7
	maximum = 71
Slowest flit = 223709
Fragmentation average = 0
	minimum = 0
	maximum = 0
Injected packet rate average = 0.0205
	minimum = 0.017 (at node 8)
	maximum = 0.0243333 (at node 11)
Accepted packet rate average = 0.0205208
	minimum = 0 (at node 0)
	maximum = 0.328333 (at node 11)
Injected flit rate average = 0.0205
	minimum = 0.017 (at node 8)
	maximum = 0.0243333 (at node 11)
Accepted flit rate average= 0.0205208
	minimum = 0 (at node 0)
	maximum = 0.328333 (at node 11)
Injected packet length average = 1
Accepted packet length average = 1
Total in-flight flits = 8 (8 measured)
latency change    = 0.0136835
throughput change = 0.0263959
Class 0:
Packet latency average = 21.4984
	minimum = 7
	maximum = 71
Network latency average = 21.4984
	minimum = 7
	maximum = 71
Slowest packet = 223709
Flit latency average = 21.5254
	minimum = 7
	maximum = 71
Slowest flit = 223709
Fragmentation average = 0
	minimum = 0
	maximum = 0
Injected packet rate average = 0.0199844
	minimum = 0.01725 (at node 8)
	maximum = 0.0225 (at node 7)
Accepted packet rate average = 0.0200156
	minimum = 0 (at node 0)
	maximum = 0.32025 (at node 11)
Injected flit rate average = 0.0199844
	minimum = 0.01725 (at node 8)
	maximum = 0.0225 (at node 7)
Accepted flit rate average= 0.0200156
	minimum = 0 (at node 0)
	maximum = 0.32025 (at node 11)
Injected packet length average = 1
Accepted packet length average = 1
Total in-flight flits = 7 (7 measured)
latency change    = 0.00641176
throughput change = 0.0252407
Draining all recorded packets ...
Draining remaining packets ...
Time taken is 7059 cycles
====== Overall Traffic Statistics ======
====== Traffic class 0 ======
Packet latency average = 21.7303 (100 samples)
	minimum = 7 (100 samples)
	maximum = 81.13 (100 samples)
Network latency average = 21.7303 (100 samples)
	minimum = 7 (100 samples)
	maximum = 81.13 (100 samples)
Flit latency average = 21.7518 (100 samples)
	minimum = 7 (100 samples)
	maximum = 81.65 (100 samples)
Fragmentation average = 0 (100 samples)
	minimum = 0 (100 samples)
	maximum = 0 (100 samples)
Injected packet rate average = 0.0199521 (100 samples)
	minimum = 0.016194 (100 samples)
	maximum = 0.0240085 (100 samples)
Accepted packet rate average = 0.0199473 (100 samples)
	minimum = 0 (100 samples)
	maximum = 0.319157 (100 samples)
Injected flit rate average = 0.0199521 (100 samples)
	minimum = 0.016194 (100 samples)
	maximum = 0.0240085 (100 samples)
Accepted flit rate average = 0.0199473 (100 samples)
	minimum = 0 (100 samples)
	maximum = 0.319157 (100 samples)
Injected packet size average = 1 (100 samples)
Accepted packet size average = 1 (100 samples)
Hops average = 3.50122 (100 samples)
Total run time 5.26
