BEGIN Configuration File: /tmp/bs_1138183_327351.cfg
topology = mesh;
k = 4;
n = 2;
routing_function = min_adapt;
num_vcs = 4;
vc_buf_size = 4;
wait_for_tail_credit = 1;
vc_allocator = islip;
sw_allocator = islip;
alloc_iters = 1;
credit_delay = 2;
routing_delay = 1;
vc_alloc_delay = 1;
sw_alloc_delay = 1;
input_speedup = 2;
output_speedup = 1;
internal_speedup = 1.0;
traffic = uniform;
packet_size = 1;
sim_type = latency;
injection_rate = 0.05;
warmup_periods = 3;
sample_period = 1000;
sim_count = 100;
seed = 2;

END Configuration File: /tmp/bs_1138183_327351.cfg
Class 0:
Packet latency average = 21.1255
	minimum = 7
	maximum = 72
Network latency average = 21.1255
	minimum = 7
	maximum = 72
Slowest packet = 22
Flit latency average = 21.1255
	minimum = 7
	maximum = 72
Slowest flit = 22
Fragmentation average = 0
	minimum = 0
	maximum = 0
Injected packet rate average = 0.04975
	minimum = 0.035 (at node 8)
	maximum = 0.064 (at node 10)
Accepted packet rate average = 0.0483125
	minimum = 0.038 (at node 2)
	maximum = 0.059 (at node 10)
Injected flit rate average = 0.04975
	minimum = 0.035 (at node 8)
	maximum = 0.064 (at node 10)
Accepted flit rate average= 0.0483125
	minimum = 0.038 (at node 2)
	maximum = 0.059 (at node 10)
Injected packet length average = 1
Accepted packet length average = 1
Total in-flight flits = 23 (0 measured)
latency change    = 1
throughput change = 1
Class 0:
Packet latency average = 20.926
	minimum = 7
	maximum = 72
Network latency average = 20.926
	minimum = 7
	maximum = 72
Slowest packet = 22
Flit latency average = 20.926
	minimum = 7
	maximum = 72
Slowest flit = 22
Fragmentation average = 0
	minimum = 0
	maximum = 0
Injected packet rate average = 0.0495
	minimum = 0.039 (at node 1)
	maximum = 0.067 (at node 10)
Accepted packet rate average = 0.049
	minimum = 0.0395 (at node 4)
	maximum = 0.0565 (at node 1)
Injected flit rate average = 0.0495
	minimum = 0.039 (at node 1)
	maximum = 0.067 (at node 10)
Accepted flit rate average= 0.049
	minimum = 0.0395 (at node 4)
	maximum = 0.0565 (at node 1)
Injected packet length average = 1
Accepted packet length average = 1
Total in-flight flits = 16 (0 measured)
latency change    = 0.0095319
throughput change = 0.0140306
Class 0:
Packet latency average = 20.5731
	minimum = 7
	maximum = 67
Network latency average = 20.5731
	minimum = 7
	maximum = 67
Slowest packet = 1730
Flit latency average = 20.5731
	minimum = 7
	maximum = 67
Slowest flit = 1730
Fragmentation average = 0
	minimum = 0
	maximum = 0
Injected packet rate average = 0.0475625
	minimum = 0.04 (at node 6)
	maximum = 0.059 (at node 10)
Accepted packet rate average = 0.0474375
	minimum = 0.038 (at node 12)
	maximum = 0.06 (at node 15)
Injected flit rate average = 0.0475625
	minimum = 0.04 (at node 6)
	maximum = 0.059 (at node 10)
Accepted flit rate average= 0.0474375
	minimum = 0.038 (at node 12)
	maximum = 0.06 (at node 15)
Injected packet length average = 1
Accepted packet length average = 1
Total in-flight flits = 18 (0 measured)
latency change    = 0.0171533
throughput change = 0.0329381
Warmed up ...Time used is 3000 cycles
Class 0:
Packet latency average = 20.2019
	minimum = 7
	maximum = 53
Network latency average = 20.2019
	minimum = 7
	maximum = 53
Slowest packet = 2664
Flit latency average = 20.2547
	minimum = 7
	maximum = 53
Slowest flit = 2664
Fragmentation average = 0
	minimum = 0
	maximum = 0
Injected packet rate average = 0.053625
	minimum = 0.037 (at node 1)
	maximum = 0.066 (at node 12)
Accepted packet rate average = 0.05375
	minimum = 0.042 (at node 9)
	maximum = 0.063 (at node 11)
Injected flit rate average = 0.053625
	minimum = 0.037 (at node 1)
	maximum = 0.066 (at node 12)
Accepted flit rate average= 0.05375
	minimum = 0.042 (at node 9)
	maximum = 0.063 (at node 11)
Injected packet length average = 1
Accepted packet length average = 1
Total in-flight flits = 16 (16 measured)
latency change    = 0.0183756
throughput change = 0.117442
Class 0:
Packet latency average = 20.5639
	minimum = 7
	maximum = 64
Network latency average = 20.5639
	minimum = 7
	maximum = 64
Slowest packet = 3275
Flit latency average = 20.5871
	minimum = 7
	maximum = 64
Slowest flit = 3275
Fragmentation average = 0
	minimum = 0
	maximum = 0
Injected packet rate average = 0.0524688
	minimum = 0.0415 (at node 1)
	maximum = 0.0585 (at node 12)
Accepted packet rate average = 0.052375
	minimum = 0.0415 (at node 9)
	maximum = 0.0615 (at node 0)
Injected flit rate average = 0.0524688
	minimum = 0.0415 (at node 1)
	maximum = 0.0585 (at node 12)
Accepted flit rate average= 0.052375
	minimum = 0.0415 (at node 9)
	maximum = 0.0615 (at node 0)
Injected packet length average = 1
Accepted packet length average = 1
Total in-flight flits = 21 (21 measured)
latency change    = 0.0176052
throughput change = 0.026253
Class 0:
Packet latency average = 20.5197
	minimum = 7
	maximum = 103
Network latency average = 20.5197
	minimum = 7
	maximum = 103
Slowest packet = 4291
Flit latency average = 20.5355
	minimum = 7
	maximum = 103
Slowest flit = 4291
Fragmentation average = 0
	minimum = 0
	maximum = 0
Injected packet rate average = 0.0521042
	minimum = 0.0456667 (at node 2)
	maximum = 0.0576667 (at node 10)
Accepted packet rate average = 0.05225
	minimum = 0.0453333 (at node 14)
	maximum = 0.066 (at node 0)
Injected flit rate average = 0.0521042
	minimum = 0.0456667 (at node 2)
	maximum = 0.0576667 (at node 10)
Accepted flit rate average= 0.05225
	minimum = 0.0453333 (at node 14)
	maximum = 0.066 (at node 0)
Injected packet length average = 1
Accepted packet length average = 1
Total in-flight flits = 11 (11 measured)
latency change    = 0.00215665
throughput change = 0.00239234
Class 0:
Packet latency average = 20.3892
	minimum = 7
	maximum = 103
Network latency average = 20.3892
	minimum = 7
	maximum = 103
Slowest packet = 4291
Flit latency average = 20.4019
	minimum = 7
	maximum = 103
Slowest flit = 4291
Fragmentation average = 0
	minimum = 0
	maximum = 0
Injected packet rate average = 0.0516719
	minimum = 0.04625 (at node 2)
	maximum = 0.0545 (at node 10)
Accepted packet rate average = 0.051625
	minimum = 0.0445 (at node 14)
	maximum = 0.062 (at node 0)
Injected flit rate average = 0.0516719
	minimum = 0.04625 (at node 2)
	maximum = 0.0545 (at node 10)
Accepted flit rate average= 0.051625
	minimum = 0.0445 (at node 14)
	maximum = 0.062 (at node 0)
Injected packet length average = 1
Accepted packet length average = 1
Total in-flight flits = 21 (21 measured)
latency change    = 0.00639807
throughput change = 0.0121065
Draining all recorded packets ...
Draining remaining packets ...
Time taken is 7053 cycles
Class 0:
Packet latency average = 20.7178
	minimum = 7
	maximum = 58
Network latency average = 20.7178
	minimum = 7
	maximum = 58
Slowest packet = 6288
Flit latency average = 20.7178
	minimum = 7
	maximum = 58
Slowest flit = 6288
Fragmentation average = 0
	minimum = 0
	maximum = 0
Injected packet rate average = 0.0501875
	minimum = 0.033 (at node 9)
	maximum = 0.058 (at node 5)
Accepted packet rate average = 0.0489375
	minimum = 0.043 (at node 1)
	maximum = 0.058 (at node 10)
Injected flit rate average = 0.0501875
	minimum = 0.033 (at node 9)
	maximum = 0.058 (at node 5)
Accepted flit rate average= 0.0489375
	minimum = 0.043 (at node 1)
	maximum = 0.058 (at node 10)
Injected packet length average = 1
Accepted packet length average = 1
Total in-flight flits = 20 (0 measured)
latency change    = 1
throughput change = 1
Class 0:
Packet latency average = 21.0543
	minimum = 7
	maximum = 60
Network latency average = 21.0543
	minimum = 7
	maximum = 60
Slowest packet = 6928
Flit latency average = 21.0543
	minimum = 7
	maximum = 60
Slowest flit = 6928
Fragmentation average = 0
	minimum = 0
	maximum = 0
Injected packet rate average = 0.0501875
	minimum = 0.0365 (at node 9)
	maximum = 0.0615 (at node 15)
Accepted packet rate average = 0.0495312
	minimum = 0.0405 (at node 6)
	maximum = 0.0575 (at node 4)
Injected flit rate average = 0.0501875
	minimum = 0.0365 (at node 9)
	maximum = 0.0615 (at node 15)
Accepted flit rate average= 0.0495312
	minimum = 0.0405 (at node 6)
	maximum = 0.0575 (at node 4)
Injected packet length average = 1
Accepted packet length average = 1
Total in-flight flits = 21 (0 measured)
latency change    = 0.0159828
throughput change = 0.0119874
Class 0:
Packet latency average = 20.3697
	minimum = 7
	maximum = 53
Network latency average = 20.3697
	minimum = 7
	maximum = 53
Slowest packet = 7567
Flit latency average = 20.3697
	minimum = 7
	maximum = 53
Slowest flit = 7567
Fragmentation average = 0
	minimum = 0
	maximum = 0
Injected packet rate average = 0.0500625
	minimum = 0.04 (at node 1)
	maximum = 0.061 (at node 8)
Accepted packet rate average = 0.050375
	minimum = 0.039 (at node 4)
	maximum = 0.068 (at node 10)
Injected flit rate average = 0.0500625
	minimum = 0.04 (at node 1)
	maximum = 0.061 (at node 8)
Accepted flit rate average= 0.050375
	minimum = 0.039 (at node 4)
	maximum = 0.068 (at node 10)
Injected packet length average = 1
Accepted packet length average = 1
Total in-flight flits = 16 (0 measured)
latency change    = 0.0336053
throughput change = 0.0167494
Warmed up ...Time used is 3000 cycles
Class 0:
Packet latency average = 20.2085
	minimum = 7
	maximum = 53
Network latency average = 20.2085
	minimum = 7
	maximum = 53
Slowest packet = 8248
Flit latency average = 20.2878
	minimum = 7
	maximum = 53
Slowest flit = 8248
Fragmentation average = 0
	minimum = 0
	maximum = 0
Injected packet rate average = 0.0525625
	minimum = 0.041 (at node 5)
	maximum = 0.063 (at node 10)
Accepted packet rate average = 0.0525625
	minimum = 0.038 (at node 2)
	maximum = 0.063 (at node 5)
Injected flit rate average = 0.0525625
	minimum = 0.041 (at node 5)
	maximum = 0.063 (at node 10)
Accepted flit rate average= 0.0525625
	minimum = 0.038 (at node 2)
	maximum = 0.063 (at node 5)
Injected packet length average = 1
Accepted packet length average = 1
Total in-flight flits = 16 (16 measured)
latency change    = 0.00797894
throughput change = 0.0416171
Class 0:
Packet latency average = 20.3646
	minimum = 7
	maximum = 67
Network latency average = 20.3646
	minimum = 7
	maximum = 67
Slowest packet = 8922
Flit latency average = 20.4038
	minimum = 7
	maximum = 67
Slowest flit = 8922
Fragmentation average = 0
	minimum = 0
	maximum = 0
Injected packet rate average = 0.051125
	minimum = 0.045 (at node 5)
	maximum = 0.0565 (at node 6)
Accepted packet rate average = 0.0511563
	minimum = 0.045 (at node 0)
	maximum = 0.0605 (at node 4)
Injected flit rate average = 0.051125
	minimum = 0.045 (at node 5)
	maximum = 0.0565 (at node 6)
Accepted flit rate average= 0.0511563
	minimum = 0.045 (at node 0)
	maximum = 0.0605 (at node 4)
Injected packet length average = 1
Accepted packet length average = 1
Total in-flight flits = 15 (15 measured)
latency change    = 0.00766551
throughput change = 0.0274893
Class 0:
Packet latency average = 20.3499
	minimum = 7
	maximum = 67
Network latency average = 20.3499
	minimum = 7
	maximum = 67
Slowest packet = 8922
Flit latency average = 20.3767
	minimum = 7
	maximum = 67
Slowest flit = 8922
Fragmentation average = 0
	minimum = 0
	maximum = 0
Injected packet rate average = 0.050125
	minimum = 0.0456667 (at node 3)
	maximum = 0.056 (at node 15)
Accepted packet rate average = 0.0501667
	minimum = 0.042 (at node 0)
	maximum = 0.059 (at node 4)
Injected flit rate average = 0.050125
	minimum = 0.0456667 (at node 3)
	maximum = 0.056 (at node 15)
Accepted flit rate average= 0.0501667
	minimum = 0.042 (at node 0)
	maximum = 0.059 (at node 4)
Injected packet length average = 1
Accepted packet length average = 1
Total in-flight flits = 14 (14 measured)
latency change    = 0.000721053
throughput change = 0.0197259
Draining all recorded packets ...
Draining remaining packets ...
Time taken is 6067 cycles
Class 0:
Packet latency average = 20.3678
	minimum = 7
	maximum = 65
Network latency average = 20.3678
	minimum = 7
	maximum = 65
Slowest packet = 10651
Flit latency average = 20.3678
	minimum = 7
	maximum = 65
Slowest flit = 10651
Fragmentation average = 0
	minimum = 0
	maximum = 0
Injected packet rate average = 0.0495625
	minimum = 0.038 (at node 0)
	maximum = 0.062 (at node 6)
Accepted packet rate average = 0.0489375
	minimum = 0.034 (at node 7)
	maximum = 0.059 (at node 2)
Injected flit rate average = 0.0495625
	minimum = 0.038 (at node 0)
	maximum = 0.062 (at node 6)
Accepted flit rate average= 0.0489375
	minimum = 0.034 (at node 7)
	maximum = 0.059 (at node 2)
Injected packet length average = 1
Accepted packet length average = 1
Total in-flight flits = 10 (0 measured)
latency change    = 1
throughput change = 1
Class 0:
Packet latency average = 20.3698
	minimum = 7
	maximum = 65
Network latency average = 20.3698
	minimum = 7
	maximum = 65
Slowest packet = 10651
Flit latency average = 20.3698
	minimum = 7
	maximum = 65
Slowest flit = 10651
Fragmentation average = 0
	minimum = 0
	maximum = 0
Injected packet rate average = 0.04975
	minimum = 0.0445 (at node 0)
	maximum = 0.058 (at node 11)
Accepted packet rate average = 0.0491875
	minimum = 0.039 (at node 7)
	maximum = 0.055 (at node 9)
Injected flit rate average = 0.04975
	minimum = 0.0445 (at node 0)
	maximum = 0.058 (at node 11)
Accepted flit rate average= 0.0491875
	minimum = 0.039 (at node 7)
	maximum = 0.055 (at node 9)
Injected packet length average = 1
Accepted packet length average = 1
Total in-flight flits = 18 (0 measured)
latency change    = 9.53612e-05
throughput change = 0.00508259
Class 0:
Packet latency average = 20.462
	minimum = 7
	maximum = 66
Network latency average = 20.462
	minimum = 7
	maximum = 66
Slowest packet = 12080
Flit latency average = 20.462
	minimum = 7
	maximum = 66
Slowest flit = 12080
Fragmentation average = 0
	minimum = 0
	maximum = 0
Injected packet rate average = 0.053
	minimum = 0.039 (at node 13)
	maximum = 0.063 (at node 1)
Accepted packet rate average = 0.0534375
	minimum = 0.039 (at node 9)
	maximum = 0.067 (at node 11)
Injected flit rate average = 0.053
	minimum = 0.039 (at node 13)
	maximum = 0.063 (at node 1)
Accepted flit rate average= 0.0534375
	minimum = 0.039 (at node 9)
	maximum = 0.067 (at node 11)
Injected packet length average = 1
Accepted packet length average = 1
Total in-flight flits = 11 (0 measured)
latency change    = 0.00450737
throughput change = 0.0795322
Warmed up ...Time used is 3000 cycles
Class 0:
Packet latency average = 20.5397
	minimum = 7
	maximum = 56
Network latency average = 20.5397
	minimum = 7
	maximum = 56
Slowest packet = 12965
Flit latency average = 20.5981
	minimum = 7
	maximum = 56
Slowest flit = 12965
Fragmentation average = 0
	minimum = 0
	maximum = 0
Injected packet rate average = 0.047125
	minimum = 0.035 (at node 1)
	maximum = 0.066 (at node 8)
Accepted packet rate average = 0.047125
	minimum = 0.038 (at node 2)
	maximum = 0.061 (at node 14)
Injected flit rate average = 0.047125
	minimum = 0.035 (at node 1)
	maximum = 0.066 (at node 8)
Accepted flit rate average= 0.047125
	minimum = 0.038 (at node 2)
	maximum = 0.061 (at node 14)
Injected packet length average = 1
Accepted packet length average = 1
Total in-flight flits = 11 (11 measured)
latency change    = 0.00378368
throughput change = 0.133952
Class 0:
Packet latency average = 20.4038
	minimum = 7
	maximum = 63
Network latency average = 20.4038
	minimum = 7
	maximum = 63
Slowest packet = 13942
Flit latency average = 20.4324
	minimum = 7
	maximum = 63
Slowest flit = 13942
Fragmentation average = 0
	minimum = 0
	maximum = 0
Injected packet rate average = 0.0499687
	minimum = 0.0395 (at node 1)
	maximum = 0.0605 (at node 8)
Accepted packet rate average = 0.0497187
	minimum = 0.0425 (at node 15)
	maximum = 0.056 (at node 11)
Injected flit rate average = 0.0499687
	minimum = 0.0395 (at node 1)
	maximum = 0.0605 (at node 8)
Accepted flit rate average= 0.0497187
	minimum = 0.0425 (at node 15)
	maximum = 0.056 (at node 11)
Injected packet length average = 1
Accepted packet length average = 1
Total in-flight flits = 19 (19 measured)
latency change    = 0.00666084
throughput change = 0.0521684
Class 0:
Packet latency average = 20.3301
	minimum = 7
	maximum = 63
Network latency average = 20.3301
	minimum = 7
	maximum = 63
Slowest packet = 13942
Flit latency average = 20.3498
	minimum = 7
	maximum = 63
Slowest flit = 13942
Fragmentation average = 0
	minimum = 0
	maximum = 0
Injected packet rate average = 0.0490208
	minimum = 0.0423333 (at node 3)
	maximum = 0.0553333 (at node 8)
Accepted packet rate average = 0.0488958
	minimum = 0.043 (at node 5)
	maximum = 0.0543333 (at node 14)
Injected flit rate average = 0.0490208
	minimum = 0.0423333 (at node 3)
	maximum = 0.0553333 (at node 8)
Accepted flit rate average= 0.0488958
	minimum = 0.043 (at node 5)
	maximum = 0.0543333 (at node 14)
Injected packet length average = 1
Accepted packet length average = 1
Total in-flight flits = 17 (17 measured)
latency change    = 0.00362744
throughput change = 0.01683
Class 0:
Packet latency average = 20.5147
	minimum = 7
	maximum = 63
Network latency average = 20.5147
	minimum = 7
	maximum = 63
Slowest packet = 13942
Flit latency average = 20.5289
	minimum = 7
	maximum = 63
Slowest flit = 13942
Fragmentation average = 0
	minimum = 0
	maximum = 0
Injected packet rate average = 0.0491562
	minimum = 0.04375 (at node 3)
	maximum = 0.0555 (at node 8)
Accepted packet rate average = 0.0489531
	minimum = 0.0435 (at node 9)
	maximum = 0.054 (at node 8)
Injected flit rate average = 0.0491562
	minimum = 0.04375 (at node 3)
	maximum = 0.0555 (at node 8)
Accepted flit rate average= 0.0489531
	minimum = 0.0435 (at node 9)
	maximum = 0.054 (at node 8)
Injected packet length average = 1
Accepted packet length average = 1
Total in-flight flits = 24 (24 measured)
latency change    = 0.00900245
throughput change = 0.00117034
Class 0:
Packet latency average = 20.5798
	minimum = 7
	maximum = 63
Network latency average = 20.5798
	minimum = 7
	maximum = 63
Slowest packet = 13942
Flit latency average = 20.591
	minimum = 7
	maximum = 63
Slowest flit = 13942
Fragmentation average = 0
	minimum = 0
	maximum = 0
Injected packet rate average = 0.049
	minimum = 0.0456 (at node 3)
	maximum = 0.0534 (at node 4)
Accepted packet rate average = 0.0489875
	minimum = 0.042 (at node 9)
	maximum = 0.0542 (at node 8)
Injected flit rate average = 0.049
	minimum = 0.0456 (at node 3)
	maximum = 0.0534 (at node 4)
Accepted flit rate average= 0.0489875
	minimum = 0.042 (at node 9)
	maximum = 0.0542 (at node 8)
Injected packet length average = 1
Accepted packet length average = 1
Total in-flight flits = 12 (12 measured)
latency change    = 0.00316339
throughput change = 0.00070171
Draining all recorded packets ...
Draining remaining packets ...
Time taken is 8050 cycles
Class 0:
Packet latency average = 20.8122
	minimum = 7
	maximum = 54
Network latency average = 20.8122
	minimum = 7
	maximum = 54
Slowest packet = 17050
Flit latency average = 20.8122
	minimum = 7
	maximum = 54
Slowest flit = 17050
Fragmentation average = 0
	minimum = 0
	maximum = 0
Injected packet rate average = 0.0511875
	minimum = 0.036 (at node 10)
	maximum = 0.062 (at node 4)
Accepted packet rate average = 0.05025
	minimum = 0.036 (at node 12)
	maximum = 0.064 (at node 13)
Injected flit rate average = 0.0511875
	minimum = 0.036 (at node 10)
	maximum = 0.062 (at node 4)
Accepted flit rate average= 0.05025
	minimum = 0.036 (at node 12)
	maximum = 0.064 (at node 13)
Injected packet length average = 1
Accepted packet length average = 1
Total in-flight flits = 15 (0 measured)
latency change    = 1
throughput change = 1
Class 0:
Packet latency average = 20.5917
	minimum = 7
	maximum = 56
Network latency average = 20.5917
	minimum = 7
	maximum = 56
Slowest packet = 18202
Flit latency average = 20.5917
	minimum = 7
	maximum = 56
Slowest flit = 18202
Fragmentation average = 0
	minimum = 0
	maximum = 0
Injected packet rate average = 0.0498125
	minimum = 0.0425 (at node 10)
	maximum = 0.063 (at node 13)
Accepted packet rate average = 0.0494375
	minimum = 0.0445 (at node 7)
	maximum = 0.0555 (at node 13)
Injected flit rate average = 0.0498125
	minimum = 0.0425 (at node 10)
	maximum = 0.063 (at node 13)
Accepted flit rate average= 0.0494375
	minimum = 0.0445 (at node 7)
	maximum = 0.0555 (at node 13)
Injected packet length average = 1
Accepted packet length average = 1
Total in-flight flits = 12 (0 measured)
latency change    = 0.0107098
throughput change = 0.0164349
Class 0:
Packet latency average = 20.7859
	minimum = 7
	maximum = 64
Network latency average = 20.7859
	minimum = 7
	maximum = 64
Slowest packet = 18627
Flit latency average = 20.7859
	minimum = 7
	maximum = 64
Slowest flit = 18627
Fragmentation average = 0
	minimum = 0
	maximum = 0
Injected packet rate average = 0.0501875
	minimum = 0.039 (at node 5)
	maximum = 0.064 (at node 6)
Accepted packet rate average = 0.049625
	minimum = 0.037 (at node 5)
	maximum = 0.064 (at node 6)
Injected flit rate average = 0.0501875
	minimum = 0.039 (at node 5)
	maximum = 0.064 (at node 6)
Accepted flit rate average= 0.049625
	minimum = 0.037 (at node 5)
	maximum = 0.064 (at node 6)
Injected packet length average = 1
Accepted packet length average = 1
Total in-flight flits = 21 (0 measured)
latency change    = 0.00934471
throughput change = 0.00377834
Warmed up ...Time used is 3000 cycles
Class 0:
Packet latency average = 20.1869
	minimum = 7
	maximum = 60
Network latency average = 20.1869
	minimum = 7
	maximum = 60
Slowest packet = 19592
Flit latency average = 20.2234
	minimum = 7
	maximum = 60
Slowest flit = 19592
Fragmentation average = 0
	minimum = 0
	maximum = 0
Injected packet rate average = 0.0476875
	minimum = 0.036 (at node 5)
	maximum = 0.058 (at node 2)
Accepted packet rate average = 0.048125
	minimum = 0.03 (at node 2)
	maximum = 0.069 (at node 7)
Injected flit rate average = 0.0476875
	minimum = 0.036 (at node 5)
	maximum = 0.058 (at node 2)
Accepted flit rate average= 0.048125
	minimum = 0.03 (at node 2)
	maximum = 0.069 (at node 7)
Injected packet length average = 1
Accepted packet length average = 1
Total in-flight flits = 14 (14 measured)
latency change    = 0.0296716
throughput change = 0.0311688
Class 0:
Packet latency average = 20.2586
	minimum = 7
	maximum = 60
Network latency average = 20.2586
	minimum = 7
	maximum = 60
Slowest packet = 19592
Flit latency average = 20.276
	minimum = 7
	maximum = 60
Slowest flit = 19592
Fragmentation average = 0
	minimum = 0
	maximum = 0
Injected packet rate average = 0.0475
	minimum = 0.036 (at node 5)
	maximum = 0.0535 (at node 6)
Accepted packet rate average = 0.0477812
	minimum = 0.036 (at node 2)
	maximum = 0.062 (at node 13)
Injected flit rate average = 0.0475
	minimum = 0.036 (at node 5)
	maximum = 0.0535 (at node 6)
Accepted flit rate average= 0.0477812
	minimum = 0.036 (at node 2)
	maximum = 0.062 (at node 13)
Injected packet length average = 1
Accepted packet length average = 1
Total in-flight flits = 12 (12 measured)
latency change    = 0.00353947
throughput change = 0.00719424
Class 0:
Packet latency average = 20.4315
	minimum = 7
	maximum = 60
Network latency average = 20.4315
	minimum = 7
	maximum = 60
Slowest packet = 19592
Flit latency average = 20.4414
	minimum = 7
	maximum = 60
Slowest flit = 19592
Fragmentation average = 0
	minimum = 0
	maximum = 0
Injected packet rate average = 0.0484375
	minimum = 0.0403333 (at node 1)
	maximum = 0.0536667 (at node 7)
Accepted packet rate average = 0.0486667
	minimum = 0.0353333 (at node 2)
	maximum = 0.0573333 (at node 13)
Injected flit rate average = 0.0484375
	minimum = 0.0403333 (at node 1)
	maximum = 0.0536667 (at node 7)
Accepted flit rate average= 0.0486667
	minimum = 0.0353333 (at node 2)
	maximum = 0.0573333 (at node 13)
Injected packet length average = 1
Accepted packet length average = 1
Total in-flight flits = 10 (10 measured)
latency change    = 0.00846304
throughput change = 0.0181935
Draining all recorded packets ...
Draining remaining packets ...
Time taken is 6069 cycles
Class 0:
Packet latency average = 20.8262
	minimum = 7
	maximum = 58
Network latency average = 20.8262
	minimum = 7
	maximum = 58
Slowest packet = 21927
Flit latency average = 20.8262
	minimum = 7
	maximum = 58
Slowest flit = 21927
Fragmentation average = 0
	minimum = 0
	maximum = 0
Injected packet rate average = 0.051875
	minimum = 0.04 (at node 13)
	maximum = 0.073 (at node 14)
Accepted packet rate average = 0.0510625
	minimum = 0.036 (at node 9)
	maximum = 0.069 (at node 15)
Injected flit rate average = 0.051875
	minimum = 0.04 (at node 13)
	maximum = 0.073 (at node 14)
Accepted flit rate average= 0.0510625
	minimum = 0.036 (at node 9)
	maximum = 0.069 (at node 15)
Injected packet length average = 1
Accepted packet length average = 1
Total in-flight flits = 13 (0 measured)
latency change    = 1
throughput change = 1
Class 0:
Packet latency average = 20.7234
	minimum = 7
	maximum = 87
Network latency average = 20.7234
	minimum = 7
	maximum = 87
Slowest packet = 22550
Flit latency average = 20.7234
	minimum = 7
	maximum = 87
Slowest flit = 22550
Fragmentation average = 0
	minimum = 0
	maximum = 0
Injected packet rate average = 0.0525313
	minimum = 0.0395 (at node 9)
	maximum = 0.0665 (at node 14)
Accepted packet rate average = 0.0521875
	minimum = 0.0445 (at node 1)
	maximum = 0.067 (at node 2)
Injected flit rate average = 0.0525313
	minimum = 0.0395 (at node 9)
	maximum = 0.0665 (at node 14)
Accepted flit rate average= 0.0521875
	minimum = 0.0445 (at node 1)
	maximum = 0.067 (at node 2)
Injected packet length average = 1
Accepted packet length average = 1
Total in-flight flits = 11 (0 measured)
latency change    = 0.00496252
throughput change = 0.0215569
Class 0:
Packet latency average = 20.5117
	minimum = 7
	maximum = 60
Network latency average = 20.5117
	minimum = 7
	maximum = 60
Slowest packet = 23384
Flit latency average = 20.5117
	minimum = 7
	maximum = 60
Slowest flit = 23384
Fragmentation average = 0
	minimum = 0
	maximum = 0
Injected packet rate average = 0.0508125
	minimum = 0.041 (at node 13)
	maximum = 0.058 (at node 1)
Accepted packet rate average = 0.0505625
	minimum = 0.035 (at node 6)
	maximum = 0.069 (at node 9)
Injected flit rate average = 0.0508125
	minimum = 0.041 (at node 13)
	maximum = 0.058 (at node 1)
Accepted flit rate average= 0.0505625
	minimum = 0.035 (at node 6)
	maximum = 0.069 (at node 9)
Injected packet length average = 1
Accepted packet length average = 1
Total in-flight flits = 15 (0 measured)
latency change    = 0.0103165
throughput change = 0.0321384
Warmed up ...Time used is 3000 cycles
Class 0:
Packet latency average = 20.8424
	minimum = 7
	maximum = 54
Network latency average = 20.8424
	minimum = 7
	maximum = 54
Slowest packet = 24460
Flit latency average = 20.8803
	minimum = 7
	maximum = 54
Slowest flit = 24460
Fragmentation average = 0
	minimum = 0
	maximum = 0
Injected packet rate average = 0.0500625
	minimum = 0.038 (at node 5)
	maximum = 0.058 (at node 15)
Accepted packet rate average = 0.050125
	minimum = 0.035 (at node 3)
	maximum = 0.063 (at node 5)
Injected flit rate average = 0.0500625
	minimum = 0.038 (at node 5)
	maximum = 0.058 (at node 15)
Accepted flit rate average= 0.050125
	minimum = 0.035 (at node 3)
	maximum = 0.063 (at node 5)
Injected packet length average = 1
Accepted packet length average = 1
Total in-flight flits = 14 (14 measured)
latency change    = 0.0158665
throughput change = 0.00872818
Class 0:
Packet latency average = 20.4034
	minimum = 7
	maximum = 54
Network latency average = 20.4034
	minimum = 7
	maximum = 54
Slowest packet = 24460
Flit latency average = 20.4271
	minimum = 7
	maximum = 54
Slowest flit = 24460
Fragmentation average = 0
	minimum = 0
	maximum = 0
Injected packet rate average = 0.0486562
	minimum = 0.0405 (at node 7)
	maximum = 0.061 (at node 4)
Accepted packet rate average = 0.0486562
	minimum = 0.04 (at node 0)
	maximum = 0.057 (at node 13)
Injected flit rate average = 0.0486562
	minimum = 0.0405 (at node 7)
	maximum = 0.061 (at node 4)
Accepted flit rate average= 0.0486562
	minimum = 0.04 (at node 0)
	maximum = 0.057 (at node 13)
Injected packet length average = 1
Accepted packet length average = 1
Total in-flight flits = 15 (15 measured)
latency change    = 0.0215194
throughput change = 0.0301863
Class 0:
Packet latency average = 20.2933
	minimum = 7
	maximum = 54
Network latency average = 20.2933
	minimum = 7
	maximum = 54
Slowest packet = 24460
Flit latency average = 20.3095
	minimum = 7
	maximum = 54
Slowest flit = 24460
Fragmentation average = 0
	minimum = 0
	maximum = 0
Injected packet rate average = 0.0497083
	minimum = 0.0446667 (at node 8)
	maximum = 0.0593333 (at node 3)
Accepted packet rate average = 0.0496042
	minimum = 0.0433333 (at node 3)
	maximum = 0.0573333 (at node 9)
Injected flit rate average = 0.0497083
	minimum = 0.0446667 (at node 8)
	maximum = 0.0593333 (at node 3)
Accepted flit rate average= 0.0496042
	minimum = 0.0433333 (at node 3)
	maximum = 0.0573333 (at node 9)
Injected packet length average = 1
Accepted packet length average = 1
Total in-flight flits = 20 (20 measured)
latency change    = 0.00542298
throughput change = 0.0191096
Draining all recorded packets ...
Draining remaining packets ...
Time taken is 6065 cycles
Class 0:
Packet latency average = 20.8045
	minimum = 7
	maximum = 56
Network latency average = 20.8045
	minimum = 7
	maximum = 56
Slowest packet = 26958
Flit latency average = 20.8045
	minimum = 7
	maximum = 56
Slowest flit = 26958
Fragmentation average = 0
	minimum = 0
	maximum = 0
Injected packet rate average = 0.0490625
	minimum = 0.04 (at node 4)
	maximum = 0.059 (at node 11)
Accepted packet rate average = 0.047625
	minimum = 0.037 (at node 8)
	maximum = 0.056 (at node 9)
Injected flit rate average = 0.0490625
	minimum = 0.04 (at node 4)
	maximum = 0.059 (at node 11)
Accepted flit rate average= 0.047625
	minimum = 0.037 (at node 8)
	maximum = 0.056 (at node 9)
Injected packet length average = 1
Accepted packet length average = 1
Total in-flight flits = 23 (0 measured)
latency change    = 1
throughput change = 1
Class 0:
Packet latency average = 20.6362
	minimum = 7
	maximum = 56
Network latency average = 20.6362
	minimum = 7
	maximum = 56
Slowest packet = 26958
Flit latency average = 20.6362
	minimum = 7
	maximum = 56
Slowest flit = 26958
Fragmentation average = 0
	minimum = 0
	maximum = 0
Injected packet rate average = 0.0490625
	minimum = 0.0405 (at node 4)
	maximum = 0.0575 (at node 0)
Accepted packet rate average = 0.048625
	minimum = 0.0355 (at node 8)
	maximum = 0.055 (at node 0)
Injected flit rate average = 0.0490625
	minimum = 0.0405 (at node 4)
	maximum = 0.0575 (at node 0)
Accepted flit rate average= 0.048625
	minimum = 0.0355 (at node 8)
	maximum = 0.055 (at node 0)
Injected packet length average = 1
Accepted packet length average = 1
Total in-flight flits = 14 (0 measured)
latency change    = 0.00815144
throughput change = 0.0205656
Class 0:
Packet latency average = 20.7034
	minimum = 7
	maximum = 83
Network latency average = 20.6996
	minimum = 7
	maximum = 83
Slowest packet = 28423
Flit latency average = 20.6996
	minimum = 7
	maximum = 83
Slowest flit = 28423
Fragmentation average = 0
	minimum = 0
	maximum = 0
Injected packet rate average = 0.0496875
	minimum = 0.036 (at node 0)
	maximum = 0.061 (at node 15)
Accepted packet rate average = 0.0499375
	minimum = 0.029 (at node 2)
	maximum = 0.067 (at node 15)
Injected flit rate average = 0.0496875
	minimum = 0.036 (at node 0)
	maximum = 0.061 (at node 15)
Accepted flit rate average= 0.0499375
	minimum = 0.029 (at node 2)
	maximum = 0.067 (at node 15)
Injected packet length average = 1
Accepted packet length average = 1
Total in-flight flits = 10 (0 measured)
latency change    = 0.00324258
throughput change = 0.0262829
Warmed up ...Time used is 3000 cycles
Class 0:
Packet latency average = 20.4463
	minimum = 7
	maximum = 57
Network latency average = 20.4463
	minimum = 7
	maximum = 57
Slowest packet = 28963
Flit latency average = 20.4891
	minimum = 7
	maximum = 57
Slowest flit = 28963
Fragmentation average = 0
	minimum = 0
	maximum = 0
Injected packet rate average = 0.049125
	minimum = 0.037 (at node 2)
	maximum = 0.063 (at node 5)
Accepted packet rate average = 0.0489375
	minimum = 0.035 (at node 13)
	maximum = 0.062 (at node 9)
Injected flit rate average = 0.049125
	minimum = 0.037 (at node 2)
	maximum = 0.063 (at node 5)
Accepted flit rate average= 0.0489375
	minimum = 0.035 (at node 13)
	maximum = 0.062 (at node 9)
Injected packet length average = 1
Accepted packet length average = 1
Total in-flight flits = 13 (13 measured)
latency change    = 0.0125727
throughput change = 0.0204342
Class 0:
Packet latency average = 20.8591
	minimum = 7
	maximum = 58
Network latency average = 20.8591
	minimum = 7
	maximum = 58
Slowest packet = 29834
Flit latency average = 20.8779
	minimum = 7
	maximum = 58
Slowest flit = 29834
Fragmentation average = 0
	minimum = 0
	maximum = 0
Injected packet rate average = 0.0489687
	minimum = 0.0395 (at node 6)
	maximum = 0.0545 (at node 11)
Accepted packet rate average = 0.048875
	minimum = 0.0405 (at node 5)
	maximum = 0.0545 (at node 7)
Injected flit rate average = 0.0489687
	minimum = 0.0395 (at node 6)
	maximum = 0.0545 (at node 11)
Accepted flit rate average= 0.048875
	minimum = 0.0405 (at node 5)
	maximum = 0.0545 (at node 7)
Injected packet length average = 1
Accepted packet length average = 1
Total in-flight flits = 13 (13 measured)
latency change    = 0.019788
throughput change = 0.00127877
Class 0:
Packet latency average = 20.593
	minimum = 7
	maximum = 58
Network latency average = 20.593
	minimum = 7
	maximum = 58
Slowest packet = 29834
Flit latency average = 20.6071
	minimum = 7
	maximum = 58
Slowest flit = 29834
Fragmentation average = 0
	minimum = 0
	maximum = 0
Injected packet rate average = 0.0476458
	minimum = 0.043 (at node 15)
	maximum = 0.051 (at node 3)
Accepted packet rate average = 0.0475625
	minimum = 0.041 (at node 5)
	maximum = 0.0536667 (at node 7)
Injected flit rate average = 0.0476458
	minimum = 0.043 (at node 15)
	maximum = 0.051 (at node 3)
Accepted flit rate average= 0.0475625
	minimum = 0.041 (at node 5)
	maximum = 0.0536667 (at node 7)
Injected packet length average = 1
Accepted packet length average = 1
Total in-flight flits = 14 (14 measured)
latency change    = 0.0129182
throughput change = 0.0275953
Draining all recorded packets ...
Draining remaining packets ...
Time taken is 6051 cycles
Class 0:
Packet latency average = 20.1481
	minimum = 7
	maximum = 49
Network latency average = 20.1481
	minimum = 7
	maximum = 49
Slowest packet = 31293
Flit latency average = 20.1481
	minimum = 7
	maximum = 49
Slowest flit = 31293
Fragmentation average = 0
	minimum = 0
	maximum = 0
Injected packet rate average = 0.05075
	minimum = 0.031 (at node 13)
	maximum = 0.061 (at node 5)
Accepted packet rate average = 0.0498125
	minimum = 0.035 (at node 14)
	maximum = 0.062 (at node 9)
Injected flit rate average = 0.05075
	minimum = 0.031 (at node 13)
	maximum = 0.061 (at node 5)
Accepted flit rate average= 0.0498125
	minimum = 0.035 (at node 14)
	maximum = 0.062 (at node 9)
Injected packet length average = 1
Accepted packet length average = 1
Total in-flight flits = 15 (0 measured)
latency change    = 1
throughput change = 1
Class 0:
Packet latency average = 20.3715
	minimum = 7
	maximum = 56
Network latency average = 20.3715
	minimum = 7
	maximum = 56
Slowest packet = 32373
Flit latency average = 20.3715
	minimum = 7
	maximum = 56
Slowest flit = 32373
Fragmentation average = 0
	minimum = 0
	maximum = 0
Injected packet rate average = 0.0510313
	minimum = 0.0355 (at node 13)
	maximum = 0.058 (at node 1)
Accepted packet rate average = 0.0504687
	minimum = 0.0395 (at node 3)
	maximum = 0.0555 (at node 2)
Injected flit rate average = 0.0510313
	minimum = 0.0355 (at node 13)
	maximum = 0.058 (at node 1)
Accepted flit rate average= 0.0504687
	minimum = 0.0395 (at node 3)
	maximum = 0.0555 (at node 2)
Injected packet length average = 1
Accepted packet length average = 1
Total in-flight flits = 18 (0 measured)
latency change    = 0.0109693
throughput change = 0.0130031
Class 0:
Packet latency average = 20.4013
	minimum = 7
	maximum = 50
Network latency average = 20.4013
	minimum = 7
	maximum = 50
Slowest packet = 33456
Flit latency average = 20.4013
	minimum = 7
	maximum = 50
Slowest flit = 33456
Fragmentation average = 0
	minimum = 0
	maximum = 0
Injected packet rate average = 0.0484375
	minimum = 0.034 (at node 5)
	maximum = 0.059 (at node 8)
Accepted packet rate average = 0.0484375
	minimum = 0.042 (at node 6)
	maximum = 0.059 (at node 9)
Injected flit rate average = 0.0484375
	minimum = 0.034 (at node 5)
	maximum = 0.059 (at node 8)
Accepted flit rate average= 0.0484375
	minimum = 0.042 (at node 6)
	maximum = 0.059 (at node 9)
Injected packet length average = 1
Accepted packet length average = 1
Total in-flight flits = 18 (0 measured)
latency change    = 0.00145938
throughput change = 0.0419355
Warmed up ...Time used is 3000 cycles
Class 0:
Packet latency average = 20.0153
	minimum = 7
	maximum = 65
Network latency average = 20.0153
	minimum = 7
	maximum = 65
Slowest packet = 33978
Flit latency average = 20.1881
	minimum = 7
	maximum = 65
Slowest flit = 33978
Fragmentation average = 0
	minimum = 0
	maximum = 0
Injected packet rate average = 0.0463125
	minimum = 0.032 (at node 12)
	maximum = 0.059 (at node 6)
Accepted packet rate average = 0.0461875
	minimum = 0.037 (at node 2)
	maximum = 0.054 (at node 14)
Injected flit rate average = 0.0463125
	minimum = 0.032 (at node 12)
	maximum = 0.059 (at node 6)
Accepted flit rate average= 0.0461875
	minimum = 0.037 (at node 2)
	maximum = 0.054 (at node 14)
Injected packet length average = 1
Accepted packet length average = 1
Total in-flight flits = 20 (20 measured)
latency change    = 0.019287
throughput change = 0.0487145
Class 0:
Packet latency average = 20.1609
	minimum = 7
	maximum = 66
Network latency average = 20.1609
	minimum = 7
	maximum = 66
Slowest packet = 34496
Flit latency average = 20.2399
	minimum = 7
	maximum = 66
Slowest flit = 34496
Fragmentation average = 0
	minimum = 0
	maximum = 0
Injected packet rate average = 0.0495625
	minimum = 0.044 (at node 15)
	maximum = 0.061 (at node 4)
Accepted packet rate average = 0.0495
	minimum = 0.0415 (at node 2)
	maximum = 0.0595 (at node 14)
Injected flit rate average = 0.0495625
	minimum = 0.044 (at node 15)
	maximum = 0.061 (at node 4)
Accepted flit rate average= 0.0495
	minimum = 0.0415 (at node 2)
	maximum = 0.0595 (at node 14)
Injected packet length average = 1
Accepted packet length average = 1
Total in-flight flits = 20 (20 measured)
latency change    = 0.00722502
throughput change = 0.0669192
Class 0:
Packet latency average = 20.3492
	minimum = 7
	maximum = 66
Network latency average = 20.3492
	minimum = 7
	maximum = 66
Slowest packet = 34496
Flit latency average = 20.3998
	minimum = 7
	maximum = 66
Slowest flit = 34496
Fragmentation average = 0
	minimum = 0
	maximum = 0
Injected packet rate average = 0.0501875
	minimum = 0.0436667 (at node 2)
	maximum = 0.059 (at node 4)
Accepted packet rate average = 0.0501875
	minimum = 0.0393333 (at node 2)
	maximum = 0.0616667 (at node 14)
Injected flit rate average = 0.0501875
	minimum = 0.0436667 (at node 2)
	maximum = 0.059 (at node 4)
Accepted flit rate average= 0.0501875
	minimum = 0.0393333 (at node 2)
	maximum = 0.0616667 (at node 14)
Injected packet length average = 1
Accepted packet length average = 1
Total in-flight flits = 18 (18 measured)
latency change    = 0.00925375
throughput change = 0.0136986
Class 0:
Packet latency average = 20.4508
	minimum = 7
	maximum = 66
Network latency average = 20.4508
	minimum = 7
	maximum = 66
Slowest packet = 34496
Flit latency average = 20.488
	minimum = 7
	maximum = 66
Slowest flit = 34496
Fragmentation average = 0
	minimum = 0
	maximum = 0
Injected packet rate average = 0.0502969
	minimum = 0.045 (at node 9)
	maximum = 0.05525 (at node 4)
Accepted packet rate average = 0.0502969
	minimum = 0.0415 (at node 2)
	maximum = 0.056 (at node 14)
Injected flit rate average = 0.0502969
	minimum = 0.045 (at node 9)
	maximum = 0.05525 (at node 4)
Accepted flit rate average= 0.0502969
	minimum = 0.0415 (at node 2)
	maximum = 0.056 (at node 14)
Injected packet length average = 1
Accepted packet length average = 1
Total in-flight flits = 18 (18 measured)
latency change    = 0.00496657
throughput change = 0.00217459
Class 0:
Packet latency average = 20.3181
	minimum = 7
	maximum = 66
Network latency average = 20.3181
	minimum = 7
	maximum = 66
Slowest packet = 34496
Flit latency average = 20.3482
	minimum = 7
	maximum = 66
Slowest flit = 34496
Fragmentation average = 0
	minimum = 0
	maximum = 0
Injected packet rate average = 0.05085
	minimum = 0.0456 (at node 9)
	maximum = 0.0582 (at node 4)
Accepted packet rate average = 0.0508375
	minimum = 0.0424 (at node 2)
	maximum = 0.059 (at node 14)
Injected flit rate average = 0.05085
	minimum = 0.0456 (at node 9)
	maximum = 0.0582 (at node 4)
Accepted flit rate average= 0.0508375
	minimum = 0.0424 (at node 2)
	maximum = 0.059 (at node 14)
Injected packet length average = 1
Accepted packet length average = 1
Total in-flight flits = 19 (19 measured)
latency change    = 0.0065308
throughput change = 0.0106344
Draining all recorded packets ...
Draining remaining packets ...
Time taken is 8056 cycles
Class 0:
Packet latency average = 20.5139
	minimum = 7
	maximum = 72
Network latency average = 20.5139
	minimum = 7
	maximum = 72
Slowest packet = 38278
Flit latency average = 20.5139
	minimum = 7
	maximum = 72
Slowest flit = 38278
Fragmentation average = 0
	minimum = 0
	maximum = 0
Injected packet rate average = 0.0509375
	minimum = 0.041 (at node 13)
	maximum = 0.062 (at node 9)
Accepted packet rate average = 0.049625
	minimum = 0.034 (at node 5)
	maximum = 0.062 (at node 3)
Injected flit rate average = 0.0509375
	minimum = 0.041 (at node 13)
	maximum = 0.062 (at node 9)
Accepted flit rate average= 0.049625
	minimum = 0.034 (at node 5)
	maximum = 0.062 (at node 3)
Injected packet length average = 1
Accepted packet length average = 1
Total in-flight flits = 21 (0 measured)
latency change    = 1
throughput change = 1
Class 0:
Packet latency average = 20.5686
	minimum = 7
	maximum = 72
Network latency average = 20.5686
	minimum = 7
	maximum = 72
Slowest packet = 38278
Flit latency average = 20.5686
	minimum = 7
	maximum = 72
Slowest flit = 38278
Fragmentation average = 0
	minimum = 0
	maximum = 0
Injected packet rate average = 0.0505
	minimum = 0.044 (at node 13)
	maximum = 0.0555 (at node 6)
Accepted packet rate average = 0.0499062
	minimum = 0.04 (at node 5)
	maximum = 0.056 (at node 4)
Injected flit rate average = 0.0505
	minimum = 0.044 (at node 13)
	maximum = 0.0555 (at node 6)
Accepted flit rate average= 0.0499062
	minimum = 0.04 (at node 5)
	maximum = 0.056 (at node 4)
Injected packet length average = 1
Accepted packet length average = 1
Total in-flight flits = 19 (0 measured)
latency change    = 0.00265999
throughput change = 0.00563557
Class 0:
Packet latency average = 20.5578
	minimum = 7
	maximum = 51
Network latency average = 20.5578
	minimum = 7
	maximum = 51
Slowest packet = 39872
Flit latency average = 20.5578
	minimum = 7
	maximum = 51
Slowest flit = 39872
Fragmentation average = 0
	minimum = 0
	maximum = 0
Injected packet rate average = 0.0516875
	minimum = 0.035 (at node 9)
	maximum = 0.061 (at node 2)
Accepted packet rate average = 0.051875
	minimum = 0.039 (at node 7)
	maximum = 0.062 (at node 10)
Injected flit rate average = 0.0516875
	minimum = 0.035 (at node 9)
	maximum = 0.061 (at node 2)
Accepted flit rate average= 0.051875
	minimum = 0.039 (at node 7)
	maximum = 0.062 (at node 10)
Injected packet length average = 1
Accepted packet length average = 1
Total in-flight flits = 16 (0 measured)
latency change    = 0.000522173
throughput change = 0.0379518
Warmed up ...Time used is 3000 cycles
Class 0:
Packet latency average = 20.2997
	minimum = 7
	maximum = 53
Network latency average = 20.2997
	minimum = 7
	maximum = 53
Slowest packet = 40592
Flit latency average = 20.4307
	minimum = 7
	maximum = 53
Slowest flit = 40592
Fragmentation average = 0
	minimum = 0
	maximum = 0
Injected packet rate average = 0.0470625
	minimum = 0.036 (at node 1)
	maximum = 0.064 (at node 13)
Accepted packet rate average = 0.046875
	minimum = 0.04 (at node 13)
	maximum = 0.058 (at node 10)
Injected flit rate average = 0.0470625
	minimum = 0.036 (at node 1)
	maximum = 0.064 (at node 13)
Accepted flit rate average= 0.046875
	minimum = 0.04 (at node 13)
	maximum = 0.058 (at node 10)
Injected packet length average = 1
Accepted packet length average = 1
Total in-flight flits = 19 (19 measured)
latency change    = 0.0127146
throughput change = 0.106667
Class 0:
Packet latency average = 20.3563
	minimum = 7
	maximum = 58
Network latency average = 20.3563
	minimum = 7
	maximum = 58
Slowest packet = 40966
Flit latency average = 20.4182
	minimum = 7
	maximum = 58
Slowest flit = 40966
Fragmentation average = 0
	minimum = 0
	maximum = 0
Injected packet rate average = 0.0491875
	minimum = 0.0395 (at node 8)
	maximum = 0.0585 (at node 6)
Accepted packet rate average = 0.0490937
	minimum = 0.044 (at node 14)
	maximum = 0.057 (at node 10)
Injected flit rate average = 0.0491875
	minimum = 0.0395 (at node 8)
	maximum = 0.0585 (at node 6)
Accepted flit rate average= 0.0490937
	minimum = 0.044 (at node 14)
	maximum = 0.057 (at node 10)
Injected packet length average = 1
Accepted packet length average = 1
Total in-flight flits = 19 (19 measured)
latency change    = 0.00277765
throughput change = 0.0451941
Class 0:
Packet latency average = 20.3188
	minimum = 7
	maximum = 58
Network latency average = 20.3188
	minimum = 7
	maximum = 58
Slowest packet = 40966
Flit latency average = 20.3603
	minimum = 7
	maximum = 58
Slowest flit = 40966
Fragmentation average = 0
	minimum = 0
	maximum = 0
Injected packet rate average = 0.0493333
	minimum = 0.0433333 (at node 7)
	maximum = 0.0553333 (at node 6)
Accepted packet rate average = 0.0492083
	minimum = 0.0416667 (at node 8)
	maximum = 0.0566667 (at node 3)
Injected flit rate average = 0.0493333
	minimum = 0.0433333 (at node 7)
	maximum = 0.0553333 (at node 6)
Accepted flit rate average= 0.0492083
	minimum = 0.0416667 (at node 8)
	maximum = 0.0566667 (at node 3)
Injected packet length average = 1
Accepted packet length average = 1
Total in-flight flits = 22 (22 measured)
latency change    = 0.00184211
throughput change = 0.00232854
Class 0:
Packet latency average = 20.214
	minimum = 7
	maximum = 58
Network latency average = 20.214
	minimum = 7
	maximum = 58
Slowest packet = 40966
Flit latency average = 20.2458
	minimum = 7
	maximum = 58
Slowest flit = 40966
Fragmentation average = 0
	minimum = 0
	maximum = 0
Injected packet rate average = 0.0488437
	minimum = 0.04475 (at node 14)
	maximum = 0.05625 (at node 13)
Accepted packet rate average = 0.0490156
	minimum = 0.04325 (at node 8)
	maximum = 0.05525 (at node 6)
Injected flit rate average = 0.0488437
	minimum = 0.04475 (at node 14)
	maximum = 0.05625 (at node 13)
Accepted flit rate average= 0.0490156
	minimum = 0.04325 (at node 8)
	maximum = 0.05525 (at node 6)
Injected packet length average = 1
Accepted packet length average = 1
Total in-flight flits = 5 (5 measured)
latency change    = 0.00518484
throughput change = 0.00393157
Draining all recorded packets ...
Draining remaining packets ...
Time taken is 7055 cycles
Class 0:
Packet latency average = 20.2383
	minimum = 7
	maximum = 57
Network latency average = 20.2383
	minimum = 7
	maximum = 57
Slowest packet = 43790
Flit latency average = 20.2383
	minimum = 7
	maximum = 57
Slowest flit = 43790
Fragmentation average = 0
	minimum = 0
	maximum = 0
Injected packet rate average = 0.048875
	minimum = 0.037 (at node 7)
	maximum = 0.064 (at node 1)
Accepted packet rate average = 0.04825
	minimum = 0.034 (at node 2)
	maximum = 0.06 (at node 0)
Injected flit rate average = 0.048875
	minimum = 0.037 (at node 7)
	maximum = 0.064 (at node 1)
Accepted flit rate average= 0.04825
	minimum = 0.034 (at node 2)
	maximum = 0.06 (at node 0)
Injected packet length average = 1
Accepted packet length average = 1
Total in-flight flits = 10 (0 measured)
latency change    = 1
throughput change = 1
Class 0:
Packet latency average = 20.6122
	minimum = 7
	maximum = 67
Network latency average = 20.6122
	minimum = 7
	maximum = 67
Slowest packet = 44267
Flit latency average = 20.6122
	minimum = 7
	maximum = 67
Slowest flit = 44267
Fragmentation average = 0
	minimum = 0
	maximum = 0
Injected packet rate average = 0.0497187
	minimum = 0.04 (at node 7)
	maximum = 0.0625 (at node 1)
Accepted packet rate average = 0.0493125
	minimum = 0.0435 (at node 7)
	maximum = 0.0605 (at node 1)
Injected flit rate average = 0.0497187
	minimum = 0.04 (at node 7)
	maximum = 0.0625 (at node 1)
Accepted flit rate average= 0.0493125
	minimum = 0.0435 (at node 7)
	maximum = 0.0605 (at node 1)
Injected packet length average = 1
Accepted packet length average = 1
Total in-flight flits = 13 (0 measured)
latency change    = 0.0181361
throughput change = 0.0215463
Class 0:
Packet latency average = 20.6856
	minimum = 7
	maximum = 55
Network latency average = 20.6844
	minimum = 7
	maximum = 55
Slowest packet = 44978
Flit latency average = 20.6844
	minimum = 7
	maximum = 55
Slowest flit = 44978
Fragmentation average = 0
	minimum = 0
	maximum = 0
Injected packet rate average = 0.0518125
	minimum = 0.032 (at node 13)
	maximum = 0.068 (at node 0)
Accepted packet rate average = 0.0516875
	minimum = 0.042 (at node 2)
	maximum = 0.069 (at node 5)
Injected flit rate average = 0.0518125
	minimum = 0.032 (at node 13)
	maximum = 0.068 (at node 0)
Accepted flit rate average= 0.0516875
	minimum = 0.042 (at node 2)
	maximum = 0.069 (at node 5)
Injected packet length average = 1
Accepted packet length average = 1
Total in-flight flits = 15 (0 measured)
latency change    = 0.00355046
throughput change = 0.0459492
Warmed up ...Time used is 3000 cycles
Class 0:
Packet latency average = 20.0297
	minimum = 7
	maximum = 51
Network latency average = 20.0297
	minimum = 7
	maximum = 51
Slowest packet = 46490
Flit latency average = 20.0899
	minimum = 7
	maximum = 51
Slowest flit = 46490
Fragmentation average = 0
	minimum = 0
	maximum = 0
Injected packet rate average = 0.0515625
	minimum = 0.041 (at node 7)
	maximum = 0.064 (at node 10)
Accepted packet rate average = 0.0514375
	minimum = 0.034 (at node 4)
	maximum = 0.074 (at node 0)
Injected flit rate average = 0.0515625
	minimum = 0.041 (at node 7)
	maximum = 0.064 (at node 10)
Accepted flit rate average= 0.0514375
	minimum = 0.034 (at node 4)
	maximum = 0.074 (at node 0)
Injected packet length average = 1
Accepted packet length average = 1
Total in-flight flits = 17 (17 measured)
latency change    = 0.0327467
throughput change = 0.00486027
Class 0:
Packet latency average = 20.3433
	minimum = 7
	maximum = 53
Network latency average = 20.3421
	minimum = 7
	maximum = 53
Slowest packet = 46946
Flit latency average = 20.3682
	minimum = 7
	maximum = 53
Slowest flit = 46946
Fragmentation average = 0
	minimum = 0
	maximum = 0
Injected packet rate average = 0.0538125
	minimum = 0.0435 (at node 5)
	maximum = 0.0635 (at node 10)
Accepted packet rate average = 0.0537188
	minimum = 0.043 (at node 3)
	maximum = 0.0705 (at node 0)
Injected flit rate average = 0.0538125
	minimum = 0.0435 (at node 5)
	maximum = 0.0635 (at node 10)
Accepted flit rate average= 0.0537188
	minimum = 0.043 (at node 3)
	maximum = 0.0705 (at node 0)
Injected packet length average = 1
Accepted packet length average = 1
Total in-flight flits = 18 (18 measured)
latency change    = 0.0154157
throughput change = 0.0424666
Class 0:
Packet latency average = 20.2274
	minimum = 7
	maximum = 53
Network latency average = 20.2262
	minimum = 7
	maximum = 53
Slowest packet = 46946
Flit latency average = 20.2448
	minimum = 7
	maximum = 53
Slowest flit = 46946
Fragmentation average = 0
	minimum = 0
	maximum = 0
Injected packet rate average = 0.0520833
	minimum = 0.043 (at node 5)
	maximum = 0.0596667 (at node 0)
Accepted packet rate average = 0.0521667
	minimum = 0.0416667 (at node 3)
	maximum = 0.0623333 (at node 0)
Injected flit rate average = 0.0520833
	minimum = 0.043 (at node 5)
	maximum = 0.0596667 (at node 0)
Accepted flit rate average= 0.0521667
	minimum = 0.0416667 (at node 3)
	maximum = 0.0623333 (at node 0)
Injected packet length average = 1
Accepted packet length average = 1
Total in-flight flits = 11 (11 measured)
latency change    = 0.00573031
throughput change = 0.0297524
Draining all recorded packets ...
Draining remaining packets ...
Time taken is 6059 cycles
Class 0:
Packet latency average = 20.5125
	minimum = 7
	maximum = 53
Network latency average = 20.5125
	minimum = 7
	maximum = 53
Slowest packet = 48937
Flit latency average = 20.5125
	minimum = 7
	maximum = 53
Slowest flit = 48937
Fragmentation average = 0
	minimum = 0
	maximum = 0
Injected packet rate average = 0.050875
	minimum = 0.037 (at node 14)
	maximum = 0.066 (at node 11)
Accepted packet rate average = 0.050125
	minimum = 0.041 (at node 6)
	maximum = 0.065 (at node 15)
Injected flit rate average = 0.050875
	minimum = 0.037 (at node 14)
	maximum = 0.066 (at node 11)
Accepted flit rate average= 0.050125
	minimum = 0.041 (at node 6)
	maximum = 0.065 (at node 15)
Injected packet length average = 1
Accepted packet length average = 1
Total in-flight flits = 12 (0 measured)
latency change    = 1
throughput change = 1
Class 0:
Packet latency average = 20.4322
	minimum = 7
	maximum = 53
Network latency average = 20.4322
	minimum = 7
	maximum = 53
Slowest packet = 48937
Flit latency average = 20.4322
	minimum = 7
	maximum = 53
Slowest flit = 48937
Fragmentation average = 0
	minimum = 0
	maximum = 0
Injected packet rate average = 0.049375
	minimum = 0.043 (at node 14)
	maximum = 0.0595 (at node 13)
Accepted packet rate average = 0.048875
	minimum = 0.0405 (at node 8)
	maximum = 0.058 (at node 14)
Injected flit rate average = 0.049375
	minimum = 0.043 (at node 14)
	maximum = 0.0595 (at node 13)
Accepted flit rate average= 0.048875
	minimum = 0.0405 (at node 8)
	maximum = 0.058 (at node 14)
Injected packet length average = 1
Accepted packet length average = 1
Total in-flight flits = 16 (0 measured)
latency change    = 0.00392731
throughput change = 0.0255754
Class 0:
Packet latency average = 20.1179
	minimum = 7
	maximum = 56
Network latency average = 20.1179
	minimum = 7
	maximum = 56
Slowest packet = 49800
Flit latency average = 20.1179
	minimum = 7
	maximum = 56
Slowest flit = 49800
Fragmentation average = 0
	minimum = 0
	maximum = 0
Injected packet rate average = 0.0473125
	minimum = 0.032 (at node 11)
	maximum = 0.058 (at node 2)
Accepted packet rate average = 0.0471875
	minimum = 0.034 (at node 12)
	maximum = 0.057 (at node 9)
Injected flit rate average = 0.0473125
	minimum = 0.032 (at node 11)
	maximum = 0.058 (at node 2)
Accepted flit rate average= 0.0471875
	minimum = 0.034 (at node 12)
	maximum = 0.057 (at node 9)
Injected packet length average = 1
Accepted packet length average = 1
Total in-flight flits = 18 (0 measured)
latency change    = 0.0156251
throughput change = 0.0357616
Warmed up ...Time used is 3000 cycles
Class 0:
Packet latency average = 20.3516
	minimum = 7
	maximum = 54
Network latency average = 20.3516
	minimum = 7
	maximum = 54
Slowest packet = 50906
Flit latency average = 20.4432
	minimum = 7
	maximum = 54
Slowest flit = 50906
Fragmentation average = 0
	minimum = 0
	maximum = 0
Injected packet rate average = 0.0485625
	minimum = 0.035 (at node 12)
	maximum = 0.064 (at node 6)
Accepted packet rate average = 0.0489375
	minimum = 0.038 (at node 12)
	maximum = 0.066 (at node 14)
Injected flit rate average = 0.0485625
	minimum = 0.035 (at node 12)
	maximum = 0.064 (at node 6)
Accepted flit rate average= 0.0489375
	minimum = 0.038 (at node 12)
	maximum = 0.066 (at node 14)
Injected packet length average = 1
Accepted packet length average = 1
Total in-flight flits = 12 (12 measured)
latency change    = 0.0114857
throughput change = 0.0357599
Class 0:
Packet latency average = 20.381
	minimum = 7
	maximum = 67
Network latency average = 20.381
	minimum = 7
	maximum = 67
Slowest packet = 51613
Flit latency average = 20.4261
	minimum = 7
	maximum = 67
Slowest flit = 51613
Fragmentation average = 0
	minimum = 0
	maximum = 0
Injected packet rate average = 0.0493125
	minimum = 0.0405 (at node 12)
	maximum = 0.058 (at node 11)
Accepted packet rate average = 0.0492812
	minimum = 0.0415 (at node 1)
	maximum = 0.0585 (at node 10)
Injected flit rate average = 0.0493125
	minimum = 0.0405 (at node 12)
	maximum = 0.058 (at node 11)
Accepted flit rate average= 0.0492812
	minimum = 0.0415 (at node 1)
	maximum = 0.0585 (at node 10)
Injected packet length average = 1
Accepted packet length average = 1
Total in-flight flits = 19 (19 measured)
latency change    = 0.00144151
throughput change = 0.00697527
Class 0:
Packet latency average = 20.5569
	minimum = 7
	maximum = 67
Network latency average = 20.5569
	minimum = 7
	maximum = 67
Slowest packet = 51613
Flit latency average = 20.586
	minimum = 7
	maximum = 67
Slowest flit = 51613
Fragmentation average = 0
	minimum = 0
	maximum = 0
Injected packet rate average = 0.0486875
	minimum = 0.0433333 (at node 3)
	maximum = 0.0553333 (at node 8)
Accepted packet rate average = 0.0486667
	minimum = 0.042 (at node 1)
	maximum = 0.0593333 (at node 10)
Injected flit rate average = 0.0486875
	minimum = 0.0433333 (at node 3)
	maximum = 0.0553333 (at node 8)
Accepted flit rate average= 0.0486667
	minimum = 0.042 (at node 1)
	maximum = 0.0593333 (at node 10)
Injected packet length average = 1
Accepted packet length average = 1
Total in-flight flits = 19 (19 measured)
latency change    = 0.00855828
throughput change = 0.0126284
Draining all recorded packets ...
Draining remaining packets ...
Time taken is 6082 cycles
Class 0:
Packet latency average = 20.3151
	minimum = 7
	maximum = 81
Network latency average = 20.3151
	minimum = 7
	maximum = 81
Slowest packet = 53057
Flit latency average = 20.3151
	minimum = 7
	maximum = 81
Slowest flit = 53057
Fragmentation average = 0
	minimum = 0
	maximum = 0
Injected packet rate average = 0.05125
	minimum = 0.044 (at node 4)
	maximum = 0.063 (at node 14)
Accepted packet rate average = 0.0501875
	minimum = 0.03 (at node 12)
	maximum = 0.064 (at node 13)
Injected flit rate average = 0.05125
	minimum = 0.044 (at node 4)
	maximum = 0.063 (at node 14)
Accepted flit rate average= 0.0501875
	minimum = 0.03 (at node 12)
	maximum = 0.064 (at node 13)
Injected packet length average = 1
Accepted packet length average = 1
Total in-flight flits = 17 (0 measured)
latency change    = 1
throughput change = 1
Class 0:
Packet latency average = 20.5553
	minimum = 7
	maximum = 81
Network latency average = 20.5553
	minimum = 7
	maximum = 81
Slowest packet = 53057
Flit latency average = 20.5553
	minimum = 7
	maximum = 81
Slowest flit = 53057
Fragmentation average = 0
	minimum = 0
	maximum = 0
Injected packet rate average = 0.0492812
	minimum = 0.041 (at node 9)
	maximum = 0.0565 (at node 1)
Accepted packet rate average = 0.0489062
	minimum = 0.038 (at node 12)
	maximum = 0.059 (at node 13)
Injected flit rate average = 0.0492812
	minimum = 0.041 (at node 9)
	maximum = 0.0565 (at node 1)
Accepted flit rate average= 0.0489062
	minimum = 0.038 (at node 12)
	maximum = 0.059 (at node 13)
Injected packet length average = 1
Accepted packet length average = 1
Total in-flight flits = 12 (0 measured)
latency change    = 0.0116857
throughput change = 0.0261981
Class 0:
Packet latency average = 20.6362
	minimum = 7
	maximum = 60
Network latency average = 20.6362
	minimum = 7
	maximum = 60
Slowest packet = 55124
Flit latency average = 20.6362
	minimum = 7
	maximum = 60
Slowest flit = 55124
Fragmentation average = 0
	minimum = 0
	maximum = 0
Injected packet rate average = 0.049625
	minimum = 0.037 (at node 3)
	maximum = 0.059 (at node 15)
Accepted packet rate average = 0.0493125
	minimum = 0.033 (at node 8)
	maximum = 0.064 (at node 5)
Injected flit rate average = 0.049625
	minimum = 0.037 (at node 3)
	maximum = 0.059 (at node 15)
Accepted flit rate average= 0.0493125
	minimum = 0.033 (at node 8)
	maximum = 0.064 (at node 5)
Injected packet length average = 1
Accepted packet length average = 1
Total in-flight flits = 17 (0 measured)
latency change    = 0.00392401
throughput change = 0.00823828
Warmed up ...Time used is 3000 cycles
Class 0:
Packet latency average = 20.3867
	minimum = 7
	maximum = 60
Network latency average = 20.3867
	minimum = 7
	maximum = 60
Slowest packet = 55991
Flit latency average = 20.4461
	minimum = 7
	maximum = 60
Slowest flit = 55991
Fragmentation average = 0
	minimum = 0
	maximum = 0
Injected packet rate average = 0.0494375
	minimum = 0.04 (at node 12)
	maximum = 0.057 (at node 10)
Accepted packet rate average = 0.049875
	minimum = 0.036 (at node 13)
	maximum = 0.069 (at node 14)
Injected flit rate average = 0.0494375
	minimum = 0.04 (at node 12)
	maximum = 0.057 (at node 10)
Accepted flit rate average= 0.049875
	minimum = 0.036 (at node 13)
	maximum = 0.069 (at node 14)
Injected packet length average = 1
Accepted packet length average = 1
Total in-flight flits = 10 (10 measured)
latency change    = 0.0122416
throughput change = 0.0112782
Class 0:
Packet latency average = 20.4245
	minimum = 7
	maximum = 62
Network latency average = 20.4245
	minimum = 7
	maximum = 62
Slowest packet = 56255
Flit latency average = 20.454
	minimum = 7
	maximum = 62
Slowest flit = 56255
Fragmentation average = 0
	minimum = 0
	maximum = 0
Injected packet rate average = 0.049625
	minimum = 0.046 (at node 6)
	maximum = 0.0575 (at node 0)
Accepted packet rate average = 0.0495625
	minimum = 0.0395 (at node 12)
	maximum = 0.062 (at node 14)
Injected flit rate average = 0.049625
	minimum = 0.046 (at node 6)
	maximum = 0.0575 (at node 0)
Accepted flit rate average= 0.0495625
	minimum = 0.0395 (at node 12)
	maximum = 0.062 (at node 14)
Injected packet length average = 1
Accepted packet length average = 1
Total in-flight flits = 19 (19 measured)
latency change    = 0.00185025
throughput change = 0.00630517
Class 0:
Packet latency average = 20.5689
	minimum = 7
	maximum = 62
Network latency average = 20.5689
	minimum = 7
	maximum = 62
Slowest packet = 56255
Flit latency average = 20.5876
	minimum = 7
	maximum = 62
Slowest flit = 56255
Fragmentation average = 0
	minimum = 0
	maximum = 0
Injected packet rate average = 0.04925
	minimum = 0.046 (at node 3)
	maximum = 0.0603333 (at node 0)
Accepted packet rate average = 0.0492083
	minimum = 0.0426667 (at node 12)
	maximum = 0.058 (at node 14)
Injected flit rate average = 0.04925
	minimum = 0.046 (at node 3)
	maximum = 0.0603333 (at node 0)
Accepted flit rate average= 0.0492083
	minimum = 0.0426667 (at node 12)
	maximum = 0.058 (at node 14)
Injected packet length average = 1
Accepted packet length average = 1
Total in-flight flits = 19 (19 measured)
latency change    = 0.00702011
throughput change = 0.00719729
Draining all recorded packets ...
Draining remaining packets ...
Time taken is 6081 cycles
Class 0:
Packet latency average = 20.4003
	minimum = 7
	maximum = 57
Network latency average = 20.4003
	minimum = 7
	maximum = 57
Slowest packet = 58368
Flit latency average = 20.4003
	minimum = 7
	maximum = 57
Slowest flit = 58368
Fragmentation average = 0
	minimum = 0
	maximum = 0
Injected packet rate average = 0.04875
	minimum = 0.037 (at node 1)
	maximum = 0.068 (at node 13)
Accepted packet rate average = 0.047625
	minimum = 0.036 (at node 6)
	maximum = 0.06 (at node 9)
Injected flit rate average = 0.04875
	minimum = 0.037 (at node 1)
	maximum = 0.068 (at node 13)
Accepted flit rate average= 0.047625
	minimum = 0.036 (at node 6)
	maximum = 0.06 (at node 9)
Injected packet length average = 1
Accepted packet length average = 1
Total in-flight flits = 18 (0 measured)
latency change    = 1
throughput change = 1
Class 0:
Packet latency average = 20.6671
	minimum = 7
	maximum = 61
Network latency average = 20.6671
	minimum = 7
	maximum = 61
Slowest packet = 58677
Flit latency average = 20.6671
	minimum = 7
	maximum = 61
Slowest flit = 58677
Fragmentation average = 0
	minimum = 0
	maximum = 0
Injected packet rate average = 0.0499687
	minimum = 0.0425 (at node 5)
	maximum = 0.059 (at node 3)
Accepted packet rate average = 0.0494687
	minimum = 0.042 (at node 6)
	maximum = 0.0565 (at node 4)
Injected flit rate average = 0.0499687
	minimum = 0.0425 (at node 5)
	maximum = 0.059 (at node 3)
Accepted flit rate average= 0.0494687
	minimum = 0.042 (at node 6)
	maximum = 0.0565 (at node 4)
Injected packet length average = 1
Accepted packet length average = 1
Total in-flight flits = 16 (0 measured)
latency change    = 0.0129106
throughput change = 0.037271
Class 0:
Packet latency average = 20.55
	minimum = 7
	maximum = 76
Network latency average = 20.55
	minimum = 7
	maximum = 76
Slowest packet = 59396
Flit latency average = 20.55
	minimum = 7
	maximum = 76
Slowest flit = 59396
Fragmentation average = 0
	minimum = 0
	maximum = 0
Injected packet rate average = 0.0490625
	minimum = 0.036 (at node 4)
	maximum = 0.064 (at node 5)
Accepted packet rate average = 0.04875
	minimum = 0.033 (at node 5)
	maximum = 0.061 (at node 3)
Injected flit rate average = 0.0490625
	minimum = 0.036 (at node 4)
	maximum = 0.064 (at node 5)
Accepted flit rate average= 0.04875
	minimum = 0.033 (at node 5)
	maximum = 0.061 (at node 3)
Injected packet length average = 1
Accepted packet length average = 1
Total in-flight flits = 21 (0 measured)
latency change    = 0.0056977
throughput change = 0.0147436
Warmed up ...Time used is 3000 cycles
Class 0:
Packet latency average = 20.698
	minimum = 7
	maximum = 56
Network latency average = 20.698
	minimum = 7
	maximum = 56
Slowest packet = 60734
Flit latency average = 20.8449
	minimum = 7
	maximum = 56
Slowest flit = 60734
Fragmentation average = 0
	minimum = 0
	maximum = 0
Injected packet rate average = 0.050875
	minimum = 0.038 (at node 8)
	maximum = 0.06 (at node 6)
Accepted packet rate average = 0.0511875
	minimum = 0.04 (at node 0)
	maximum = 0.063 (at node 8)
Injected flit rate average = 0.050875
	minimum = 0.038 (at node 8)
	maximum = 0.06 (at node 6)
Accepted flit rate average= 0.0511875
	minimum = 0.04 (at node 0)
	maximum = 0.063 (at node 8)
Injected packet length average = 1
Accepted packet length average = 1
Total in-flight flits = 16 (16 measured)
latency change    = 0.00715021
throughput change = 0.047619
Class 0:
Packet latency average = 20.5069
	minimum = 7
	maximum = 57
Network latency average = 20.5069
	minimum = 7
	maximum = 57
Slowest packet = 61008
Flit latency average = 20.5834
	minimum = 7
	maximum = 57
Slowest flit = 61008
Fragmentation average = 0
	minimum = 0
	maximum = 0
Injected packet rate average = 0.0508438
	minimum = 0.0435 (at node 7)
	maximum = 0.0585 (at node 14)
Accepted packet rate average = 0.0507812
	minimum = 0.0395 (at node 1)
	maximum = 0.0605 (at node 10)
Injected flit rate average = 0.0508438
	minimum = 0.0435 (at node 7)
	maximum = 0.0585 (at node 14)
Accepted flit rate average= 0.0507812
	minimum = 0.0395 (at node 1)
	maximum = 0.0605 (at node 10)
Injected packet length average = 1
Accepted packet length average = 1
Total in-flight flits = 23 (23 measured)
latency change    = 0.00932064
throughput change = 0.008
Class 0:
Packet latency average = 20.6476
	minimum = 7
	maximum = 57
Network latency average = 20.6476
	minimum = 7
	maximum = 57
Slowest packet = 61008
Flit latency average = 20.6968
	minimum = 7
	maximum = 57
Slowest flit = 61008
Fragmentation average = 0
	minimum = 0
	maximum = 0
Injected packet rate average = 0.0512917
	minimum = 0.0443333 (at node 8)
	maximum = 0.0586667 (at node 1)
Accepted packet rate average = 0.0514583
	minimum = 0.041 (at node 1)
	maximum = 0.0583333 (at node 5)
Injected flit rate average = 0.0512917
	minimum = 0.0443333 (at node 8)
	maximum = 0.0586667 (at node 1)
Accepted flit rate average= 0.0514583
	minimum = 0.041 (at node 1)
	maximum = 0.0583333 (at node 5)
Injected packet length average = 1
Accepted packet length average = 1
Total in-flight flits = 13 (13 measured)
latency change    = 0.00681693
throughput change = 0.0131579
Draining all recorded packets ...
Draining remaining packets ...
Time taken is 6065 cycles
Class 0:
Packet latency average = 19.994
	minimum = 7
	maximum = 55
Network latency average = 19.994
	minimum = 7
	maximum = 55
Slowest packet = 63356
Flit latency average = 19.994
	minimum = 7
	maximum = 55
Slowest flit = 63356
Fragmentation average = 0
	minimum = 0
	maximum = 0
Injected packet rate average = 0.053
	minimum = 0.041 (at node 13)
	maximum = 0.065 (at node 8)
Accepted packet rate average = 0.051875
	minimum = 0.038 (at node 13)
	maximum = 0.067 (at node 10)
Injected flit rate average = 0.053
	minimum = 0.041 (at node 13)
	maximum = 0.065 (at node 8)
Accepted flit rate average= 0.051875
	minimum = 0.038 (at node 13)
	maximum = 0.067 (at node 10)
Injected packet length average = 1
Accepted packet length average = 1
Total in-flight flits = 18 (0 measured)
latency change    = 1
throughput change = 1
Class 0:
Packet latency average = 20.1998
	minimum = 7
	maximum = 57
Network latency average = 20.1998
	minimum = 7
	maximum = 57
Slowest packet = 63674
Flit latency average = 20.1998
	minimum = 7
	maximum = 57
Slowest flit = 63674
Fragmentation average = 0
	minimum = 0
	maximum = 0
Injected packet rate average = 0.0523125
	minimum = 0.0385 (at node 13)
	maximum = 0.063 (at node 11)
Accepted packet rate average = 0.0517813
	minimum = 0.037 (at node 13)
	maximum = 0.06 (at node 10)
Injected flit rate average = 0.0523125
	minimum = 0.0385 (at node 13)
	maximum = 0.063 (at node 11)
Accepted flit rate average= 0.0517813
	minimum = 0.037 (at node 13)
	maximum = 0.06 (at node 10)
Injected packet length average = 1
Accepted packet length average = 1
Total in-flight flits = 17 (0 measured)
latency change    = 0.0101874
throughput change = 0.0018105
Class 0:
Packet latency average = 20.3313
	minimum = 7
	maximum = 47
Network latency average = 20.3313
	minimum = 7
	maximum = 47
Slowest packet = 64495
Flit latency average = 20.3313
	minimum = 7
	maximum = 47
Slowest flit = 64495
Fragmentation average = 0
	minimum = 0
	maximum = 0
Injected packet rate average = 0.0523125
	minimum = 0.038 (at node 6)
	maximum = 0.063 (at node 1)
Accepted packet rate average = 0.05225
	minimum = 0.043 (at node 2)
	maximum = 0.069 (at node 5)
Injected flit rate average = 0.0523125
	minimum = 0.038 (at node 6)
	maximum = 0.063 (at node 1)
Accepted flit rate average= 0.05225
	minimum = 0.043 (at node 2)
	maximum = 0.069 (at node 5)
Injected packet length average = 1
Accepted packet length average = 1
Total in-flight flits = 18 (0 measured)
latency change    = 0.00647184
throughput change = 0.00897129
Warmed up ...Time used is 3000 cycles
Class 0:
Packet latency average = 20.7638
	minimum = 7
	maximum = 56
Network latency average = 20.7638
	minimum = 7
	maximum = 56
Slowest packet = 65360
Flit latency average = 20.7973
	minimum = 7
	maximum = 56
Slowest flit = 65360
Fragmentation average = 0
	minimum = 0
	maximum = 0
Injected packet rate average = 0.0505625
	minimum = 0.04 (at node 9)
	maximum = 0.065 (at node 1)
Accepted packet rate average = 0.050875
	minimum = 0.04 (at node 6)
	maximum = 0.066 (at node 7)
Injected flit rate average = 0.0505625
	minimum = 0.04 (at node 9)
	maximum = 0.065 (at node 1)
Accepted flit rate average= 0.050875
	minimum = 0.04 (at node 6)
	maximum = 0.066 (at node 7)
Injected packet length average = 1
Accepted packet length average = 1
Total in-flight flits = 13 (13 measured)
latency change    = 0.0208285
throughput change = 0.027027
Class 0:
Packet latency average = 20.6198
	minimum = 7
	maximum = 65
Network latency average = 20.6198
	minimum = 7
	maximum = 65
Slowest packet = 66041
Flit latency average = 20.6382
	minimum = 7
	maximum = 65
Slowest flit = 66041
Fragmentation average = 0
	minimum = 0
	maximum = 0
Injected packet rate average = 0.0504375
	minimum = 0.042 (at node 3)
	maximum = 0.0655 (at node 5)
Accepted packet rate average = 0.0505312
	minimum = 0.041 (at node 6)
	maximum = 0.0615 (at node 5)
Injected flit rate average = 0.0504375
	minimum = 0.042 (at node 3)
	maximum = 0.0655 (at node 5)
Accepted flit rate average= 0.0505312
	minimum = 0.041 (at node 6)
	maximum = 0.0615 (at node 5)
Injected packet length average = 1
Accepted packet length average = 1
Total in-flight flits = 15 (15 measured)
latency change    = 0.00698634
throughput change = 0.00680272
Class 0:
Packet latency average = 20.5649
	minimum = 7
	maximum = 65
Network latency average = 20.5649
	minimum = 7
	maximum = 65
Slowest packet = 66041
Flit latency average = 20.5778
	minimum = 7
	maximum = 65
Slowest flit = 66041
Fragmentation average = 0
	minimum = 0
	maximum = 0
Injected packet rate average = 0.0495417
	minimum = 0.0433333 (at node 9)
	maximum = 0.0596667 (at node 5)
Accepted packet rate average = 0.0497917
	minimum = 0.042 (at node 12)
	maximum = 0.0566667 (at node 7)
Injected flit rate average = 0.0495417
	minimum = 0.0433333 (at node 9)
	maximum = 0.0596667 (at node 5)
Accepted flit rate average= 0.0497917
	minimum = 0.042 (at node 12)
	maximum = 0.0566667 (at node 7)
Injected packet length average = 1
Accepted packet length average = 1
Total in-flight flits = 6 (6 measured)
latency change    = 0.00266659
throughput change = 0.0148536
Draining all recorded packets ...
Draining remaining packets ...
Time taken is 6049 cycles
Class 0:
Packet latency average = 20.546
	minimum = 7
	maximum = 56
Network latency average = 20.546
	minimum = 7
	maximum = 56
Slowest packet = 67900
Flit latency average = 20.546
	minimum = 7
	maximum = 56
Slowest flit = 67900
Fragmentation average = 0
	minimum = 0
	maximum = 0
Injected packet rate average = 0.049375
	minimum = 0.034 (at node 3)
	maximum = 0.064 (at node 7)
Accepted packet rate average = 0.0481875
	minimum = 0.034 (at node 13)
	maximum = 0.064 (at node 14)
Injected flit rate average = 0.049375
	minimum = 0.034 (at node 3)
	maximum = 0.064 (at node 7)
Accepted flit rate average= 0.0481875
	minimum = 0.034 (at node 13)
	maximum = 0.064 (at node 14)
Injected packet length average = 1
Accepted packet length average = 1
Total in-flight flits = 19 (0 measured)
latency change    = 1
throughput change = 1
Class 0:
Packet latency average = 20.5805
	minimum = 7
	maximum = 56
Network latency average = 20.5805
	minimum = 7
	maximum = 56
Slowest packet = 67900
Flit latency average = 20.5805
	minimum = 7
	maximum = 56
Slowest flit = 67900
Fragmentation average = 0
	minimum = 0
	maximum = 0
Injected packet rate average = 0.0493437
	minimum = 0.04 (at node 3)
	maximum = 0.056 (at node 7)
Accepted packet rate average = 0.0487187
	minimum = 0.041 (at node 9)
	maximum = 0.0595 (at node 14)
Injected flit rate average = 0.0493437
	minimum = 0.04 (at node 3)
	maximum = 0.056 (at node 7)
Accepted flit rate average= 0.0487187
	minimum = 0.041 (at node 9)
	maximum = 0.0595 (at node 14)
Injected packet length average = 1
Accepted packet length average = 1
Total in-flight flits = 20 (0 measured)
latency change    = 0.00167422
throughput change = 0.0109044
Class 0:
Packet latency average = 20.2867
	minimum = 7
	maximum = 61
Network latency average = 20.2867
	minimum = 7
	maximum = 61
Slowest packet = 69627
Flit latency average = 20.2867
	minimum = 7
	maximum = 61
Slowest flit = 69627
Fragmentation average = 0
	minimum = 0
	maximum = 0
Injected packet rate average = 0.052
	minimum = 0.041 (at node 8)
	maximum = 0.061 (at node 11)
Accepted packet rate average = 0.051875
	minimum = 0.043 (at node 0)
	maximum = 0.057 (at node 4)
Injected flit rate average = 0.052
	minimum = 0.041 (at node 8)
	maximum = 0.061 (at node 11)
Accepted flit rate average= 0.051875
	minimum = 0.043 (at node 0)
	maximum = 0.057 (at node 4)
Injected packet length average = 1
Accepted packet length average = 1
Total in-flight flits = 22 (0 measured)
latency change    = 0.0144801
throughput change = 0.0608434
Warmed up ...Time used is 3000 cycles
Class 0:
Packet latency average = 20.6166
	minimum = 7
	maximum = 52
Network latency average = 20.6166
	minimum = 7
	maximum = 52
Slowest packet = 70050
Flit latency average = 20.7286
	minimum = 7
	maximum = 52
Slowest flit = 70050
Fragmentation average = 0
	minimum = 0
	maximum = 0
Injected packet rate average = 0.0500625
	minimum = 0.038 (at node 6)
	maximum = 0.056 (at node 3)
Accepted packet rate average = 0.0504375
	minimum = 0.037 (at node 13)
	maximum = 0.069 (at node 4)
Injected flit rate average = 0.0500625
	minimum = 0.038 (at node 6)
	maximum = 0.056 (at node 3)
Accepted flit rate average= 0.0504375
	minimum = 0.037 (at node 13)
	maximum = 0.069 (at node 4)
Injected packet length average = 1
Accepted packet length average = 1
Total in-flight flits = 16 (16 measured)
latency change    = 0.0159975
throughput change = 0.0285006
Class 0:
Packet latency average = 20.6307
	minimum = 7
	maximum = 54
Network latency average = 20.6307
	minimum = 7
	maximum = 54
Slowest packet = 71186
Flit latency average = 20.6871
	minimum = 7
	maximum = 54
Slowest flit = 71186
Fragmentation average = 0
	minimum = 0
	maximum = 0
Injected packet rate average = 0.0495312
	minimum = 0.041 (at node 6)
	maximum = 0.059 (at node 12)
Accepted packet rate average = 0.0499375
	minimum = 0.0415 (at node 12)
	maximum = 0.062 (at node 4)
Injected flit rate average = 0.0495312
	minimum = 0.041 (at node 6)
	maximum = 0.059 (at node 12)
Accepted flit rate average= 0.0499375
	minimum = 0.0415 (at node 12)
	maximum = 0.062 (at node 4)
Injected packet length average = 1
Accepted packet length average = 1
Total in-flight flits = 9 (9 measured)
latency change    = 0.000685878
throughput change = 0.0100125
Class 0:
Packet latency average = 20.678
	minimum = 7
	maximum = 65
Network latency average = 20.678
	minimum = 7
	maximum = 65
Slowest packet = 71620
Flit latency average = 20.7156
	minimum = 7
	maximum = 65
Slowest flit = 71620
Fragmentation average = 0
	minimum = 0
	maximum = 0
Injected packet rate average = 0.0492917
	minimum = 0.043 (at node 7)
	maximum = 0.0553333 (at node 3)
Accepted packet rate average = 0.049375
	minimum = 0.042 (at node 13)
	maximum = 0.0583333 (at node 3)
Injected flit rate average = 0.0492917
	minimum = 0.043 (at node 7)
	maximum = 0.0553333 (at node 3)
Accepted flit rate average= 0.049375
	minimum = 0.042 (at node 13)
	maximum = 0.0583333 (at node 3)
Injected packet length average = 1
Accepted packet length average = 1
Total in-flight flits = 18 (18 measured)
latency change    = 0.00228809
throughput change = 0.0113924
Draining all recorded packets ...
Draining remaining packets ...
Time taken is 6056 cycles
Class 0:
Packet latency average = 19.9305
	minimum = 7
	maximum = 51
Network latency average = 19.9305
	minimum = 7
	maximum = 51
Slowest packet = 72693
Flit latency average = 19.9305
	minimum = 7
	maximum = 51
Slowest flit = 72693
Fragmentation average = 0
	minimum = 0
	maximum = 0
Injected packet rate average = 0.0510625
	minimum = 0.041 (at node 9)
	maximum = 0.059 (at node 2)
Accepted packet rate average = 0.050375
	minimum = 0.039 (at node 8)
	maximum = 0.068 (at node 5)
Injected flit rate average = 0.0510625
	minimum = 0.041 (at node 9)
	maximum = 0.059 (at node 2)
Accepted flit rate average= 0.050375
	minimum = 0.039 (at node 8)
	maximum = 0.068 (at node 5)
Injected packet length average = 1
Accepted packet length average = 1
Total in-flight flits = 11 (0 measured)
latency change    = 1
throughput change = 1
Class 0:
Packet latency average = 20.287
	minimum = 7
	maximum = 52
Network latency average = 20.287
	minimum = 7
	maximum = 52
Slowest packet = 73584
Flit latency average = 20.287
	minimum = 7
	maximum = 52
Slowest flit = 73584
Fragmentation average = 0
	minimum = 0
	maximum = 0
Injected packet rate average = 0.0501562
	minimum = 0.042 (at node 10)
	maximum = 0.059 (at node 2)
Accepted packet rate average = 0.0496562
[...]
	maximum = 0.061 (at node 12)
Accepted packet rate average = 0.0475
	minimum = 0.035 (at node 10)
	maximum = 0.059 (at node 1)
Injected flit rate average = 0.0475625
	minimum = 0.038 (at node 1)
	maximum = 0.061 (at node 12)
Accepted flit rate average= 0.0475
	minimum = 0.035 (at node 10)
	maximum = 0.059 (at node 1)
Injected packet length average = 1
Accepted packet length average = 1
Total in-flight flits = 16 (16 measured)
latency change    = 0.0367854
throughput change = 0.102632
Class 0:
Packet latency average = 20.288
	minimum = 7
	maximum = 59
Network latency average = 20.288
	minimum = 7
	maximum = 59
Slowest packet = 503332
Flit latency average = 20.2989
	minimum = 7
	maximum = 59
Slowest flit = 503332
Fragmentation average = 0
	minimum = 0
	maximum = 0
Injected packet rate average = 0.0476875
	minimum = 0.0415 (at node 5)
	maximum = 0.0575 (at node 11)
Accepted packet rate average = 0.0477812
	minimum = 0.039 (at node 11)
	maximum = 0.056 (at node 1)
Injected flit rate average = 0.0476875
	minimum = 0.0415 (at node 5)
	maximum = 0.0575 (at node 11)
Accepted flit rate average= 0.0477812
	minimum = 0.039 (at node 11)
	maximum = 0.056 (at node 1)
Injected packet length average = 1
Accepted packet length average = 1
Total in-flight flits = 12 (12 measured)
latency change    = 0.0108203
throughput change = 0.0058862
Class 0:
Packet latency average = 20.2976
	minimum = 7
	maximum = 59
Network latency average = 20.2976
	minimum = 7
	maximum = 59
Slowest packet = 503332
Flit latency average = 20.3048
	minimum = 7
	maximum = 59
Slowest flit = 503332
Fragmentation average = 0
	minimum = 0
	maximum = 0
Injected packet rate average = 0.0480208
	minimum = 0.0413333 (at node 3)
	maximum = 0.0596667 (at node 11)
Accepted packet rate average = 0.0479792
	minimum = 0.0416667 (at node 8)
	maximum = 0.0543333 (at node 0)
Injected flit rate average = 0.0480208
	minimum = 0.0413333 (at node 3)
	maximum = 0.0596667 (at node 11)
Accepted flit rate average= 0.0479792
	minimum = 0.0416667 (at node 8)
	maximum = 0.0543333 (at node 0)
Injected packet length average = 1
Accepted packet length average = 1
Total in-flight flits = 17 (17 measured)
latency change    = 0.000475966
throughput change = 0.00412505
Class 0:
Packet latency average = 20.4213
	minimum = 7
	maximum = 59
Network latency average = 20.4213
	minimum = 7
	maximum = 59
Slowest packet = 503332
Flit latency average = 20.4261
	minimum = 7
	maximum = 59
Slowest flit = 503332
Fragmentation average = 0
	minimum = 0
	maximum = 0
Injected packet rate average = 0.0479375
	minimum = 0.041 (at node 3)
	maximum = 0.0555 (at node 11)
Accepted packet rate average = 0.0480781
	minimum = 0.043 (at node 8)
	maximum = 0.0545 (at node 7)
Injected flit rate average = 0.0479375
	minimum = 0.041 (at node 3)
	maximum = 0.0555 (at node 11)
Accepted flit rate average= 0.0480781
	minimum = 0.043 (at node 8)
	maximum = 0.0545 (at node 7)
Injected packet length average = 1
Accepted packet length average = 1
Total in-flight flits = 6 (6 measured)
latency change    = 0.00605512
throughput change = 0.00205828
Draining all recorded packets ...
Draining remaining packets ...
Time taken is 7059 cycles
Class 0:
Packet latency average = 20.2868
	minimum = 7
	maximum = 66
Network latency average = 20.2868
	minimum = 7
	maximum = 66
Slowest packet = 505878
Flit latency average = 20.2868
	minimum = 7
	maximum = 66
Slowest flit = 505878
Fragmentation average = 0
	minimum = 0
	maximum = 0
Injected packet rate average = 0.050125
	minimum = 0.039 (at node 3)
	maximum = 0.059 (at node 6)
Accepted packet rate average = 0.04925
	minimum = 0.043 (at node 0)
	maximum = 0.056 (at node 13)
Injected flit rate average = 0.050125
	minimum = 0.039 (at node 3)
	maximum = 0.059 (at node 6)
Accepted flit rate average= 0.04925
	minimum = 0.043 (at node 0)
	maximum = 0.056 (at node 13)
Injected packet length average = 1
Accepted packet length average = 1
Total in-flight flits = 14 (0 measured)
latency change    = 1
throughput change = 1
Class 0:
Packet latency average = 20.2972
	minimum = 7
	maximum = 66
Network latency average = 20.2972
	minimum = 7
	maximum = 66
Slowest packet = 505878
Flit latency average = 20.2972
	minimum = 7
	maximum = 66
Slowest flit = 505878
Fragmentation average = 0
	minimum = 0
	maximum = 0
Injected packet rate average = 0.0515
	minimum = 0.042 (at node 11)
	maximum = 0.057 (at node 4)
Accepted packet rate average = 0.051
	minimum = 0.0435 (at node 10)
	maximum = 0.0585 (at node 1)
Injected flit rate average = 0.0515
	minimum = 0.042 (at node 11)
	maximum = 0.057 (at node 4)
Accepted flit rate average= 0.051
	minimum = 0.0435 (at node 10)
	maximum = 0.0585 (at node 1)
Injected packet length average = 1
Accepted packet length average = 1
Total in-flight flits = 16 (0 measured)
latency change    = 0.000511369
throughput change = 0.0343137
Class 0:
Packet latency average = 20.633
	minimum = 7
	maximum = 55
Network latency average = 20.633
	minimum = 7
	maximum = 55
Slowest packet = 507420
Flit latency average = 20.633
	minimum = 7
	maximum = 55
Slowest flit = 507420
Fragmentation average = 0
	minimum = 0
	maximum = 0
Injected packet rate average = 0.0505
	minimum = 0.041 (at node 8)
	maximum = 0.063 (at node 5)
Accepted packet rate average = 0.0500625
	minimum = 0.035 (at node 12)
	maximum = 0.064 (at node 0)
Injected flit rate average = 0.0505
	minimum = 0.041 (at node 8)
	maximum = 0.063 (at node 5)
Accepted flit rate average= 0.0500625
	minimum = 0.035 (at node 12)
	maximum = 0.064 (at node 0)
Injected packet length average = 1
Accepted packet length average = 1
Total in-flight flits = 23 (0 measured)
latency change    = 0.0162738
throughput change = 0.0187266
Warmed up ...Time used is 3000 cycles
Class 0:
Packet latency average = 20.9466
	minimum = 7
	maximum = 56
Network latency average = 20.9466
	minimum = 7
	maximum = 56
Slowest packet = 508875
Flit latency average = 20.9518
	minimum = 7
	maximum = 56
Slowest flit = 508875
Fragmentation average = 0
	minimum = 0
	maximum = 0
Injected packet rate average = 0.05025
	minimum = 0.043 (at node 7)
	maximum = 0.059 (at node 14)
Accepted packet rate average = 0.0505625
	minimum = 0.039 (at node 12)
	maximum = 0.069 (at node 15)
Injected flit rate average = 0.05025
	minimum = 0.043 (at node 7)
	maximum = 0.059 (at node 14)
Accepted flit rate average= 0.0505625
	minimum = 0.039 (at node 12)
	maximum = 0.069 (at node 15)
Injected packet length average = 1
Accepted packet length average = 1
Total in-flight flits = 18 (18 measured)
latency change    = 0.0149717
throughput change = 0.00988875
Class 0:
Packet latency average = 20.8104
	minimum = 7
	maximum = 61
Network latency average = 20.8104
	minimum = 7
	maximum = 61
Slowest packet = 509072
Flit latency average = 20.8148
	minimum = 7
	maximum = 61
Slowest flit = 509072
Fragmentation average = 0
	minimum = 0
	maximum = 0
Injected packet rate average = 0.0517188
	minimum = 0.0445 (at node 10)
	maximum = 0.0625 (at node 8)
Accepted packet rate average = 0.0518125
	minimum = 0.04 (at node 12)
	maximum = 0.0625 (at node 15)
Injected flit rate average = 0.0517188
	minimum = 0.0445 (at node 10)
	maximum = 0.0625 (at node 8)
Accepted flit rate average= 0.0518125
	minimum = 0.04 (at node 12)
	maximum = 0.0625 (at node 15)
Injected packet length average = 1
Accepted packet length average = 1
Total in-flight flits = 20 (20 measured)
latency change    = 0.00654324
throughput change = 0.0241255
Class 0:
Packet latency average = 20.7608
	minimum = 7
	maximum = 61
Network latency average = 20.7608
	minimum = 7
	maximum = 61
Slowest packet = 509072
Flit latency average = 20.7643
	minimum = 7
	maximum = 61
Slowest flit = 509072
Fragmentation average = 0
	minimum = 0
	maximum = 0
Injected packet rate average = 0.0507917
	minimum = 0.045 (at node 5)
	maximum = 0.0583333 (at node 8)
Accepted packet rate average = 0.051
	minimum = 0.0436667 (at node 7)
	maximum = 0.0586667 (at node 15)
Injected flit rate average = 0.0507917
	minimum = 0.045 (at node 5)
	maximum = 0.0583333 (at node 8)
Accepted flit rate average= 0.051
	minimum = 0.0436667 (at node 7)
	maximum = 0.0586667 (at node 15)
Injected packet length average = 1
Accepted packet length average = 1
Total in-flight flits = 13 (13 measured)
latency change    = 0.00238781
throughput change = 0.0159314
Draining all recorded packets ...
Draining remaining packets ...
Time taken is 6060 cycles
Class 0:
Packet latency average = 20.7881
	minimum = 7
	maximum = 52
Network latency average = 20.7881
	minimum = 7
	maximum = 52
Slowest packet = 510833
Flit latency average = 20.7881
	minimum = 7
	maximum = 52
Slowest flit = 510833
Fragmentation average = 0
	minimum = 0
	maximum = 0
Injected packet rate average = 0.0495
	minimum = 0.039 (at node 5)
	maximum = 0.056 (at node 7)
Accepted packet rate average = 0.048375
	minimum = 0.033 (at node 1)
	maximum = 0.063 (at node 5)
Injected flit rate average = 0.0495
	minimum = 0.039 (at node 5)
	maximum = 0.056 (at node 7)
Accepted flit rate average= 0.048375
	minimum = 0.033 (at node 1)
	maximum = 0.063 (at node 5)
Injected packet length average = 1
Accepted packet length average = 1
Total in-flight flits = 18 (0 measured)
latency change    = 1
throughput change = 1
Class 0:
Packet latency average = 20.4649
	minimum = 7
	maximum = 73
Network latency average = 20.4649
	minimum = 7
	maximum = 73
Slowest packet = 511882
Flit latency average = 20.4649
	minimum = 7
	maximum = 73
Slowest flit = 511882
Fragmentation average = 0
	minimum = 0
	maximum = 0
Injected packet rate average = 0.0506562
	minimum = 0.046 (at node 11)
	maximum = 0.057 (at node 2)
Accepted packet rate average = 0.0502812
	minimum = 0.0415 (at node 9)
	maximum = 0.055 (at node 4)
Injected flit rate average = 0.0506562
	minimum = 0.046 (at node 11)
	maximum = 0.057 (at node 2)
Accepted flit rate average= 0.0502812
	minimum = 0.0415 (at node 9)
	maximum = 0.055 (at node 4)
Injected packet length average = 1
Accepted packet length average = 1
Total in-flight flits = 12 (0 measured)
latency change    = 0.0157943
throughput change = 0.0379117
Class 0:
Packet latency average = 20.2886
	minimum = 7
	maximum = 50
Network latency average = 20.2886
	minimum = 7
	maximum = 50
Slowest packet = 512490
Flit latency average = 20.2886
	minimum = 7
	maximum = 50
Slowest flit = 512490
Fragmentation average = 0
	minimum = 0
	maximum = 0
Injected packet rate average = 0.0489375
	minimum = 0.038 (at node 6)
	maximum = 0.063 (at node 3)
Accepted packet rate average = 0.0489375
	minimum = 0.037 (at node 11)
	maximum = 0.065 (at node 14)
Injected flit rate average = 0.0489375
	minimum = 0.038 (at node 6)
	maximum = 0.063 (at node 3)
Accepted flit rate average= 0.0489375
	minimum = 0.037 (at node 11)
	maximum = 0.065 (at node 14)
Injected packet length average = 1
Accepted packet length average = 1
Total in-flight flits = 12 (0 measured)
latency change    = 0.00868721
throughput change = 0.0274585
Warmed up ...Time used is 3000 cycles
Class 0:
Packet latency average = 20.388
	minimum = 7
	maximum = 53
Network latency average = 20.388
	minimum = 7
	maximum = 53
Slowest packet = 513457
Flit latency average = 20.3493
	minimum = 7
	maximum = 53
Slowest flit = 513457
Fragmentation average = 0
	minimum = 0
	maximum = 0
Injected packet rate average = 0.0498125
	minimum = 0.04 (at node 2)
	maximum = 0.062 (at node 5)
Accepted packet rate average = 0.0495625
	minimum = 0.039 (at node 15)
	maximum = 0.059 (at node 7)
Injected flit rate average = 0.0498125
	minimum = 0.04 (at node 2)
	maximum = 0.062 (at node 5)
Accepted flit rate average= 0.0495625
	minimum = 0.039 (at node 15)
	maximum = 0.059 (at node 7)
Injected packet length average = 1
Accepted packet length average = 1
Total in-flight flits = 16 (16 measured)
latency change    = 0.00487203
throughput change = 0.0126103
Class 0:
Packet latency average = 20.642
	minimum = 7
	maximum = 61
Network latency average = 20.642
	minimum = 7
	maximum = 61
Slowest packet = 513951
Flit latency average = 20.6209
	minimum = 7
	maximum = 61
Slowest flit = 513951
Fragmentation average = 0
	minimum = 0
	maximum = 0
Injected packet rate average = 0.0498437
	minimum = 0.0425 (at node 9)
	maximum = 0.0565 (at node 3)
Accepted packet rate average = 0.049875
	minimum = 0.0435 (at node 12)
	maximum = 0.06 (at node 8)
Injected flit rate average = 0.0498437
	minimum = 0.0425 (at node 9)
	maximum = 0.0565 (at node 3)
Accepted flit rate average= 0.049875
	minimum = 0.0435 (at node 12)
	maximum = 0.06 (at node 8)
Injected packet length average = 1
Accepted packet length average = 1
Total in-flight flits = 11 (11 measured)
latency change    = 0.0123089
throughput change = 0.00626566
Class 0:
Packet latency average = 20.5119
	minimum = 7
	maximum = 61
Network latency average = 20.5119
	minimum = 7
	maximum = 61
Slowest packet = 513951
Flit latency average = 20.4986
	minimum = 7
	maximum = 61
Slowest flit = 513951
Fragmentation average = 0
	minimum = 0
	maximum = 0
Injected packet rate average = 0.0503958
	minimum = 0.0443333 (at node 1)
	maximum = 0.055 (at node 11)
Accepted packet rate average = 0.0503542
	minimum = 0.046 (at node 0)
	maximum = 0.0546667 (at node 8)
Injected flit rate average = 0.0503958
	minimum = 0.0443333 (at node 1)
	maximum = 0.055 (at node 11)
Accepted flit rate average= 0.0503542
	minimum = 0.046 (at node 0)
	maximum = 0.0546667 (at node 8)
Injected packet length average = 1
Accepted packet length average = 1
Total in-flight flits = 14 (14 measured)
latency change    = 0.00634731
throughput change = 0.00951593
Draining all recorded packets ...
Draining remaining packets ...
Time taken is 6053 cycles
Class 0:
Packet latency average = 20.1669
	minimum = 7
	maximum = 53
Network latency average = 20.1669
	minimum = 7
	maximum = 53
Slowest packet = 515883
Flit latency average = 20.1669
	minimum = 7
	maximum = 53
Slowest flit = 515883
Fragmentation average = 0
	minimum = 0
	maximum = 0
Injected packet rate average = 0.05075
	minimum = 0.039 (at node 12)
	maximum = 0.069 (at node 2)
Accepted packet rate average = 0.0498125
	minimum = 0.041 (at node 11)
	maximum = 0.067 (at node 10)
Injected flit rate average = 0.05075
	minimum = 0.039 (at node 12)
	maximum = 0.069 (at node 2)
Accepted flit rate average= 0.0498125
	minimum = 0.041 (at node 11)
	maximum = 0.067 (at node 10)
Injected packet length average = 1
Accepted packet length average = 1
Total in-flight flits = 15 (0 measured)
latency change    = 1
throughput change = 1
Class 0:
Packet latency average = 20.4464
	minimum = 7
	maximum = 56
Network latency average = 20.4464
	minimum = 7
	maximum = 56
Slowest packet = 517020
Flit latency average = 20.4464
	minimum = 7
	maximum = 56
Slowest flit = 517020
Fragmentation average = 0
	minimum = 0
	maximum = 0
Injected packet rate average = 0.0494375
	minimum = 0.0385 (at node 12)
	maximum = 0.0605 (at node 2)
Accepted packet rate average = 0.0489375
	minimum = 0.0425 (at node 1)
	maximum = 0.061 (at node 10)
Injected flit rate average = 0.0494375
	minimum = 0.0385 (at node 12)
	maximum = 0.0605 (at node 2)
Accepted flit rate average= 0.0489375
	minimum = 0.0425 (at node 1)
	maximum = 0.061 (at node 10)
Injected packet length average = 1
Accepted packet length average = 1
Total in-flight flits = 16 (0 measured)
latency change    = 0.0136692
throughput change = 0.0178799
Class 0:
Packet latency average = 20.2999
	minimum = 7
	maximum = 62
Network latency average = 20.2999
	minimum = 7
	maximum = 62
Slowest packet = 517317
Flit latency average = 20.2999
	minimum = 7
	maximum = 62
Slowest flit = 517317
Fragmentation average = 0
	minimum = 0
	maximum = 0
Injected packet rate average = 0.0483125
	minimum = 0.037 (at node 8)
	maximum = 0.056 (at node 15)
Accepted packet rate average = 0.0485625
	minimum = 0.039 (at node 7)
	maximum = 0.055 (at node 4)
Injected flit rate average = 0.0483125
	minimum = 0.037 (at node 8)
	maximum = 0.056 (at node 15)
Accepted flit rate average= 0.0485625
	minimum = 0.039 (at node 7)
	maximum = 0.055 (at node 4)
Injected packet length average = 1
Accepted packet length average = 1
Total in-flight flits = 12 (0 measured)
latency change    = 0.00721625
throughput change = 0.00772201
Warmed up ...Time used is 3000 cycles
Class 0:
Packet latency average = 20.6296
	minimum = 7
	maximum = 64
Network latency average = 20.6296
	minimum = 7
	maximum = 64
Slowest packet = 518387
Flit latency average = 20.6931
	minimum = 7
	maximum = 64
Slowest flit = 518387
Fragmentation average = 0
	minimum = 0
	maximum = 0
Injected packet rate average = 0.050625
	minimum = 0.036 (at node 8)
	maximum = 0.072 (at node 4)
Accepted packet rate average = 0.0496875
	minimum = 0.031 (at node 6)
	maximum = 0.069 (at node 4)
Injected flit rate average = 0.050625
	minimum = 0.036 (at node 8)
	maximum = 0.072 (at node 4)
Accepted flit rate average= 0.0496875
	minimum = 0.031 (at node 6)
	maximum = 0.069 (at node 4)
Injected packet length average = 1
Accepted packet length average = 1
Total in-flight flits = 27 (27 measured)
latency change    = 0.0159847
throughput change = 0.0226415
Class 0:
Packet latency average = 20.8962
	minimum = 7
	maximum = 71
Network latency average = 20.8962
	minimum = 7
	maximum = 71
Slowest packet = 519034
Flit latency average = 20.9254
	minimum = 7
	maximum = 71
Slowest flit = 519034
Fragmentation average = 0
	minimum = 0
	maximum = 0
Injected packet rate average = 0.0508125
	minimum = 0.039 (at node 6)
	maximum = 0.0645 (at node 4)
Accepted packet rate average = 0.0506562
	minimum = 0.043 (at node 0)
	maximum = 0.06 (at node 4)
Injected flit rate average = 0.0508125
	minimum = 0.039 (at node 6)
	maximum = 0.0645 (at node 4)
Accepted flit rate average= 0.0506562
	minimum = 0.043 (at node 0)
	maximum = 0.06 (at node 4)
Injected packet length average = 1
Accepted packet length average = 1
Total in-flight flits = 17 (17 measured)
latency change    = 0.0127573
throughput change = 0.019124
Class 0:
Packet latency average = 20.8233
	minimum = 7
	maximum = 71
Network latency average = 20.8233
	minimum = 7
	maximum = 71
Slowest packet = 519034
Flit latency average = 20.8429
	minimum = 7
	maximum = 71
Slowest flit = 519034
Fragmentation average = 0
	minimum = 0
	maximum = 0
Injected packet rate average = 0.0511458
	minimum = 0.044 (at node 12)
	maximum = 0.0616667 (at node 4)
Accepted packet rate average = 0.0510625
	minimum = 0.0456667 (at node 3)
	maximum = 0.0596667 (at node 4)
Injected flit rate average = 0.0511458
	minimum = 0.044 (at node 12)
	maximum = 0.0616667 (at node 4)
Accepted flit rate average= 0.0510625
	minimum = 0.0456667 (at node 3)
	maximum = 0.0596667 (at node 4)
Injected packet length average = 1
Accepted packet length average = 1
Total in-flight flits = 16 (16 measured)
latency change    = 0.00350188
throughput change = 0.00795594
Draining all recorded packets ...
Draining remaining packets ...
Time taken is 6060 cycles
====== Overall Traffic Statistics ======
====== Traffic class 0 ======
Packet latency average = 20.5312 (100 samples)
	minimum = 7 (100 samples)
	maximum = 64.97 (100 samples)
Network latency average = 20.5311 (100 samples)
	minimum = 7 (100 samples)
	maximum = 64.97 (100 samples)
Flit latency average = 20.5515 (100 samples)
	minimum = 7 (100 samples)
	maximum = 65.11 (100 samples)
Fragmentation average = 0 (100 samples)
	minimum = 0 (100 samples)
	maximum = 0 (100 samples)
Injected packet rate average = 0.0499108 (100 samples)
	minimum = 0.0433693 (100 samples)
	maximum = 0.0571828 (100 samples)
Accepted packet rate average = 0.049918 (100 samples)
	minimum = 0.04329 (100 samples)
	maximum = 0.0568965 (100 samples)
Injected flit rate average = 0.0499108 (100 samples)
	minimum = 0.0433693 (100 samples)
	maximum = 0.0571828 (100 samples)
Accepted flit rate average = 0.049918 (100 samples)
	minimum = 0.04329 (100 samples)
	maximum = 0.0568965 (100 samples)
Injected packet size average = 1 (100 samples)
Accepted packet size average = 1 (100 samples)
Hops average = 3.50354 (100 samples)
Total run time 7.45085
